REMARK  Name = ZINC39503570
REMARK  7 active torsions:
REMARK  status: ('A' for Active; 'I' for Inactive)
REMARK    1  A    between atoms: C_1  and  C_2
REMARK    2  A    between atoms: C_2  and  C_3
REMARK    3  A    between atoms: C_2  and  S_4
REMARK    4  A    between atoms: S_4  and  C_7
REMARK    5  A    between atoms: C_14  and  O_25
REMARK    6  A    between atoms: N_17  and  C_18
REMARK    7  A    between atoms: C_23  and  O_24
REMARK                            x       y       z     vdW  Elec       q    Type
REMARK                         _______ _______ _______ _____ _____    ______ ____
ROOT
ATOM      1  C   UNL     1      -1.995  -2.194   0.403  0.00  0.00    +0.133 C 
ATOM      2  C   UNL     1      -0.989  -2.699  -0.653  0.00  0.00    +0.028 C 
ATOM      3  C   UNL     1      -1.472  -4.133  -0.988  0.00  0.00    +0.028 C 
ATOM      4  C   UNL     1      -3.006  -3.993  -0.940  0.00  0.00    +0.039 C 
ATOM      5  C   UNL     1      -3.284  -3.016   0.211  0.00  0.00    +0.052 C 
ATOM      6  C   UNL     1      -3.659  -5.355  -0.666  0.00  0.00    +0.058 C 
ATOM      7  C   UNL     1      -4.944  -5.298  -1.537  0.00  0.00    +0.134 C 
ATOM      8  C   UNL     1      -4.457  -4.486  -2.763  0.00  0.00    +0.137 C 
ATOM      9  N   UNL     1      -3.524  -3.484  -2.208  0.00  0.00    -0.319 N 
ENDROOT
BRANCH   9  10
ATOM     10  C   UNL     1      -3.194  -2.258  -2.795  0.00  0.00    +0.072 A 
ATOM     11  C   UNL     1      -1.974  -2.099  -3.435  0.00  0.00    +0.027 A 
ATOM     12  C   UNL     1      -1.650  -0.886  -4.015  0.00  0.00    +0.002 A 
ATOM     13  C   UNL     1      -2.541   0.170  -3.958  0.00  0.00    +0.004 A 
ATOM     14  C   UNL     1      -3.759   0.019  -3.322  0.00  0.00    +0.047 A 
ATOM     15  C   UNL     1      -4.093  -1.194  -2.743  0.00  0.00    +0.138 A 
BRANCH  15  16
ATOM     16  O   UNL     1      -5.293  -1.345  -2.122  0.00  0.00    -0.505 OA
ATOM     17  H   UNL     1      -5.301  -1.042  -1.203  0.00  0.00    +0.292 HD
ENDBRANCH  15  16
ENDBRANCH   9  10
BRANCH   1  18
ATOM     18  S   UNL     1      -2.337  -0.431   0.142  0.00  0.00    -0.026 S 
ATOM     19  O   UNL     1      -3.467  -0.072   0.926  0.00  0.00    -0.174 OA
ATOM     20  O   UNL     1      -2.358  -0.180  -1.256  0.00  0.00    -0.174 OA
BRANCH  18  22
ATOM     21  C   UNL     1      -1.057   1.889   0.819  0.00  0.00    +0.031 C 
ATOM     22  C   UNL     1      -0.871   0.370   0.847  0.00  0.00    +0.125 C 
ATOM     23  C   UNL     1      -0.681  -0.094   2.293  0.00  0.00    +0.031 C 
ENDBRANCH  18  22
ENDBRANCH   1  18
BRANCH   7  24
ATOM     24  O   UNL     1      -5.359  -6.610  -1.923  0.00  0.00    -0.390 OA
ATOM     25  H   UNL     1      -6.158  -6.625  -2.468  0.00  0.00    +0.210 HD
ENDBRANCH   7  24
TORSDOF 5
