REMARK  Name = ZINC39664008
REMARK  12 active torsions:
REMARK  status: ('A' for Active; 'I' for Inactive)
REMARK    1  A    between atoms: C_1  and  C_2
REMARK    2  A    between atoms: C_2  and  C_3
REMARK    3  A    between atoms: C_3  and  C_4
REMARK    4  A    between atoms: C_4  and  C_6
REMARK    5  A    between atoms: C_4  and  C_7
REMARK    6  A    between atoms: C_11  and  C_20
REMARK    7  A    between atoms: N_22  and  C_23
REMARK    8  A    between atoms: C_23  and  C_24
REMARK    9  A    between atoms: C_24  and  C_26
REMARK   10  A    between atoms: C_24  and  N_34
REMARK   11  A    between atoms: C_29  and  O_32
REMARK   12  A    between atoms: O_32  and  C_33
REMARK                            x       y       z     vdW  Elec       q    Type
REMARK                         _______ _______ _______ _____ _____    ______ ____
ROOT
ATOM      1  C   UNL     1      -2.627  -7.561   0.488  0.00  0.00    +0.218 C 
ATOM      2  O   UNL     1      -2.726  -7.788  -0.700  0.00  0.00    -0.275 OA
ATOM      3  N   UNL     1      -2.195  -8.526   1.324  0.00  0.00    -0.316 N 
ATOM      4  H   UNL     1      -2.115  -8.345   2.273  0.00  0.00    +0.149 HD
ENDROOT
BRANCH   1   9
ATOM      5  C   UNL     1      -3.749  -2.794   0.068  0.00  0.00    +0.218 C 
ATOM      6  O   UNL     1      -4.750  -2.130   0.230  0.00  0.00    -0.275 OA
ATOM      7  N   UNL     1      -3.814  -4.139   0.134  0.00  0.00    -0.300 N 
ATOM      8  C   UNL     1      -2.707  -5.111  -0.029  0.00  0.00    +0.121 C 
ATOM      9  C   UNL     1      -2.987  -6.202   1.029  0.00  0.00    +0.100 C 
ATOM     10  C   UNL     1      -4.499  -6.112   1.294  0.00  0.00    -0.004 C 
ATOM     11  C   UNL     1      -5.008  -4.979   0.391  0.00  0.00    +0.115 C 
ATOM     12  C   UNL     1      -4.759  -5.768   2.758  0.00  0.00    -0.010 C 
ATOM     13  C   UNL     1      -6.269  -5.740   3.010  0.00  0.00    -0.082 C 
ATOM     14  N   UNL     1      -6.846  -7.051   2.684  0.00  0.00    +0.379 N 
ATOM     15  C   UNL     1      -6.673  -7.332   1.254  0.00  0.00    -0.082 C 
ATOM     16  C   UNL     1      -5.180  -7.427   0.928  0.00  0.00    -0.010 C 
ATOM     17  H   UNL     1      -6.381  -7.765   3.225  0.00  0.00    -0.086 HD
ATOM     18  H   UNL     1      -7.829  -7.049   2.909  0.00  0.00    -0.086 HD
BRANCH   5  19
ATOM     19  C   UNL     1      -2.431  -2.116  -0.205  0.00  0.00    +0.072 C 
ATOM     20  C   UNL     1      -1.891  -2.578  -1.560  0.00  0.00    +0.017 C 
BRANCH  19  21
ATOM     21  C   UNL     1      -2.633  -0.600  -0.228  0.00  0.00    +0.012 C 
BRANCH  21  23
ATOM     22  C   UNL     1      -1.479   1.610  -0.403  0.00  0.00    +0.004 C 
ATOM     23  C   UNL     1      -1.277   0.093  -0.381  0.00  0.00    -0.003 C 
ENDBRANCH  21  23
ENDBRANCH  19  21
ENDBRANCH   5  19
ENDBRANCH   1   9
BRANCH   3  24
ATOM     24  C   UNL     1      -1.844  -9.848   0.798  0.00  0.00    +0.093 C 
BRANCH  24  25
ATOM     25  C   UNL     1      -1.518 -10.789   1.960  0.00  0.00    -0.020 C 
BRANCH  25  26
ATOM     26  C   UNL     1      -2.756 -11.013   2.788  0.00  0.00    -0.059 A 
ATOM     27  C   UNL     1      -3.710 -11.923   2.371  0.00  0.00    +0.005 A 
ATOM     28  C   UNL     1      -4.847 -12.130   3.128  0.00  0.00    +0.046 A 
ATOM     29  C   UNL     1      -5.031 -11.425   4.308  0.00  0.00    +0.120 A 
ATOM     30  C   UNL     1      -4.072 -10.513   4.725  0.00  0.00    +0.046 A 
ATOM     31  C   UNL     1      -2.935 -10.313   3.967  0.00  0.00    +0.005 A 
BRANCH  29  32
ATOM     32  O   UNL     1      -6.148 -11.627   5.055  0.00  0.00    -0.495 OA
ATOM     33  C   UNL     1      -6.271 -10.865   6.258  0.00  0.00    +0.277 C 
ENDBRANCH  29  32
ENDBRANCH  25  26
BRANCH  25  34
ATOM     34  N   UNL     1      -1.043 -12.074   1.430  0.00  0.00    +0.385 N 
ATOM     35  C   UNL     1       0.218 -11.881   0.670  0.00  0.00    -0.078 C 
ATOM     36  C   UNL     1       0.859 -13.291   0.681  0.00  0.00    -0.020 C 
ATOM     37  C   UNL     1       0.511 -13.818   2.092  0.00  0.00    -0.020 C 
ATOM     38  C   UNL     1      -0.708 -12.991   2.541  0.00  0.00    -0.078 C 
ATOM     39  H   UNL     1      -1.747 -12.488   0.838  0.00  0.00    -0.081 HD
ENDBRANCH  25  34
ENDBRANCH  24  25
ENDBRANCH   3  24
TORSDOF 9
