REMARK  Name = ZINC63373915
REMARK  10 active torsions:
REMARK  status: ('A' for Active; 'I' for Inactive)
REMARK    1  A    between atoms: C_1  and  C_2
REMARK    2  A    between atoms: C_5  and  C_8
REMARK    3  A    between atoms: C_8  and  N_9
REMARK    4  A    between atoms: C_10  and  C_12
REMARK    5  A    between atoms: C_12  and  C_14
REMARK    6  A    between atoms: C_12  and  N_18
REMARK    7  A    between atoms: C_14  and  C_15
REMARK    8  A    between atoms: C_15  and  C_16
REMARK    9  A    between atoms: C_15  and  C_17
REMARK   10  A    between atoms: C_21  and  C_37
REMARK                            x       y       z     vdW  Elec       q    Type
REMARK                         _______ _______ _______ _____ _____    ______ ____
ROOT
ATOM      1  N   UNL     1       3.319  -8.168  -0.187  0.00  0.00    -0.212 N 
ATOM      2  C   UNL     1       3.819  -8.896   0.832  0.00  0.00    +0.249 C 
ATOM      3  O   UNL     1       4.196  -8.486   1.909  0.00  0.00    -0.273 OA
ATOM      4  C   UNL     1       3.811 -10.332   0.353  0.00  0.00    +0.136 C 
ATOM      5  C   UNL     1       5.242 -10.881   0.313  0.00  0.00    +0.139 C 
ATOM      6  C   UNL     1       5.225 -12.059  -0.654  0.00  0.00    -0.034 C 
ATOM      7  C   UNL     1       5.662 -13.111   0.030  0.00  0.00    -0.001 A 
ATOM      8  C   UNL     1       5.920 -14.502  -0.376  0.00  0.00    +0.010 A 
ATOM      9  C   UNL     1       6.362 -15.339   0.600  0.00  0.00    +0.001 A 
ATOM     10  C   UNL     1       6.571 -14.936   1.923  0.00  0.00    +0.002 A 
ATOM     11  C   UNL     1       6.364 -13.676   2.382  0.00  0.00    +0.026 A 
ATOM     12  C   UNL     1       5.901 -12.704   1.448  0.00  0.00    +0.043 A 
ATOM     13  N   UNL     1       5.641 -11.428   1.613  0.00  0.00    -0.375 N 
ATOM     14  C   UNL     1       4.723 -11.956  -2.074  0.00  0.00    +0.052 C 
ATOM     15  C   UNL     1       3.320 -11.320  -2.016  0.00  0.00    +0.115 C 
ATOM     16  N   UNL     1       3.356 -10.217  -1.051  0.00  0.00    -0.269 N 
ATOM     17  C   UNL     1       3.027  -8.934  -1.246  0.00  0.00    +0.313 C 
ATOM     18  O   UNL     1       2.524  -8.512  -2.269  0.00  0.00    -0.252 OA
ATOM     19  C   UNL     1       2.877 -11.208   1.190  0.00  0.00    +0.044 C 
ATOM     20  H   UNL     1       5.697 -10.931   2.444  0.00  0.00    +0.160 HD
ENDROOT
BRANCH   1  21
ATOM     21  C   UNL     1       3.114  -6.718  -0.139  0.00  0.00    +0.171 C 
BRANCH  21  23
ATOM     22  N   UNL     1       1.211  -5.139  -0.190  0.00  0.00    -0.310 N 
ATOM     23  C   UNL     1       1.639  -6.416  -0.217  0.00  0.00    +0.234 C 
ATOM     24  O   UNL     1       0.839  -7.323  -0.303  0.00  0.00    -0.274 OA
ATOM     25  H   UNL     1       1.851  -4.413  -0.120  0.00  0.00    +0.149 HD
BRANCH  22  26
ATOM     26  C   UNL     1      -0.223  -4.845  -0.265  0.00  0.00    +0.139 C 
BRANCH  26  31
ATOM     27  C   UNL     1      -1.034   0.873  -0.076  0.00  0.00    +0.044 C 
ATOM     28  C   UNL     1      -0.822  -0.618  -0.125  0.00  0.00    -0.050 A 
ATOM     29  C   UNL     1      -0.651  -1.252  -1.341  0.00  0.00    +0.003 A 
ATOM     30  C   UNL     1      -0.457  -2.620  -1.387  0.00  0.00    +0.005 A 
ATOM     31  C   UNL     1      -0.433  -3.354  -0.215  0.00  0.00    -0.030 A 
ATOM     32  C   UNL     1      -0.604  -2.720   1.001  0.00  0.00    +0.005 A 
ATOM     33  C   UNL     1      -0.794  -1.351   1.046  0.00  0.00    +0.003 A 
ENDBRANCH  26  31
ENDBRANCH  22  26
ENDBRANCH  21  23
BRANCH  21  34
ATOM     34  C   UNL     1       3.832  -6.062  -1.320  0.00  0.00    +0.035 C 
BRANCH  34  35
ATOM     35  C   UNL     1       5.337  -6.306  -1.201  0.00  0.00    -0.015 C 
ATOM     36  C   UNL     1       6.040  -5.779  -2.454  0.00  0.00    +0.007 C 
ATOM     37  C   UNL     1       5.876  -5.576   0.030  0.00  0.00    +0.007 C 
ENDBRANCH  34  35
ENDBRANCH  21  34
ENDBRANCH   1  21
TORSDOF 6
