REMARK  Name = ZINC12182524
REMARK  7 active torsions:
REMARK  status: ('A' for Active; 'I' for Inactive)
REMARK    1  A    between atoms: C_1  and  C_2
REMARK    2  A    between atoms: C_6  and  C_8
REMARK    3  A    between atoms: C_11  and  O_14
REMARK    4  A    between atoms: O_14  and  C_15
REMARK    5  A    between atoms: C_17  and  C_20
REMARK    6  A    between atoms: C_20  and  N_21
REMARK    7  A    between atoms: C_22  and  C_24
REMARK                            x       y       z     vdW  Elec       q    Type
REMARK                         _______ _______ _______ _____ _____    ______ ____
ROOT
ATOM      1  C   UNL     1      -2.526   7.123   0.437  0.00  0.00    +0.149 C 
ENDROOT
BRANCH   1  10
ATOM      2  C   UNL     1      -2.166  12.963   5.019  0.00  0.00    +0.044 C 
ATOM      3  C   UNL     1      -2.057  11.573   4.448  0.00  0.00    -0.049 A 
ATOM      4  C   UNL     1      -2.631  11.280   3.222  0.00  0.00    +0.010 A 
ATOM      5  C   UNL     1      -2.534  10.010   2.696  0.00  0.00    -0.001 A 
ATOM      6  C   UNL     1      -1.857   9.007   3.377  0.00  0.00    +0.133 A 
ATOM      7  C   UNL     1      -1.281   9.306   4.622  0.00  0.00    +0.044 A 
ATOM      8  C   UNL     1      -1.387  10.590   5.147  0.00  0.00    +0.017 A 
ATOM      9  O   UNL     1      -1.869   7.840   2.678  0.00  0.00    -0.486 OA
ATOM     10  C   UNL     1      -2.926   7.883   1.704  0.00  0.00    +0.195 C 
ATOM     11  C   UNL     1      -3.068   9.396   1.413  0.00  0.00    +0.085 C 
BRANCH   7  12
ATOM     12  C   UNL     1      -0.559   8.253   5.376  0.00  0.00    +0.097 A 
ATOM     13  C   UNL     1       0.021   8.549   6.614  0.00  0.00    +0.035 A 
ATOM     14  C   UNL     1       0.679   7.532   7.282  0.00  0.00    +0.071 A 
ATOM     15  C   UNL     1       0.733   6.278   6.675  0.00  0.00    +0.234 A 
ATOM     16  N   UNL     1       0.160   6.089   5.497  0.00  0.00    -0.111 NA
ATOM     17  N   UNL     1      -0.456   7.029   4.877  0.00  0.00    -0.146 NA
BRANCH  15  18
ATOM     18  O   UNL     1       1.373   5.252   7.291  0.00  0.00    -0.479 OA
ATOM     19  C   UNL     1       1.389   3.995   6.611  0.00  0.00    +0.279 C 
ENDBRANCH  15  18
ENDBRANCH   7  12
ENDBRANCH   1  10
BRANCH   1  20
ATOM     20  N   UNL     1      -2.457   5.689   0.729  0.00  0.00    -0.311 N 
ATOM     21  C   UNL     1      -2.121   4.819  -0.243  0.00  0.00    +0.222 C 
ATOM     22  O   UNL     1      -1.876   5.222  -1.360  0.00  0.00    -0.275 OA
ATOM     23  H   UNL     1      -2.652   5.366   1.623  0.00  0.00    +0.149 HD
BRANCH  21  24
ATOM     24  C   UNL     1      -2.050   3.344   0.057  0.00  0.00    +0.122 C 
ATOM     25  C   UNL     1      -0.992   3.089   1.137  0.00  0.00    +0.019 C 
ATOM     26  C   UNL     1      -0.738   1.584   1.264  0.00  0.00    +0.006 C 
ATOM     27  C   UNL     1      -0.013   1.086   0.008  0.00  0.00    +0.037 C 
ATOM     28  C   UNL     1      -0.749   1.589  -1.208  0.00  0.00    -0.018 A 
ATOM     29  C   UNL     1      -1.655   2.590  -1.191  0.00  0.00    +0.032 A 
ATOM     30  N   UNL     1      -2.138   2.800  -2.456  0.00  0.00    -0.357 N 
ATOM     31  H   UNL     1      -2.800   3.466  -2.697  0.00  0.00    +0.166 HD
ATOM     32  C   UNL     1      -1.547   1.929  -3.327  0.00  0.00    +0.047 A 
ATOM     33  C   UNL     1      -0.646   1.129  -2.577  0.00  0.00    +0.003 A 
ATOM     34  C   UNL     1       0.120   0.132  -3.187  0.00  0.00    +0.010 A 
ATOM     35  C   UNL     1      -0.042  -0.034  -4.541  0.00  0.00    +0.001 A 
ATOM     36  C   UNL     1      -0.920   0.744  -5.278  0.00  0.00    +0.002 A 
ATOM     37  C   UNL     1      -1.690   1.738  -4.699  0.00  0.00    +0.026 A 
ENDBRANCH  21  24
ENDBRANCH   1  20
TORSDOF 5
