REMARK  Name = ZINC15903600
REMARK  6 active torsions:
REMARK  status: ('A' for Active; 'I' for Inactive)
REMARK    1  A    between atoms: C_1  and  C_2
REMARK    2  A    between atoms: C_9  and  C_14
REMARK    3  A    between atoms: N_16  and  N_17
REMARK    4  A    between atoms: C_18  and  C_20
REMARK    5  A    between atoms: N_29  and  C_31
REMARK    6  A    between atoms: C_31  and  C_32
REMARK                            x       y       z     vdW  Elec       q    Type
REMARK                         _______ _______ _______ _____ _____    ______ ____
ROOT
ATOM      1  N   UNL     1       5.409   7.568  -1.404  0.00  0.00    -0.229 N 
ATOM      2  C   UNL     1       5.600   8.902  -1.413  0.00  0.00    +0.281 C 
ATOM      3  O   UNL     1       4.720   9.645  -1.025  0.00  0.00    -0.267 OA
ATOM      4  H   UNL     1       6.111   6.975  -1.713  0.00  0.00    +0.173 HD
ENDROOT
BRANCH   2   5
ATOM      5  C   UNL     1       6.880   9.461  -1.892  0.00  0.00    +0.155 A 
ATOM      6  C   UNL     1       7.096  10.916  -1.911  0.00  0.00    +0.020 A 
ATOM      7  C   UNL     1       6.138  11.826  -1.479  0.00  0.00    +0.011 A 
ATOM      8  C   UNL     1       6.417  13.176  -1.523  0.00  0.00    +0.001 A 
ATOM      9  C   UNL     1       7.643  13.633  -1.987  0.00  0.00    +0.001 A 
ATOM     10  C   UNL     1       8.610  12.748  -2.415  0.00  0.00    +0.014 A 
ATOM     11  C   UNL     1       8.347  11.382  -2.379  0.00  0.00    +0.050 A 
ATOM     12  C   UNL     1       9.319  10.371  -2.816  0.00  0.00    +0.275 A 
ATOM     13  O   UNL     1      10.415  10.699  -3.234  0.00  0.00    -0.266 OA
ATOM     14  N   UNL     1       8.970   9.070  -2.742  0.00  0.00    -0.224 N 
ATOM     15  N   UNL     1       7.835   8.666  -2.311  0.00  0.00    -0.163 NA
BRANCH  14  16
ATOM     16  C   UNL     1       9.943   8.065  -3.178  0.00  0.00    +0.182 C 
BRANCH  16  17
ATOM     17  C   UNL     1      10.800   7.655  -2.009  0.00  0.00    -0.026 A 
ATOM     18  C   UNL     1      11.975   8.333  -1.742  0.00  0.00    +0.005 A 
ATOM     19  C   UNL     1      12.759   7.960  -0.666  0.00  0.00    +0.000 A 
ATOM     20  C   UNL     1      12.373   6.902   0.136  0.00  0.00    +0.000 A 
ATOM     21  C   UNL     1      11.201   6.221  -0.134  0.00  0.00    +0.000 A 
ATOM     22  C   UNL     1      10.415   6.597  -1.206  0.00  0.00    +0.005 A 
ENDBRANCH  16  17
ENDBRANCH  14  16
ENDBRANCH   2   5
BRANCH   1  25
ATOM     23  C   UNL     1       4.003   5.704  -0.940  0.00  0.00    +0.260 C 
ATOM     24  O   UNL     1       4.884   4.960  -1.327  0.00  0.00    -0.269 OA
ATOM     25  N   UNL     1       4.194   7.038  -0.949  0.00  0.00    -0.230 N 
ATOM     26  H   UNL     1       3.492   7.631  -0.640  0.00  0.00    +0.173 HD
BRANCH  23  34
ATOM     27  C   UNL     1      -1.759   2.247  -1.414  0.00  0.00    +0.029 C 
ATOM     28  C   UNL     1      -1.350   1.901   0.019  0.00  0.00    +0.134 C 
ATOM     29  C   UNL     1      -0.014   1.209   0.009  0.00  0.00    +0.230 C 
ATOM     30  O   UNL     1       0.002  -0.004   0.002  0.00  0.00    -0.274 OA
ATOM     31  N   UNL     1       1.149   1.853   0.001  0.00  0.00    -0.284 N 
ATOM     32  C   UNL     1       1.328   3.234  -0.003  0.00  0.00    +0.048 A 
ATOM     33  C   UNL     1       2.527   3.763  -0.452  0.00  0.00    +0.037 A 
ATOM     34  C   UNL     1       2.724   5.146  -0.461  0.00  0.00    +0.040 A 
ATOM     35  C   UNL     1       1.712   6.002  -0.016  0.00  0.00    +0.014 A 
ATOM     36  C   UNL     1       0.519   5.477   0.430  0.00  0.00    +0.017 A 
ATOM     37  C   UNL     1       0.323   4.103   0.437  0.00  0.00    +0.030 A 
ATOM     38  S   UNL     1      -1.207   3.427   1.003  0.00  0.00    -0.111 S 
ATOM     39  H   UNL     1       1.952   1.307  -0.002  0.00  0.00    +0.155 HD
ENDBRANCH  23  34
ENDBRANCH   1  25
TORSDOF 5
