REMARK  Name = ZINC02195202
REMARK  9 active torsions:
REMARK  status: ('A' for Active; 'I' for Inactive)
REMARK    1  A    between atoms: C_1  and  C_2
REMARK    2  A    between atoms: C_2  and  O_3
REMARK    3  A    between atoms: O_3  and  C_4
REMARK    4  A    between atoms: C_4  and  C_6
REMARK    5  A    between atoms: C_10  and  N_11
REMARK    6  A    between atoms: N_11  and  C_12
REMARK    7  A    between atoms: C_12  and  N_14
REMARK    8  A    between atoms: C_15  and  C_17
REMARK    9  A    between atoms: C_28  and  C_32
REMARK                            x       y       z     vdW  Elec       q    Type
REMARK                         _______ _______ _______ _____ _____    ______ ____
ROOT
ATOM      1  N   UNL     1       1.217   3.792  -2.476  0.00  0.00    -0.290 N 
ATOM      2  H   UNL     1       1.179   2.838  -2.643  0.00  0.00    +0.154 HD
ENDROOT
BRANCH   1   7
ATOM      3  C   UNL     1       1.233   3.539   0.009  0.00  0.00    +0.091 A 
ATOM      4  C   UNL     1       1.268   4.287   1.256  0.00  0.00    -0.021 A 
ATOM      5  C   UNL     1       1.325   5.629   1.120  0.00  0.00    -0.004 A 
ATOM      6  S   UNL     1       1.318   5.909  -0.628  0.00  0.00    -0.077 S 
ATOM      7  C   UNL     1       1.249   4.266  -1.175  0.00  0.00    +0.086 A 
ATOM      8  C   UNL     1       1.374   6.646   2.218  0.00  0.00    +0.046 C 
ATOM      9  C   UNL     1       0.965   5.958   3.532  0.00  0.00    -0.009 C 
ATOM     10  C   UNL     1       1.753   4.652   3.663  0.00  0.00    +0.008 C 
ATOM     11  C   UNL     1       1.252   3.637   2.634  0.00  0.00    +0.037 C 
ATOM     12  C   UNL     1       1.294   6.876   4.712  0.00  0.00    +0.008 C 
BRANCH   3  13
ATOM     13  C   UNL     1       1.176   2.076   0.002  0.00  0.00    +0.342 C 
ATOM     14  O   UNL     1       2.205   1.428  -0.011  0.00  0.00    -0.245 OA
BRANCH  13  15
ATOM     15  O   UNL     1      -0.018   1.448   0.010  0.00  0.00    -0.461 OA
BRANCH  15  17
ATOM     16  C   UNL     1      -1.433  -0.534   0.013  0.00  0.00    +0.048 C 
ATOM     17  C   UNL     1       0.002  -0.004   0.002  0.00  0.00    +0.229 C 
ENDBRANCH  15  17
ENDBRANCH  13  15
ENDBRANCH   3  13
ENDBRANCH   1   7
BRANCH   1  18
ATOM     18  C   UNL     1       1.240   4.658  -3.509  0.00  0.00    +0.141 C 
ATOM     19  S   UNL     1       1.308   6.343  -3.212  0.00  0.00    -0.018 S 
BRANCH  18  20
ATOM     20  N   UNL     1       1.210   4.197  -4.775  0.00  0.00    -0.263 N 
ATOM     21  C   UNL     1       1.233   5.062  -5.808  0.00  0.00    +0.258 C 
ATOM     22  O   UNL     1       1.281   6.260  -5.597  0.00  0.00    -0.269 OA
ATOM     23  H   UNL     1       1.172   3.242  -4.943  0.00  0.00    +0.157 HD
BRANCH  21  24
ATOM     24  C   UNL     1       1.200   4.561  -7.186  0.00  0.00    +0.094 A 
ATOM     25  C   UNL     1       1.216   5.271  -8.348  0.00  0.00    +0.068 A 
ATOM     26  C   UNL     1       1.178   4.595  -9.582  0.00  0.00    +0.008 A 
ATOM     27  C   UNL     1       1.187   5.151 -10.887  0.00  0.00    +0.010 A 
ATOM     28  C   UNL     1       1.146   4.351 -11.983  0.00  0.00    +0.001 A 
ATOM     29  C   UNL     1       1.094   2.966 -11.873  0.00  0.00    +0.001 A 
ATOM     30  C   UNL     1       1.084   2.384 -10.622  0.00  0.00    +0.016 A 
ATOM     31  C   UNL     1       1.125   3.184  -9.500  0.00  0.00    +0.021 A 
ATOM     32  S   UNL     1       1.137   2.870  -7.753  0.00  0.00    -0.082 S 
ATOM     33 CL   UNL     1       1.282   7.005  -8.307  0.00  0.00    -0.082 Cl
ENDBRANCH  21  24
ENDBRANCH  18  20
ENDBRANCH   1  18
TORSDOF 7
