REMARK  Name = ZINC15895299
REMARK  13 active torsions:
REMARK  status: ('A' for Active; 'I' for Inactive)
REMARK    1  A    between atoms: C_1  and  C_2
REMARK    2  A    between atoms: C_3  and  C_4
REMARK    3  A    between atoms: C_7  and  O_12
REMARK    4  A    between atoms: C_8  and  O_10
REMARK    5  A    between atoms: O_10  and  C_11
REMARK    6  A    between atoms: O_12  and  C_13
REMARK    7  A    between atoms: C_13  and  C_14
REMARK    8  A    between atoms: N_16  and  N_17
REMARK    9  A    between atoms: C_18  and  C_20
REMARK   10  A    between atoms: C_20  and  O_21
REMARK   11  A    between atoms: O_21  and  C_22
REMARK   12  A    between atoms: C_25  and  C_28
REMARK   13  A    between atoms: C_31  and  C_34
REMARK                            x       y       z     vdW  Elec       q    Type
REMARK                         _______ _______ _______ _____ _____    ______ ____
ROOT
ATOM      1  N   UNL     1       1.885   5.734   0.015  0.00  0.00    -0.231 N 
ATOM      2  C   UNL     1       2.943   6.570   0.009  0.00  0.00    +0.267 C 
ATOM      3  O   UNL     1       4.070   6.122  -0.004  0.00  0.00    -0.271 OA
ATOM      4  H   UNL     1       0.984   6.093   0.025  0.00  0.00    +0.173 HD
ENDROOT
BRANCH   1   7
ATOM      5  C   UNL     1       1.030   3.513   0.011  0.00  0.00    +0.267 C 
ATOM      6  O   UNL     1      -0.097   3.961   0.024  0.00  0.00    -0.271 OA
ATOM      7  N   UNL     1       2.088   4.348   0.005  0.00  0.00    -0.231 N 
ATOM      8  H   UNL     1       2.989   3.990  -0.005  0.00  0.00    +0.173 HD
BRANCH   5   9
ATOM      9  C   UNL     1       1.248   2.021   0.001  0.00  0.00    +0.326 C 
BRANCH   9  10
ATOM     10  O   UNL     1      -0.016   1.355   0.009  0.00  0.00    -0.479 OA
BRANCH  10  14
ATOM     11  C   UNL     1       0.041  -2.778  -0.014  0.00  0.00    -0.022 A 
ATOM     12  C   UNL     1       1.237  -2.059  -0.022  0.00  0.00    +0.012 A 
ATOM     13  C   UNL     1       1.213  -0.680  -0.019  0.00  0.00    +0.050 A 
ATOM     14  C   UNL     1       0.002  -0.004   0.002  0.00  0.00    +0.163 A 
ATOM     15  C   UNL     1      -1.195  -0.715   0.010  0.00  0.00    +0.162 A 
ATOM     16  C   UNL     1      -1.178  -2.098   0.002  0.00  0.00    +0.057 A 
BRANCH  11  19
ATOM     17  C   UNL     1       1.248  -6.406  -0.048  0.00  0.00    +0.035 C 
ATOM     18  C   UNL     1       1.224  -4.899  -0.038  0.00  0.00    -0.030 C 
ATOM     19  C   UNL     1       0.065  -4.255  -0.023  0.00  0.00    +0.003 C 
ENDBRANCH  11  19
BRANCH  15  20
ATOM     20  O   UNL     1      -2.381  -0.050   0.025  0.00  0.00    -0.491 OA
ATOM     21  C   UNL     1      -3.570  -0.843   0.033  0.00  0.00    +0.277 C 
ENDBRANCH  15  20
ENDBRANCH  10  14
ENDBRANCH   9  10
ENDBRANCH   5   9
ENDBRANCH   1   7
BRANCH   2  22
ATOM     22  C   UNL     1       2.725   8.061   0.019  0.00  0.00    +0.326 C 
BRANCH  22  23
ATOM     23  O   UNL     1       3.990   8.727   0.011  0.00  0.00    -0.483 OA
BRANCH  23  24
ATOM     24  C   UNL     1       3.971  10.085   0.018  0.00  0.00    +0.121 A 
ATOM     25  C   UNL     1       2.758  10.762   0.028  0.00  0.00    +0.046 A 
ATOM     26  C   UNL     1       2.736  12.140   0.040  0.00  0.00    +0.012 A 
ATOM     27  C   UNL     1       3.934  12.855   0.032  0.00  0.00    -0.018 A 
ATOM     28  C   UNL     1       5.150  12.173   0.017  0.00  0.00    +0.012 A 
ATOM     29  C   UNL     1       5.165  10.794   0.011  0.00  0.00    +0.046 A 
BRANCH  27  30
ATOM     30  C   UNL     1       3.913  14.337   0.039  0.00  0.00    -0.018 A 
ATOM     31  C   UNL     1       5.113  15.051   0.036  0.00  0.00    +0.010 A 
ATOM     32  C   UNL     1       5.095  16.427   0.036  0.00  0.00    +0.019 A 
ATOM     33  C   UNL     1       3.876  17.110   0.052  0.00  0.00    +0.052 A 
ATOM     34  C   UNL     1       2.675  16.394   0.060  0.00  0.00    +0.019 A 
ATOM     35  C   UNL     1       2.695  15.018   0.054  0.00  0.00    +0.010 A 
BRANCH  33  36
ATOM     36  C   UNL     1       3.856  18.542   0.059  0.00  0.00    +0.099 C 
ATOM     37  N   UNL     1       3.841  19.678   0.065  0.00  0.00    -0.191 NA
ENDBRANCH  33  36
ENDBRANCH  27  30
ENDBRANCH  23  24
ENDBRANCH  22  23
ENDBRANCH   2  22
TORSDOF 11
