REMARK  Name = ZINC12659978
REMARK  8 active torsions:
REMARK  status: ('A' for Active; 'I' for Inactive)
REMARK    1  A    between atoms: C_1  and  C_2
REMARK    2  A    between atoms: C_6  and  N_9
REMARK    3  A    between atoms: C_7  and  C_8
REMARK    4  A    between atoms: C_14  and  C_15
REMARK    5  A    between atoms: C_14  and  N_70
REMARK    6  A    between atoms: C_26  and  C_33
REMARK    7  A    between atoms: C_28  and  C_32
REMARK    8  A    between atoms: C_29  and  O_31
REMARK                            x       y       z     vdW  Elec       q    Type
REMARK                         _______ _______ _______ _____ _____    ______ ____
ROOT
ATOM      1  C   UNL     1      -1.478   2.915  -0.808  0.00  0.00    +0.090 C 
ATOM      2  C   UNL     1      -0.740   1.679  -1.317  0.00  0.00    +0.071 C 
ATOM      3  C   UNL     1      -0.158   1.057  -0.113  0.00  0.00    +0.187 C 
ATOM      4  C   UNL     1       1.313   1.452   0.008  0.00  0.00    +0.076 C 
ATOM      5  C   UNL     1       2.054   1.062  -1.326  0.00  0.00    -0.061 C 
ATOM      6  C   UNL     1       2.923   0.164  -1.342  0.00  0.00    -0.027 C 
ATOM      7  C   UNL     1       3.562  -0.312  -2.535  0.00  0.00    +0.027 C 
ATOM      8  C   UNL     1       2.579  -0.165  -3.701  0.00  0.00    +0.008 C 
ATOM      9  C   UNL     1       2.189   1.329  -3.739  0.00  0.00    -0.001 C 
ATOM     10  C   UNL     1       1.513   1.859  -2.537  0.00  0.00    +0.018 C 
ATOM     11  C   UNL     1       0.049   1.766  -2.607  0.00  0.00    +0.132 C 
ATOM     12  C   UNL     1       2.045   3.330  -2.326  0.00  0.00    +0.018 C 
ATOM     13  C   UNL     1       1.409   1.591  -4.994  0.00  0.00    +0.008 C 
ATOM     14  O   UNL     1      -0.853   1.580   0.997  0.00  0.00    -0.460 OA
ATOM     15  C   UNL     1      -1.755   2.522   0.705  0.00  0.00    +0.309 C 
ATOM     16  O   UNL     1      -2.540   2.993   1.388  0.00  0.00    -0.251 OA
ENDROOT
BRANCH  11  17
ATOM     17  O   UNL     1      -0.416   2.970  -3.366  0.00  0.00    -0.391 OA
ATOM     18  H   UNL     1      -1.375   3.019  -3.478  0.00  0.00    +0.210 HD
ENDBRANCH  11  17
BRANCH   1  19
ATOM     19  C   UNL     1      -0.655   4.161  -0.821  0.00  0.00    -0.064 C 
BRANCH  19  25
ATOM     20  N   UNL     1      -2.607   7.906  -0.723  0.00  0.00    -0.333 N 
ATOM     21  C   UNL     1      -1.566   7.645   0.282  0.00  0.00    +0.086 C 
ATOM     22  C   UNL     1      -0.671   6.501  -0.201  0.00  0.00    -0.060 C 
ATOM     23  C   UNL     1      -2.531   5.565  -1.433  0.00  0.00    -0.060 C 
ATOM     24  C   UNL     1      -3.427   6.708  -0.951  0.00  0.00    +0.086 C 
ATOM     25  N   UNL     1      -1.504   5.298  -0.405  0.00  0.00    +0.382 N 
ATOM     26  H   UNL     1      -1.970   5.060   0.479  0.00  0.00    -0.082 HD
BRANCH  20  32
ATOM     27  C   UNL     1      -4.205  12.472  -1.589  0.00  0.00    +0.044 C 
ATOM     28  C   UNL     1      -4.196  11.219  -0.751  0.00  0.00    -0.046 A 
ATOM     29  C   UNL     1      -4.976  11.145   0.389  0.00  0.00    +0.004 A 
ATOM     30  C   UNL     1      -4.970   9.998   1.160  0.00  0.00    +0.002 A 
ATOM     31  C   UNL     1      -4.189   8.920   0.792  0.00  0.00    +0.023 A 
ATOM     32  C   UNL     1      -3.401   8.993  -0.349  0.00  0.00    +0.033 A 
ATOM     33  C   UNL     1      -3.409  10.147  -1.123  0.00  0.00    -0.027 A 
ATOM     34  C   UNL     1      -2.561  10.229  -2.365  0.00  0.00    +0.046 C 
ENDBRANCH  20  32
ENDBRANCH  19  25
ENDBRANCH   1  19
TORSDOF 4
