REMARK  Name = ZINC65030830
REMARK  6 active torsions:
REMARK  status: ('A' for Active; 'I' for Inactive)
REMARK    1  A    between atoms: C_1  and  C_2
REMARK    2  A    between atoms: C_3  and  C_30
REMARK    3  A    between atoms: C_9  and  C_12
REMARK    4  A    between atoms: C_12  and  N_13
REMARK    5  A    between atoms: N_16  and  C_17
REMARK    6  A    between atoms: C_17  and  C_18
REMARK                            x       y       z     vdW  Elec       q    Type
REMARK                         _______ _______ _______ _____ _____    ______ ____
ROOT
ATOM      1  N   UNL     1      -1.306  -1.484   5.408  0.00  0.00    -0.295 N 
ATOM      2  C   UNL     1      -1.544  -1.249   6.713  0.00  0.00    +0.300 C 
ATOM      3  O   UNL     1      -0.616  -1.090   7.482  0.00  0.00    -0.253 OA
ATOM      4  N   UNL     1      -2.812  -1.189   7.167  0.00  0.00    -0.295 N 
ATOM      5  H   UNL     1      -2.046  -1.611   4.795  0.00  0.00    +0.151 HD
ATOM      6  H   UNL     1      -3.553  -1.316   6.553  0.00  0.00    +0.151 HD
ENDROOT
BRANCH   1   7
ATOM      7  C   UNL     1       0.072  -1.549   4.916  0.00  0.00    +0.141 C 
BRANCH   7  16
ATOM      8  C   UNL     1      -0.021   1.329  -0.036  0.00  0.00    +0.046 C 
ATOM      9  C   UNL     1       0.005  -0.177  -0.012  0.00  0.00    -0.022 A 
ATOM     10  C   UNL     1       0.015  -0.993  -1.078  0.00  0.00    +0.017 A 
ATOM     11  N   UNL     1       0.039  -2.298  -0.667  0.00  0.00    -0.358 N 
ATOM     12  H   UNL     1       0.050  -3.068  -1.257  0.00  0.00    +0.166 HD
ATOM     13  C   UNL     1       0.045  -2.356   0.709  0.00  0.00    +0.047 A 
ATOM     14  C   UNL     1       0.030  -1.030   1.179  0.00  0.00    +0.003 A 
ATOM     15  C   UNL     1       0.038  -0.778   2.552  0.00  0.00    +0.015 A 
ATOM     16  C   UNL     1       0.064  -1.822   3.433  0.00  0.00    -0.030 A 
ATOM     17  C   UNL     1       0.083  -3.131   2.974  0.00  0.00    +0.007 A 
ATOM     18  C   UNL     1       0.066  -3.403   1.623  0.00  0.00    +0.026 A 
ATOM     19  C   UNL     1       0.002  -0.539  -2.515  0.00  0.00    +0.063 C 
ENDBRANCH   7  16
ENDBRANCH   1   7
BRANCH   4  20
ATOM     20  C   UNL     1      -3.072  -0.933   8.585  0.00  0.00    +0.142 C 
BRANCH  20  21
ATOM     21  C   UNL     1      -4.559  -0.916   8.829  0.00  0.00    -0.014 A 
ATOM     22  C   UNL     1      -5.274   0.269   8.720  0.00  0.00    +0.010 A 
ATOM     23  C   UNL     1      -6.637   0.241   8.952  0.00  0.00    +0.042 A 
ATOM     24  C   UNL     1      -7.243  -0.966   9.284  0.00  0.00    +0.099 A 
ATOM     25  N   UNL     1      -6.526  -2.076   9.378  0.00  0.00    -0.349 N 
ATOM     26  C   UNL     1      -5.225  -2.080   9.157  0.00  0.00    +0.089 A 
ATOM     27  N   UNL     1      -8.612  -1.009   9.520  0.00  0.00    -0.317 N 
ATOM     28  C   UNL     1      -9.294  -2.291   9.744  0.00  0.00    +0.106 C 
ATOM     29  C   UNL     1     -10.076  -2.210  11.058  0.00  0.00    +0.019 C 
ATOM     30  C   UNL     1     -11.012  -1.000  11.017  0.00  0.00    +0.003 C 
ATOM     31  C   UNL     1     -10.186   0.280  10.867  0.00  0.00    +0.019 C 
ATOM     32  C   UNL     1      -9.404   0.228   9.557  0.00  0.00    +0.106 C 
ATOM     33  H   UNL     1      -6.969  -2.906   9.612  0.00  0.00    +0.167 HD
ENDBRANCH  20  21
ENDBRANCH   4  20
TORSDOF 4
