REMARK  Name = ZINC00752632
REMARK  5 active torsions:
REMARK  status: ('A' for Active; 'I' for Inactive)
REMARK    1  A    between atoms: C_1  and  C_2
REMARK    2  A    between atoms: C_5  and  N_25
REMARK    3  A    between atoms: C_14  and  C_16
REMARK    4  A    between atoms: C_19  and  N_22
REMARK    5  A    between atoms: N_25  and  C_26
REMARK                            x       y       z     vdW  Elec       q    Type
REMARK                         _______ _______ _______ _____ _____    ______ ____
ROOT
ATOM      1  C   UNL     1       3.354   4.364  -0.465  0.00  0.00    +0.028 C 
ATOM      2  C   UNL     1       2.143   4.352  -1.399  0.00  0.00    +0.081 C 
ATOM      3  C   UNL     1       2.526   3.712  -2.739  0.00  0.00    +0.049 C 
ATOM      4  C   UNL     1       3.078   2.311  -2.477  0.00  0.00    +0.104 C 
ATOM      5  C   UNL     1       2.128   1.523  -1.614  0.00  0.00    -0.006 A 
ATOM      6  C   UNL     1       2.211   0.140  -1.616  0.00  0.00    +0.007 A 
ATOM      7  C   UNL     1       1.357  -0.610  -0.831  0.00  0.00    +0.000 A 
ATOM      8  C   UNL     1       0.413   0.016  -0.037  0.00  0.00    +0.002 A 
ATOM      9  C   UNL     1       0.323   1.393  -0.030  0.00  0.00    +0.024 A 
ATOM     10  C   UNL     1       1.179   2.150  -0.822  0.00  0.00    +0.042 A 
ATOM     11  N   UNL     1       1.066   3.546  -0.807  0.00  0.00    -0.264 N 
ATOM     12  C   UNL     1      -0.013   4.140  -0.261  0.00  0.00    +0.251 C 
ATOM     13  O   UNL     1      -0.940   3.465   0.141  0.00  0.00    -0.270 OA
ENDROOT
BRANCH  12  14
ATOM     14  C   UNL     1      -0.070   5.613  -0.151  0.00  0.00    +0.037 A 
ATOM     15  C   UNL     1       1.088   6.340   0.128  0.00  0.00    +0.015 A 
ATOM     16  C   UNL     1       1.030   7.715   0.225  0.00  0.00    +0.033 A 
ATOM     17  C   UNL     1      -0.176   8.373   0.056  0.00  0.00    +0.126 A 
ATOM     18  C   UNL     1      -1.329   7.658  -0.216  0.00  0.00    +0.033 A 
ATOM     19  C   UNL     1      -1.283   6.283  -0.320  0.00  0.00    +0.015 A 
BRANCH  17  20
ATOM     20  N   UNL     1      -0.233   9.848   0.166  0.00  0.00    +0.056 N 
ATOM     21  O   UNL     1      -1.293  10.429   0.018  0.00  0.00    -0.126 OA
ATOM     22  O   UNL     1       0.780  10.480   0.405  0.00  0.00    -0.126 OA
ENDBRANCH  17  20
ENDBRANCH  12  14
BRANCH   4  23
ATOM     23  N   UNL     1       3.259   1.617  -3.755  0.00  0.00    -0.337 N 
ATOM     24  H   UNL     1       2.720   1.864  -4.522  0.00  0.00    +0.147 HD
BRANCH  23  25
ATOM     25  C   UNL     1       4.208   0.598  -3.868  0.00  0.00    +0.028 A 
ATOM     26  C   UNL     1       4.985   0.246  -2.772  0.00  0.00    +0.023 A 
ATOM     27  C   UNL     1       5.920  -0.764  -2.886  0.00  0.00    +0.002 A 
ATOM     28  C   UNL     1       6.090  -1.418  -4.092  0.00  0.00    +0.000 A 
ATOM     29  C   UNL     1       5.321  -1.067  -5.187  0.00  0.00    +0.002 A 
ATOM     30  C   UNL     1       4.381  -0.061  -5.079  0.00  0.00    +0.023 A 
ENDBRANCH  23  25
ENDBRANCH   4  23
TORSDOF 4
