REMARK  Name = ZINC64890256
REMARK  8 active torsions:
REMARK  status: ('A' for Active; 'I' for Inactive)
REMARK    1  A    between atoms: C_1  and  C_2
REMARK    2  A    between atoms: N_5  and  C_35
REMARK    3  A    between atoms: C_9  and  C_13
REMARK    4  A    between atoms: C_15  and  C_18
REMARK    5  A    between atoms: C_18  and  N_19
REMARK    6  A    between atoms: C_20  and  C_22
REMARK    7  A    between atoms: C_22  and  C_23
REMARK    8  A    between atoms: C_22  and  C_29
REMARK                            x       y       z     vdW  Elec       q    Type
REMARK                         _______ _______ _______ _____ _____    ______ ____
ROOT
ATOM      1  C   UNL     1       2.465  -4.715  -2.752  0.00  0.00    +0.202 A 
ATOM      2  N   UNL     1       2.769  -5.937  -2.280  0.00  0.00    -0.190 NA
ATOM      3  C   UNL     1       4.006  -5.963  -1.872  0.00  0.00    +0.245 A 
ATOM      4  O   UNL     1       4.544  -4.753  -2.069  0.00  0.00    -0.336 OA
ATOM      5  N   UNL     1       3.525  -3.951  -2.649  0.00  0.00    -0.056 NA
ENDROOT
BRANCH   1  14
ATOM      6  C   UNL     1      -1.777   0.425  -5.716  0.00  0.00    +0.071 C 
ATOM      7  C   UNL     1      -1.601  -0.986  -5.219  0.00  0.00    +0.103 A 
ATOM      8  C   UNL     1      -2.723  -1.930  -5.286  0.00  0.00    +0.273 A 
ATOM      9  O   UNL     1      -3.797  -1.579  -5.740  0.00  0.00    -0.266 OA
ATOM     10  N   UNL     1      -2.550  -3.192  -4.837  0.00  0.00    -0.308 N 
ATOM     11  C   UNL     1      -1.322  -3.559  -4.328  0.00  0.00    +0.070 A 
ATOM     12  C   UNL     1      -1.117  -4.855  -3.859  0.00  0.00    +0.029 A 
ATOM     13  C   UNL     1       0.097  -5.221  -3.355  0.00  0.00    +0.014 A 
ATOM     14  C   UNL     1       1.151  -4.301  -3.303  0.00  0.00    +0.025 A 
ATOM     15  C   UNL     1       0.972  -3.007  -3.763  0.00  0.00    +0.041 A 
ATOM     16  C   UNL     1      -0.272  -2.622  -4.282  0.00  0.00    +0.089 A 
ATOM     17  N   UNL     1      -0.453  -1.367  -4.737  0.00  0.00    -0.245 NA
ATOM     18  C   UNL     1      -3.652  -4.157  -4.890  0.00  0.00    +0.152 C 
ENDBRANCH   1  14
BRANCH   3  19
ATOM     19  C   UNL     1       4.713  -7.155  -1.279  0.00  0.00    +0.203 C 
BRANCH  19  20
ATOM     20  N   UNL     1       5.349  -7.928  -2.349  0.00  0.00    -0.306 N 
ATOM     21  C   UNL     1       6.043  -9.044  -2.053  0.00  0.00    +0.225 C 
ATOM     22  O   UNL     1       6.141  -9.410  -0.900  0.00  0.00    -0.275 OA
ATOM     23  H   UNL     1       5.271  -7.636  -3.271  0.00  0.00    +0.149 HD
BRANCH  21  24
ATOM     24  C   UNL     1       6.697  -9.839  -3.153  0.00  0.00    +0.135 C 
BRANCH  24  25
ATOM     25  C   UNL     1       7.696  -8.971  -3.874  0.00  0.00    -0.031 A 
ATOM     26  C   UNL     1       8.650  -8.273  -3.158  0.00  0.00    +0.005 A 
ATOM     27  C   UNL     1       9.566  -7.477  -3.819  0.00  0.00    +0.000 A 
ATOM     28  C   UNL     1       9.527  -7.378  -5.198  0.00  0.00    +0.000 A 
ATOM     29  C   UNL     1       8.574  -8.077  -5.914  0.00  0.00    +0.000 A 
ATOM     30  C   UNL     1       7.660  -8.877  -5.253  0.00  0.00    +0.005 A 
ENDBRANCH  24  25
BRANCH  24  31
ATOM     31  C   UNL     1       7.404 -11.031  -2.560  0.00  0.00    -0.031 A 
ATOM     32  C   UNL     1       8.310 -10.855  -1.531  0.00  0.00    +0.005 A 
ATOM     33  C   UNL     1       8.958 -11.948  -0.987  0.00  0.00    +0.000 A 
ATOM     34  C   UNL     1       8.700 -13.217  -1.472  0.00  0.00    +0.000 A 
ATOM     35  C   UNL     1       7.793 -13.393  -2.500  0.00  0.00    +0.000 A 
ATOM     36  C   UNL     1       7.142 -12.300  -3.041  0.00  0.00    +0.005 A 
ENDBRANCH  24  31
ENDBRANCH  21  24
ENDBRANCH  19  20
ENDBRANCH   3  19
TORSDOF 6
