REMARK  Name = ZINC63531500
REMARK  7 active torsions:
REMARK  status: ('A' for Active; 'I' for Inactive)
REMARK    1  A    between atoms: C_1  and  C_2
REMARK    2  A    between atoms: N_15  and  C_17
REMARK    3  A    between atoms: C_17  and  C_19
REMARK    4  A    between atoms: C_17  and  C_20
REMARK    5  A    between atoms: N_22  and  C_23
REMARK    6  A    between atoms: C_23  and  C_24
REMARK    7  A    between atoms: C_24  and  C_25
REMARK                            x       y       z     vdW  Elec       q    Type
REMARK                         _______ _______ _______ _____ _____    ______ ____
ROOT
ATOM      1  C   UNL     1       2.378  -2.300  -1.601  0.00  0.00    +0.179 C 
ATOM      2  C   UNL     1       3.563  -2.524  -0.660  0.00  0.00    +0.040 C 
ENDROOT
BRANCH   1  16
ATOM      3  C   UNL     1      -0.018   1.503   0.010  0.00  0.00    +0.063 C 
ATOM      4  C   UNL     1       0.002  -0.004   0.002  0.00  0.00    +0.030 C 
ATOM      5  C   UNL     1      -1.084  -0.743   0.003  0.00  0.00    +0.025 C 
ATOM      6  C   UNL     1      -1.082  -2.263   0.018  0.00  0.00    +0.146 C 
ATOM      7  C   UNL     1      -2.384  -2.843  -0.407  0.00  0.00    -0.017 A 
ATOM      8  C   UNL     1      -2.621  -4.182  -0.735  0.00  0.00    +0.006 A 
ATOM      9  C   UNL     1      -3.909  -4.544  -1.090  0.00  0.00    +0.000 A 
ATOM     10  C   UNL     1      -4.952  -3.641  -1.130  0.00  0.00    +0.001 A 
ATOM     11  C   UNL     1      -4.744  -2.303  -0.818  0.00  0.00    +0.015 A 
ATOM     12  C   UNL     1      -3.456  -1.940  -0.472  0.00  0.00    +0.017 A 
ATOM     13  S   UNL     1      -2.804  -0.347  -0.041  0.00  0.00    -0.091 S 
ATOM     14  C   UNL     1       0.070  -2.699  -0.858  0.00  0.00    +0.245 C 
ATOM     15  O   UNL     1      -0.004  -3.684  -1.561  0.00  0.00    -0.273 OA
ATOM     16  N   UNL     1       1.196  -1.931  -0.818  0.00  0.00    -0.210 N 
ATOM     17  N   UNL     1       1.202  -0.774  -0.014  0.00  0.00    -0.265 N 
ATOM     18  H   UNL     1       1.982  -0.517   0.503  0.00  0.00    +0.170 HD
ENDBRANCH   1  16
BRANCH   1  19
ATOM     19  C   UNL     1       2.706  -1.191  -2.567  0.00  0.00    +0.235 C 
ATOM     20  O   UNL     1       2.019  -0.192  -2.599  0.00  0.00    -0.274 OA
ATOM     21  N   UNL     1       3.761  -1.311  -3.397  0.00  0.00    -0.313 N 
ATOM     22  H   UNL     1       4.310  -2.110  -3.371  0.00  0.00    +0.149 HD
BRANCH  21  23
ATOM     23  C   UNL     1       4.080  -0.233  -4.336  0.00  0.00    +0.108 C 
BRANCH  23  24
ATOM     24  C   UNL     1       5.315  -0.618  -5.154  0.00  0.00    +0.052 C 
BRANCH  24  25
ATOM     25  C   UNL     1       5.643   0.491  -6.121  0.00  0.00    -0.040 C 
ATOM     26  C   UNL     1       6.530   1.494  -5.936  0.00  0.00    -0.001 A 
ATOM     27  C   UNL     1       7.421   1.842  -4.822  0.00  0.00    +0.010 A 
ATOM     28  C   UNL     1       8.213   2.933  -4.931  0.00  0.00    +0.001 A 
ATOM     29  C   UNL     1       8.204   3.739  -6.078  0.00  0.00    +0.002 A 
ATOM     30  C   UNL     1       7.413   3.484  -7.142  0.00  0.00    +0.026 A 
ATOM     31  C   UNL     1       6.540   2.361  -7.136  0.00  0.00    +0.043 A 
ATOM     32  N   UNL     1       5.691   1.911  -8.028  0.00  0.00    -0.380 N 
ATOM     33  C   UNL     1       5.051   0.703  -7.496  0.00  0.00    +0.144 C 
ATOM     34  H   UNL     1       5.518   2.308  -8.896  0.00  0.00    +0.160 HD
ENDBRANCH  24  25
ENDBRANCH  23  24
ENDBRANCH  21  23
ENDBRANCH   1  19
TORSDOF 5
