REMARK  Name = ZINC03358573
REMARK  9 active torsions:
REMARK  status: ('A' for Active; 'I' for Inactive)
REMARK    1  A    between atoms: C_1  and  C_2
REMARK    2  A    between atoms: C_10  and  C_11
REMARK    3  A    between atoms: C_11  and  O_13
REMARK    4  A    between atoms: O_13  and  C_14
REMARK    5  A    between atoms: C_14  and  C_16
REMARK    6  A    between atoms: C_14  and  C_17
REMARK    7  A    between atoms: N_19  and  C_20
REMARK    8  A    between atoms: C_23  and  S_26
REMARK    9  A    between atoms: S_26  and  N_29
REMARK                            x       y       z     vdW  Elec       q    Type
REMARK                         _______ _______ _______ _____ _____    ______ ____
ROOT
ATOM      1  C   UNL     1       2.425  -4.236  -0.260  0.00  0.00    +0.259 C 
ATOM      2  C   UNL     1       1.892  -4.858   1.032  0.00  0.00    +0.062 C 
ENDROOT
BRANCH   1   3
ATOM      3  C   UNL     1       2.410  -2.734  -0.138  0.00  0.00    +0.258 C 
ATOM      4  O   UNL     1       3.452  -2.114  -0.144  0.00  0.00    -0.271 OA
ATOM      5  N   UNL     1       1.237  -2.079  -0.021  0.00  0.00    -0.282 N 
ATOM      6  H   UNL     1       0.409  -2.578   0.061  0.00  0.00    +0.155 HD
BRANCH   5   7
ATOM      7  C   UNL     1       1.214  -0.680  -0.019  0.00  0.00    +0.034 A 
ATOM      8  C   UNL     1       2.137   0.032  -0.773  0.00  0.00    +0.025 A 
ATOM      9  C   UNL     1       2.112   1.413  -0.768  0.00  0.00    +0.030 A 
ATOM     10  C   UNL     1       1.169   2.086  -0.013  0.00  0.00    +0.105 A 
ATOM     11  C   UNL     1       0.249   1.380   0.739  0.00  0.00    +0.030 A 
ATOM     12  C   UNL     1       0.269  -0.001   0.738  0.00  0.00    +0.025 A 
BRANCH  10  13
ATOM     13  S   UNL     1       1.141   3.848  -0.009  0.00  0.00    +0.056 S 
ATOM     14  O   UNL     1       0.513   4.241   1.203  0.00  0.00    -0.153 OA
ATOM     15  O   UNL     1       2.449   4.276  -0.363  0.00  0.00    -0.153 OA
BRANCH  13  16
ATOM     16  N   UNL     1       0.139   4.324  -1.238  0.00  0.00    -0.204 NA
ATOM     17  H   UNL     1      -0.298   3.659  -1.793  0.00  0.00    +0.144 HD
ATOM     18  H   UNL     1      -0.011   5.268  -1.403  0.00  0.00    +0.144 HD
ENDBRANCH  13  16
ENDBRANCH  10  13
ENDBRANCH   5   7
ENDBRANCH   1   3
BRANCH   1  19
ATOM     19  O   UNL     1       3.785  -4.689  -0.490  0.00  0.00    -0.447 OA
BRANCH  19  20
ATOM     20  C   UNL     1       3.941  -5.818  -1.211  0.00  0.00    +0.376 C 
ATOM     21  O   UNL     1       2.966  -6.407  -1.636  0.00  0.00    -0.241 OA
BRANCH  20  31
ATOM     22  C   UNL     1       4.572  -8.390  -2.841  0.00  0.00    +0.048 C 
ATOM     23  C   UNL     1       5.565  -7.458  -2.196  0.00  0.00    +0.010 A 
ATOM     24  C   UNL     1       7.022  -7.580  -2.209  0.00  0.00    +0.025 A 
ATOM     25  C   UNL     1       7.917  -8.499  -2.763  0.00  0.00    +0.027 A 
ATOM     26  C   UNL     1       9.262  -8.324  -2.588  0.00  0.00    +0.019 A 
ATOM     27  C   UNL     1       9.742  -7.239  -1.867  0.00  0.00    +0.019 A 
ATOM     28  C   UNL     1       8.876  -6.321  -1.314  0.00  0.00    +0.048 A 
ATOM     29  C   UNL     1       7.504  -6.479  -1.478  0.00  0.00    +0.136 A 
ATOM     30  O   UNL     1       6.438  -5.763  -1.069  0.00  0.00    -0.448 OA
ATOM     31  C   UNL     1       5.288  -6.335  -1.484  0.00  0.00    +0.216 A 
ATOM     32 BR   UNL     1      10.475  -9.568  -3.335  0.00  0.00    -0.050 Br
ENDBRANCH  20  31
ENDBRANCH  19  20
ENDBRANCH   1  19
TORSDOF 7
