REMARK  Name = ZINC23044045
REMARK  11 active torsions:
REMARK  status: ('A' for Active; 'I' for Inactive)
REMARK    1  A    between atoms: C_1  and  C_2
REMARK    2  A    between atoms: C_2  and  C_3
REMARK    3  A    between atoms: C_3  and  N_4
REMARK    4  A    between atoms: C_8  and  S_30
REMARK    5  A    between atoms: C_12  and  S_13
REMARK    6  A    between atoms: S_13  and  C_14
REMARK    7  A    between atoms: C_14  and  C_16
REMARK    8  A    between atoms: C_14  and  C_17
REMARK    9  A    between atoms: N_19  and  C_20
REMARK   10  A    between atoms: C_23  and  N_27
REMARK   11  A    between atoms: S_30  and  N_33
REMARK                            x       y       z     vdW  Elec       q    Type
REMARK                         _______ _______ _______ _____ _____    ______ ____
ROOT
ATOM      1  N   UNL     1       0.972  -1.559   2.093  0.00  0.00    -0.319 N 
ATOM      2  C   UNL     1       1.559  -1.372   3.334  0.00  0.00    +0.070 A 
ATOM      3  C   UNL     1       2.030  -2.233   4.314  0.00  0.00    +0.030 A 
ATOM      4  C   UNL     1       2.569  -1.722   5.476  0.00  0.00    +0.030 A 
ATOM      5  C   UNL     1       2.644  -0.351   5.672  0.00  0.00    +0.107 A 
ATOM      6  C   UNL     1       2.182   0.519   4.710  0.00  0.00    +0.058 A 
ATOM      7  C   UNL     1       1.632   0.017   3.527  0.00  0.00    +0.092 A 
ATOM      8  N   UNL     1       1.105   0.603   2.421  0.00  0.00    -0.222 NA
ATOM      9  C   UNL     1       0.719  -0.320   1.575  0.00  0.00    +0.171 A 
ENDROOT
BRANCH   5  10
ATOM     10  S   UNL     1       3.337   0.283   7.163  0.00  0.00    +0.056 S 
ATOM     11  O   UNL     1       4.198  -0.727   7.672  0.00  0.00    -0.153 OA
ATOM     12  O   UNL     1       3.793   1.597   6.872  0.00  0.00    -0.153 OA
BRANCH  10  13
ATOM     13  N   UNL     1       2.098   0.441   8.250  0.00  0.00    -0.204 NA
ATOM     14  H   UNL     1       2.491   0.836   9.199  0.00  0.00    +0.144 HD
ATOM     15  H   UNL     1       1.636  -0.542   8.425  0.00  0.00    +0.144 HD
ENDBRANCH  10  13
ENDBRANCH   5  10
BRANCH   1  16
ATOM     16  C   UNL     1       0.679  -2.845   1.455  0.00  0.00    +0.124 C 
BRANCH  16  18
ATOM     17  C   UNL     1       1.576  -4.626  -0.049  0.00  0.00    +0.005 C 
ATOM     18  C   UNL     1       1.882  -3.284   0.618  0.00  0.00    +0.018 C 
ENDBRANCH  16  18
ENDBRANCH   1  16
BRANCH   9  19
ATOM     19  S   UNL     1      -0.022  -0.011   0.006  0.00  0.00    -0.075 S 
BRANCH  19  20
ATOM     20  C   UNL     1      -0.038   1.799   0.018  0.00  0.00    +0.137 C 
ATOM     21  C   UNL     1       1.399   2.322   0.017  0.00  0.00    +0.029 C 
BRANCH  20  22
ATOM     22  C   UNL     1      -0.757   2.303  -1.207  0.00  0.00    +0.230 C 
ATOM     23  O   UNL     1      -0.893   1.579  -2.171  0.00  0.00    -0.274 OA
ATOM     24  N   UNL     1      -1.249   3.557  -1.231  0.00  0.00    -0.283 N 
ATOM     25  H   UNL     1      -1.192   4.188  -0.332  0.00  0.00    +0.155 HD
BRANCH  24  26
ATOM     26  C   UNL     1      -1.833   4.057  -2.401  0.00  0.00    +0.052 A 
ATOM     27  C   UNL     1      -2.554   3.212  -3.235  0.00  0.00    +0.027 A 
ATOM     28  C   UNL     1      -3.130   3.709  -4.388  0.00  0.00    +0.034 A 
ATOM     29  C   UNL     1      -2.989   5.045  -4.714  0.00  0.00    +0.128 A 
ATOM     30  C   UNL     1      -2.272   5.890  -3.886  0.00  0.00    +0.054 A 
ATOM     31  C   UNL     1      -1.698   5.401  -2.728  0.00  0.00    +0.064 A 
ATOM     32 CL   UNL     1      -0.804   6.463  -1.685  0.00  0.00    -0.082 Cl
BRANCH  29  33
ATOM     33  N   UNL     1      -3.607   5.573  -5.951  0.00  0.00    +0.056 N 
ATOM     34  O   UNL     1      -4.239   4.831  -6.680  0.00  0.00    -0.126 OA
ATOM     35  O   UNL     1      -3.484   6.750  -6.239  0.00  0.00    -0.126 OA
ENDBRANCH  29  33
ENDBRANCH  24  26
ENDBRANCH  20  22
ENDBRANCH  19  20
ENDBRANCH   9  19
TORSDOF 9
