REMARK  Name = ZINC39912591
REMARK  15 active torsions:
REMARK  status: ('A' for Active; 'I' for Inactive)
REMARK    1  A    between atoms: C_1  and  C_2
REMARK    2  A    between atoms: C_2  and  C_3
REMARK    3  A    between atoms: C_3  and  C_4
REMARK    4  A    between atoms: C_4  and  C_5
REMARK    5  A    between atoms: C_5  and  O_6
REMARK    6  A    between atoms: O_6  and  C_7
REMARK    7  A    between atoms: C_11  and  C_13
REMARK    8  A    between atoms: C_16  and  C_33
REMARK    9  A    between atoms: N_23  and  C_24
REMARK   10  A    between atoms: C_24  and  C_25
REMARK   11  A    between atoms: C_28  and  O_31
REMARK   12  A    between atoms: O_31  and  C_32
REMARK   13  A    between atoms: C_35  and  C_41
REMARK   14  A    between atoms: C_37  and  C_40
REMARK   15  A    between atoms: C_38  and  O_39
REMARK                            x       y       z     vdW  Elec       q    Type
REMARK                         _______ _______ _______ _____ _____    ______ ____
ROOT
ATOM      1  C   UNL     1       2.767  -7.639  -5.118  0.00  0.00    +0.142 C 
ATOM      2  C   UNL     1       1.654  -8.388  -5.798  0.00  0.00    +0.035 A 
ATOM      3  C   UNL     1       0.285  -8.667  -5.858  0.00  0.00    +0.102 A 
ATOM      4  N   UNL     1       0.098  -9.517  -6.848  0.00  0.00    -0.173 NA
ATOM      5  N   UNL     1       1.214  -9.803  -7.419  0.00  0.00    -0.272 N 
ATOM      6  H   UNL     1       1.316 -10.407  -8.171  0.00  0.00    +0.189 HD
ATOM      7  C   UNL     1       2.234  -9.129  -6.810  0.00  0.00    +0.126 A 
ATOM      8  C   UNL     1       3.680  -8.879  -6.801  0.00  0.00    +0.266 C 
ATOM      9  O   UNL     1       4.476  -9.383  -7.571  0.00  0.00    -0.268 OA
ATOM     10  N   UNL     1       4.001  -8.015  -5.820  0.00  0.00    -0.281 N 
ENDROOT
BRANCH   3  11
ATOM     11  C   UNL     1      -0.765  -8.109  -4.970  0.00  0.00    +0.044 A 
ATOM     12  C   UNL     1      -0.412  -7.312  -3.884  0.00  0.00    +0.017 A 
ATOM     13  C   UNL     1      -1.392  -6.795  -3.061  0.00  0.00    -0.049 A 
ATOM     14  C   UNL     1      -2.725  -7.066  -3.311  0.00  0.00    +0.010 A 
ATOM     15  C   UNL     1      -3.087  -7.856  -4.385  0.00  0.00    -0.008 A 
ATOM     16  C   UNL     1      -2.114  -8.376  -5.223  0.00  0.00    +0.129 A 
ATOM     17  C   UNL     1      -4.542  -8.147  -4.650  0.00  0.00    +0.047 C 
ATOM     18  C   UNL     1      -1.008  -5.933  -1.886  0.00  0.00    +0.044 C 
BRANCH  16  19
ATOM     19  O   UNL     1      -2.468  -9.148  -6.284  0.00  0.00    -0.506 OA
ATOM     20  H   UNL     1      -2.523 -10.092  -6.082  0.00  0.00    +0.292 HD
ENDBRANCH  16  19
ENDBRANCH   3  11
BRANCH   1  25
ATOM     21  C   UNL     1       2.010  -4.050  -4.210  0.00  0.00    +0.121 A 
ATOM     22  C   UNL     1       2.117  -3.427  -5.445  0.00  0.00    +0.045 A 
ATOM     23  C   UNL     1       2.434  -4.168  -6.566  0.00  0.00    +0.004 A 
ATOM     24  C   UNL     1       2.644  -5.530  -6.460  0.00  0.00    +0.006 A 
ATOM     25  C   UNL     1       2.538  -6.154  -5.230  0.00  0.00    -0.019 A 
ATOM     26  C   UNL     1       2.227  -5.416  -4.104  0.00  0.00    +0.051 A 
BRANCH  21  27
ATOM     27  O   UNL     1       1.700  -3.323  -3.105  0.00  0.00    -0.492 OA
BRANCH  27  28
ATOM     28  C   UNL     1       1.490  -1.921  -3.288  0.00  0.00    +0.229 C 
BRANCH  28  29
ATOM     29  C   UNL     1       1.153  -1.276  -1.942  0.00  0.00    +0.041 C 
BRANCH  29  30
ATOM     30  C   UNL     1       0.928   0.225  -2.139  0.00  0.00    +0.003 C 
BRANCH  30  32
ATOM     31  C   UNL     1       0.367   2.371  -0.990  0.00  0.00    +0.004 C 
ATOM     32  C   UNL     1       0.591   0.870  -0.793  0.00  0.00    -0.003 C 
ENDBRANCH  30  32
ENDBRANCH  29  30
ENDBRANCH  28  29
ENDBRANCH  27  28
ENDBRANCH  21  27
ENDBRANCH   1  25
BRANCH  10  33
ATOM     33  C   UNL     1       5.348  -7.532  -5.507  0.00  0.00    +0.144 C 
BRANCH  33  34
ATOM     34  C   UNL     1       5.991  -8.451  -4.501  0.00  0.00    -0.030 A 
ATOM     35  C   UNL     1       5.835  -8.212  -3.149  0.00  0.00    +0.009 A 
ATOM     36  C   UNL     1       6.424  -9.053  -2.225  0.00  0.00    +0.046 A 
ATOM     37  C   UNL     1       7.171 -10.140  -2.655  0.00  0.00    +0.120 A 
ATOM     38  C   UNL     1       7.326 -10.378  -4.013  0.00  0.00    +0.046 A 
ATOM     39  C   UNL     1       6.731  -9.537  -4.933  0.00  0.00    +0.009 A 
BRANCH  37  40
ATOM     40  O   UNL     1       7.752 -10.969  -1.748  0.00  0.00    -0.495 OA
ATOM     41  C   UNL     1       8.507 -12.067  -2.263  0.00  0.00    +0.277 C 
ENDBRANCH  37  40
ENDBRANCH  33  34
ENDBRANCH  10  33
TORSDOF 11
