REMARK  Name = ZINC45068982
REMARK  9 active torsions:
REMARK  status: ('A' for Active; 'I' for Inactive)
REMARK    1  A    between atoms: C_1  and  C_2
REMARK    2  A    between atoms: C_5  and  S_8
REMARK    3  A    between atoms: S_8  and  N_11
REMARK    4  A    between atoms: N_11  and  C_12
REMARK    5  A    between atoms: C_13  and  C_22
REMARK    6  A    between atoms: C_14  and  C_21
REMARK    7  A    between atoms: C_15  and  C_20
REMARK    8  A    between atoms: C_16  and  C_19
REMARK    9  A    between atoms: C_17  and  C_18
REMARK                            x       y       z     vdW  Elec       q    Type
REMARK                         _______ _______ _______ _____ _____    ______ ____
ROOT
ATOM      1  N   UNL     1       1.742  -4.569  -0.238  0.00  0.00    -0.216 N 
ATOM      2  H   UNL     1       1.485  -5.381  -0.704  0.00  0.00    +0.174 HD
ENDROOT
BRANCH   1   3
ATOM      3  C   UNL     1       2.488  -4.647   0.940  0.00  0.00    +0.054 A 
ATOM      4  C   UNL     1       1.872  -4.440   2.168  0.00  0.00    -0.025 A 
ATOM      5  C   UNL     1       2.612  -4.518   3.332  0.00  0.00    -0.043 A 
ATOM      6  C   UNL     1       3.964  -4.801   3.276  0.00  0.00    -0.044 A 
ATOM      7  C   UNL     1       4.580  -5.008   2.055  0.00  0.00    -0.043 A 
ATOM      8  C   UNL     1       3.845  -4.937   0.888  0.00  0.00    -0.025 A 
ATOM      9  C   UNL     1       4.516  -5.169  -0.442  0.00  0.00    +0.046 C 
ATOM     10  C   UNL     1       6.054  -5.317   1.998  0.00  0.00    +0.044 C 
ATOM     11  C   UNL     1       4.768  -4.885   4.547  0.00  0.00    +0.044 C 
ATOM     12  C   UNL     1       1.944  -4.293   4.664  0.00  0.00    +0.044 C 
ATOM     13  C   UNL     1       0.398  -4.130   2.230  0.00  0.00    +0.046 C 
ENDBRANCH   1   3
BRANCH   1  14
ATOM     14  S   UNL     1       1.298  -3.092  -0.841  0.00  0.00    +0.072 S 
ATOM     15  O   UNL     1       0.768  -2.352   0.250  0.00  0.00    -0.150 OA
ATOM     16  O   UNL     1       0.552  -3.344  -2.025  0.00  0.00    -0.150 OA
BRANCH  14  21
ATOM     17  C   UNL     1       6.346  -0.267  -2.553  0.00  0.00    +0.044 C 
ATOM     18  C   UNL     1       5.085  -0.973  -2.126  0.00  0.00    -0.050 A 
ATOM     19  C   UNL     1       4.463  -1.857  -2.986  0.00  0.00    +0.005 A 
ATOM     20  C   UNL     1       3.306  -2.505  -2.594  0.00  0.00    +0.029 A 
ATOM     21  C   UNL     1       2.773  -2.268  -1.341  0.00  0.00    +0.109 A 
ATOM     22  C   UNL     1       3.396  -1.385  -0.480  0.00  0.00    +0.029 A 
ATOM     23  C   UNL     1       4.555  -0.740  -0.870  0.00  0.00    +0.005 A 
ENDBRANCH  14  21
ENDBRANCH   1  14
TORSDOF 3
