REMARK  Name = ZINC02502978
REMARK  4 active torsions:
REMARK  status: ('A' for Active; 'I' for Inactive)
REMARK    1  A    between atoms: C_4  and  C_7
REMARK    2  A    between atoms: C_7  and  N_8
REMARK    3  A    between atoms: C_9  and  C_21
REMARK    4  A    between atoms: C_24  and  N_27
REMARK                            x       y       z     vdW  Elec       q    Type
REMARK                         _______ _______ _______ _____ _____    ______ ____
ROOT
ATOM      1  N   UNL     1      -0.311  -2.893   0.243  0.00  0.00    -0.148 NA
ATOM      2  C   UNL     1      -1.355  -2.077  -0.410  0.00  0.00    +0.194 C 
ATOM      3  N   UNL     1      -1.208  -0.692   0.029  0.00  0.00    -0.322 N 
ATOM      4  C   UNL     1       0.002  -0.004   0.002  0.00  0.00    +0.055 A 
ATOM      5  C   UNL     1      -0.017   1.390   0.010  0.00  0.00    +0.025 A 
ATOM      6  C   UNL     1       1.165   2.100   0.002  0.00  0.00    +0.002 A 
ATOM      7  C   UNL     1       2.378   1.436  -0.007  0.00  0.00    +0.002 A 
ATOM      8  C   UNL     1       2.405   0.053  -0.015  0.00  0.00    +0.030 A 
ATOM      9  C   UNL     1       1.225  -0.661  -0.016  0.00  0.00    +0.126 A 
ATOM     10  S   UNL     1       1.265  -2.428  -0.048  0.00  0.00    +0.065 S 
ATOM     11  O   UNL     1       2.035  -2.846   1.070  0.00  0.00    -0.153 OA
ATOM     12  O   UNL     1       1.572  -2.813  -1.381  0.00  0.00    -0.153 OA
ATOM     13  H   UNL     1      -1.995  -0.227   0.355  0.00  0.00    +0.148 HD
ENDROOT
BRANCH   2  14
ATOM     14  C   UNL     1      -1.198  -2.154  -1.907  0.00  0.00    -0.011 A 
ATOM     15  C   UNL     1      -0.681  -3.295  -2.490  0.00  0.00    +0.009 A 
ATOM     16  C   UNL     1      -0.542  -3.366  -3.864  0.00  0.00    +0.033 A 
ATOM     17  C   UNL     1      -0.910  -2.293  -4.653  0.00  0.00    +0.126 A 
ATOM     18  C   UNL     1      -1.423  -1.150  -4.069  0.00  0.00    +0.033 A 
ATOM     19  C   UNL     1      -1.567  -1.080  -2.696  0.00  0.00    +0.009 A 
BRANCH  17  20
ATOM     20  N   UNL     1      -0.756  -2.367  -6.123  0.00  0.00    +0.056 N 
ATOM     21  O   UNL     1      -1.081  -1.421  -6.818  0.00  0.00    -0.126 OA
ATOM     22  O   UNL     1      -0.304  -3.375  -6.638  0.00  0.00    -0.126 OA
ENDBRANCH  17  20
ENDBRANCH   2  14
BRANCH   1  23
ATOM     23  C   UNL     1      -0.638  -4.040   1.093  0.00  0.00    +0.147 C 
BRANCH  23  27
ATOM     24  C   UNL     1      -1.178  -7.509  -1.340  0.00  0.00    +0.000 A 
ATOM     25  C   UNL     1       0.075  -7.202  -0.842  0.00  0.00    +0.000 A 
ATOM     26  C   UNL     1       0.249  -6.080  -0.054  0.00  0.00    +0.005 A 
ATOM     27  C   UNL     1      -0.828  -5.264   0.235  0.00  0.00    -0.032 A 
ATOM     28  C   UNL     1      -2.082  -5.573  -0.259  0.00  0.00    +0.005 A 
ATOM     29  C   UNL     1      -2.256  -6.694  -1.050  0.00  0.00    +0.000 A 
ENDBRANCH  23  27
ENDBRANCH   1  23
TORSDOF 4
