REMARK  Name = ZINC38709979
REMARK  11 active torsions:
REMARK  status: ('A' for Active; 'I' for Inactive)
REMARK    1  A    between atoms: C_1  and  C_2
REMARK    2  A    between atoms: C_4  and  C_17
REMARK    3  A    between atoms: C_19  and  C_28
REMARK    4  A    between atoms: C_20  and  O_27
REMARK    5  A    between atoms: C_21  and  C_23
REMARK    6  A    between atoms: C_23  and  C_24
REMARK    7  A    between atoms: C_23  and  C_25
REMARK    8  A    between atoms: C_23  and  C_26
REMARK    9  A    between atoms: C_28  and  C_29
REMARK   10  A    between atoms: C_28  and  C_30
REMARK   11  A    between atoms: C_28  and  C_31
REMARK                            x       y       z     vdW  Elec       q    Type
REMARK                         _______ _______ _______ _____ _____    ______ ____
ROOT
ATOM      1  C   UNL     1      -2.736   0.910   0.723  0.00  0.00    -0.035 A 
ATOM      2  C   UNL     1      -2.212   1.227   1.962  0.00  0.00    +0.012 A 
ATOM      3  C   UNL     1      -2.395   2.492   2.487  0.00  0.00    -0.000 A 
ATOM      4  C   UNL     1      -3.105   3.444   1.770  0.00  0.00    +0.124 A 
ATOM      5  C   UNL     1      -3.629   3.123   0.526  0.00  0.00    -0.000 A 
ATOM      6  C   UNL     1      -3.439   1.858   0.003  0.00  0.00    +0.012 A 
ENDROOT
BRANCH   1  10
ATOM      7  C   UNL     1      -0.018   1.503   0.010  0.00  0.00    +0.067 C 
ATOM      8  C   UNL     1       0.002  -0.004   0.002  0.00  0.00    +0.064 C 
ATOM      9  C   UNL     1      -1.065  -0.769   0.003  0.00  0.00    +0.009 C 
ATOM     10  C   UNL     1      -2.535  -0.470   0.152  0.00  0.00    +0.089 C 
ATOM     11  C   UNL     1      -3.046  -1.528   1.120  0.00  0.00    +0.068 C 
ATOM     12  C   UNL     1      -2.308  -2.595   1.512  0.00  0.00    +0.055 C 
ATOM     13  C   UNL     1      -3.177  -3.384   2.457  0.00  0.00    +0.283 C 
ATOM     14  O   UNL     1      -4.411  -2.656   2.531  0.00  0.00    -0.455 OA
ATOM     15  C   UNL     1      -4.303  -1.572   1.737  0.00  0.00    +0.338 C 
ATOM     16  O   UNL     1      -5.181  -0.743   1.577  0.00  0.00    -0.245 OA
ATOM     17  N   UNL     1      -1.026  -2.884   1.121  0.00  0.00    -0.318 N 
ATOM     18  C   UNL     1      -0.529  -2.197  -0.084  0.00  0.00    +0.241 C 
ATOM     19  N   UNL     1       0.921  -1.985  -0.029  0.00  0.00    -0.160 NA
ATOM     20  N   UNL     1       1.126  -0.764  -0.013  0.00  0.00    -0.157 NA
ATOM     21  H   UNL     1      -0.473  -3.511   1.613  0.00  0.00    +0.148 HD
ENDBRANCH   1  10
BRANCH   5  22
ATOM     22  C   UNL     1      -4.401   4.154  -0.256  0.00  0.00    -0.009 C 
ATOM     23  C   UNL     1      -4.865   3.547  -1.581  0.00  0.00    +0.015 C 
ATOM     24  C   UNL     1      -5.619   4.602   0.554  0.00  0.00    +0.015 C 
ATOM     25  C   UNL     1      -3.502   5.361  -0.534  0.00  0.00    +0.015 C 
ENDBRANCH   5  22
BRANCH   3  26
ATOM     26  C   UNL     1      -1.824   2.837   3.839  0.00  0.00    -0.009 C 
ATOM     27  C   UNL     1      -1.095   1.619   4.410  0.00  0.00    +0.015 C 
ATOM     28  C   UNL     1      -0.841   4.000   3.695  0.00  0.00    +0.015 C 
ATOM     29  C   UNL     1      -2.958   3.241   4.783  0.00  0.00    +0.015 C 
ENDBRANCH   3  26
BRANCH   4  30
ATOM     30  O   UNL     1      -3.286   4.688   2.285  0.00  0.00    -0.506 OA
ATOM     31  H   UNL     1      -2.590   5.317   2.049  0.00  0.00    +0.292 HD
ENDBRANCH   4  30
TORSDOF 4
