REMARK  Name = ZINC12561407
REMARK  12 active torsions:
REMARK  status: ('A' for Active; 'I' for Inactive)
REMARK    1  A    between atoms: C_1  and  O_2
REMARK    2  A    between atoms: O_2  and  C_3
REMARK    3  A    between atoms: C_6  and  C_11
REMARK    4  A    between atoms: C_8  and  O_9
REMARK    5  A    between atoms: O_9  and  C_10
REMARK    6  A    between atoms: N_13  and  C_14
REMARK    7  A    between atoms: C_14  and  C_25
REMARK    8  A    between atoms: C_15  and  C_16
REMARK    9  A    between atoms: C_20  and  N_22
REMARK   10  A    between atoms: N_27  and  C_28
REMARK   11  A    between atoms: C_28  and  C_29
REMARK   12  A    between atoms: C_29  and  C_30
REMARK                            x       y       z     vdW  Elec       q    Type
REMARK                         _______ _______ _______ _____ _____    ______ ____
ROOT
ATOM      1  C   UNL     1      -1.248   5.980  -0.060  0.00  0.00    +0.097 C 
ATOM      2  C   UNL     1      -0.078   5.331   0.134  0.00  0.00    +0.036 C 
ENDROOT
BRANCH   2   3
ATOM      3  C   UNL     1      -0.080   3.916   0.535  0.00  0.00    -0.021 A 
ATOM      4  C   UNL     1      -1.220   3.351   1.117  0.00  0.00    +0.008 A 
ATOM      5  C   UNL     1      -1.216   2.022   1.484  0.00  0.00    +0.003 A 
ATOM      6  C   UNL     1      -0.083   1.250   1.289  0.00  0.00    +0.033 A 
ATOM      7  C   UNL     1       1.048   1.801   0.714  0.00  0.00    +0.127 A 
ATOM      8  C   UNL     1       1.058   3.127   0.336  0.00  0.00    +0.040 A 
BRANCH   7   9
ATOM      9  N   UNL     1       2.251   0.965   0.504  0.00  0.00    +0.056 N 
ATOM     10  O   UNL     1       2.244  -0.207   0.838  0.00  0.00    -0.126 OA
ATOM     11  O   UNL     1       3.248   1.448  -0.001  0.00  0.00    -0.126 OA
ENDBRANCH   7   9
ENDBRANCH   2   3
BRANCH   1  14
ATOM     12  C   UNL     1      -3.443   5.630   0.786  0.00  0.00    +0.248 C 
ATOM     13  O   UNL     1      -3.259   6.515   1.599  0.00  0.00    -0.270 OA
ATOM     14  N   UNL     1      -2.452   5.269  -0.053  0.00  0.00    -0.277 N 
ATOM     15  H   UNL     1      -2.574   4.516  -0.653  0.00  0.00    +0.155 HD
BRANCH  12  19
ATOM     16  C   UNL     1      -7.208   3.670   0.586  0.00  0.00    +0.162 A 
ATOM     17  C   UNL     1      -6.153   3.229  -0.201  0.00  0.00    +0.050 A 
ATOM     18  C   UNL     1      -4.933   3.866  -0.143  0.00  0.00    +0.017 A 
ATOM     19  C   UNL     1      -4.751   4.950   0.718  0.00  0.00    +0.041 A 
ATOM     20  C   UNL     1      -5.813   5.395   1.511  0.00  0.00    +0.062 A 
ATOM     21  C   UNL     1      -7.035   4.755   1.444  0.00  0.00    +0.162 A 
BRANCH  16  23
ATOM     22  C   UNL     1      -8.518   1.937  -0.378  0.00  0.00    +0.277 C 
ATOM     23  O   UNL     1      -8.411   3.042   0.522  0.00  0.00    -0.491 OA
ENDBRANCH  16  23
BRANCH  21  24
ATOM     24  O   UNL     1      -8.070   5.185   2.214  0.00  0.00    -0.491 OA
ATOM     25  C   UNL     1      -7.822   6.302   3.070  0.00  0.00    +0.277 C 
ENDBRANCH  21  24
ENDBRANCH  12  19
ENDBRANCH   1  14
BRANCH   1  26
ATOM     26  C   UNL     1      -1.255   7.434  -0.280  0.00  0.00    +0.258 C 
ATOM     27  O   UNL     1      -2.308   8.018  -0.455  0.00  0.00    -0.269 OA
ATOM     28  N   UNL     1      -0.095   8.120  -0.286  0.00  0.00    -0.310 N 
ATOM     29  H   UNL     1       0.745   7.654  -0.147  0.00  0.00    +0.149 HD
BRANCH  28  30
ATOM     30  C   UNL     1      -0.101   9.569  -0.505  0.00  0.00    +0.109 C 
BRANCH  30  31
ATOM     31  C   UNL     1       1.334  10.097  -0.465  0.00  0.00    +0.056 C 
BRANCH  31  32
ATOM     32  C   UNL     1       1.327  11.587  -0.690  0.00  0.00    -0.021 A 
ATOM     33  C   UNL     1       1.511  12.219  -1.859  0.00  0.00    +0.087 A 
ATOM     34  N   UNL     1       1.435  13.573  -1.675  0.00  0.00    -0.360 N 
ATOM     35  H   UNL     1       1.534  14.237  -2.375  0.00  0.00    +0.165 HD
ATOM     36  C   UNL     1       1.203  13.852  -0.347  0.00  0.00    +0.047 A 
ATOM     37  C   UNL     1       1.125  12.621   0.329  0.00  0.00    +0.003 A 
ATOM     38  C   UNL     1       0.893  12.595   1.705  0.00  0.00    +0.010 A 
ATOM     39  C   UNL     1       0.743  13.768   2.390  0.00  0.00    +0.001 A 
ATOM     40  C   UNL     1       0.819  14.985   1.728  0.00  0.00    +0.002 A 
ATOM     41  C   UNL     1       1.047  15.034   0.370  0.00  0.00    +0.026 A 
ENDBRANCH  31  32
ENDBRANCH  30  31
ENDBRANCH  28  30
ENDBRANCH   1  26
TORSDOF 10
