REMARK  Name = ZINC19220738
REMARK  6 active torsions:
REMARK  status: ('A' for Active; 'I' for Inactive)
REMARK    1  A    between atoms: C_6  and  C_7
REMARK    2  A    between atoms: C_7  and  N_8
REMARK    3  A    between atoms: C_9  and  C_11
REMARK    4  A    between atoms: C_11  and  S_12
REMARK    5  A    between atoms: S_12  and  C_13
REMARK    6  A    between atoms: C_13  and  C_14
REMARK                            x       y       z     vdW  Elec       q    Type
REMARK                         _______ _______ _______ _____ _____    ______ ____
ROOT
ATOM      1  C   UNL     1      -3.314  -1.940  -3.025  0.00  0.00    +0.165 C 
ENDROOT
BRANCH   1   3
ATOM      2  N   UNL     1      -1.727  -1.016  -1.368  0.00  0.00    -0.311 N 
ATOM      3  C   UNL     1      -2.868  -1.691  -1.607  0.00  0.00    +0.223 C 
ATOM      4  O   UNL     1      -3.537  -2.098  -0.681  0.00  0.00    -0.275 OA
ATOM      5  H   UNL     1      -1.192  -0.690  -2.109  0.00  0.00    +0.149 HD
BRANCH   2   6
ATOM      6  C   UNL     1      -1.294  -0.774   0.010  0.00  0.00    +0.139 C 
BRANCH   6  12
ATOM      7  C   UNL     1      -0.017   1.378   0.010  0.00  0.00    +0.009 A 
ATOM      8  C   UNL     1       1.170   2.088   0.002  0.00  0.00    +0.050 A 
ATOM      9  C   UNL     1       2.380   1.416  -0.013  0.00  0.00    +0.166 A 
ATOM     10  C   UNL     1       2.399   0.023  -0.021  0.00  0.00    +0.167 A 
ATOM     11  C   UNL     1       1.207  -0.682  -0.014  0.00  0.00    +0.054 A 
ATOM     12  C   UNL     1       0.002  -0.004   0.002  0.00  0.00    -0.027 A 
ATOM     13  O   UNL     1       3.698  -0.395  -0.036  0.00  0.00    -0.453 OA
ATOM     14  C   UNL     1       4.466   0.750  -0.450  0.00  0.00    +0.466 C 
ATOM     15  O   UNL     1       3.668   1.870  -0.024  0.00  0.00    -0.453 OA
ENDBRANCH   6  12
ENDBRANCH   2   6
ENDBRANCH   1   3
BRANCH   1  16
ATOM     16  S   UNL     1      -4.873  -2.866  -3.015  0.00  0.00    -0.144 S 
BRANCH  16  17
ATOM     17  C   UNL     1      -5.267  -3.081  -4.773  0.00  0.00    +0.145 C 
BRANCH  17  18
ATOM     18  C   UNL     1      -6.559  -3.846  -4.909  0.00  0.00    +0.146 A 
ATOM     19  N   UNL     1      -6.539  -5.166  -4.973  0.00  0.00    -0.199 NA
ATOM     20  C   UNL     1      -7.677  -5.845  -5.092  0.00  0.00    +0.217 A 
ATOM     21  N   UNL     1      -8.834  -5.195  -5.146  0.00  0.00    -0.181 NA
ATOM     22  C   UNL     1      -8.850  -3.868  -5.081  0.00  0.00    +0.217 A 
ATOM     23  N   UNL     1      -7.708  -3.196  -4.957  0.00  0.00    -0.199 NA
ATOM     24  N   UNL     1     -10.050  -3.188  -5.137  0.00  0.00    -0.327 N 
ATOM     25  N   UNL     1      -7.655  -7.223  -5.160  0.00  0.00    -0.327 N 
ATOM     26  H   UNL     1     -10.882  -3.679  -5.224  0.00  0.00    +0.145 HD
ATOM     27  H   UNL     1     -10.060  -2.219  -5.089  0.00  0.00    +0.145 HD
ATOM     28  H   UNL     1      -6.810  -7.698  -5.121  0.00  0.00    +0.145 HD
ATOM     29  H   UNL     1      -8.485  -7.718  -5.247  0.00  0.00    +0.145 HD
ENDBRANCH  17  18
ENDBRANCH  16  17
ENDBRANCH   1  16
TORSDOF 6
