REMARK  Name = ZINC08801574
REMARK  7 active torsions:
REMARK  status: ('A' for Active; 'I' for Inactive)
REMARK    1  A    between atoms: C_1  and  N_2
REMARK    2  A    between atoms: C_9  and  C_11
REMARK    3  A    between atoms: C_11  and  C_13
REMARK    4  A    between atoms: C_11  and  N_57
REMARK    5  A    between atoms: C_13  and  N_14
REMARK    6  A    between atoms: N_14  and  S_15
REMARK    7  A    between atoms: S_15  and  C_18
REMARK                            x       y       z     vdW  Elec       q    Type
REMARK                         _______ _______ _______ _____ _____    ______ ____
ROOT
ATOM      1  C   UNL     1      -3.317   6.153  -0.922  0.00  0.00    -0.022 C 
ENDROOT
BRANCH   1  10
ATOM      2  C   UNL     1       0.287   1.887   2.337  0.00  0.00    +0.129 C 
ATOM      3  N   UNL     1      -0.321   1.740   1.008  0.00  0.00    -0.332 N 
ATOM      4  C   UNL     1       0.717   1.623  -0.040  0.00  0.00    +0.109 C 
ATOM      5  C   UNL     1       0.038   2.271  -1.269  0.00  0.00    +0.056 C 
ATOM      6  C   UNL     1      -0.968   3.213  -0.639  0.00  0.00    -0.025 A 
ATOM      7  C   UNL     1      -1.125   2.845   0.692  0.00  0.00    +0.033 A 
ATOM      8  C   UNL     1      -2.001   3.571   1.497  0.00  0.00    +0.023 A 
ATOM      9  C   UNL     1      -2.704   4.636   0.973  0.00  0.00    +0.004 A 
ATOM     10  C   UNL     1      -2.545   4.991  -0.354  0.00  0.00    -0.059 A 
ATOM     11  C   UNL     1      -1.675   4.277  -1.159  0.00  0.00    +0.007 A 
ENDBRANCH   1  10
BRANCH   1  17
ATOM     12  C   UNL     1      -1.838   7.328   0.591  0.00  0.00    -0.078 C 
ATOM     13  C   UNL     1      -1.657   8.627   1.380  0.00  0.00    -0.019 C 
ATOM     14  C   UNL     1      -2.755   8.731   2.442  0.00  0.00    -0.004 C 
ATOM     15  C   UNL     1      -4.123   8.672   1.758  0.00  0.00    -0.019 C 
ATOM     16  C   UNL     1      -4.233   7.372   0.958  0.00  0.00    -0.078 C 
ATOM     17  N   UNL     1      -3.164   7.345  -0.063  0.00  0.00    +0.385 N 
ATOM     18  H   UNL     1      -3.238   8.187  -0.644  0.00  0.00    -0.081 HD
ENDBRANCH   1  17
BRANCH   1  19
ATOM     19  C   UNL     1      -4.799   5.782  -1.020  0.00  0.00    +0.095 C 
BRANCH  19  20
ATOM     20  N   UNL     1      -5.559   6.934  -1.510  0.00  0.00    -0.191 NA
ATOM     21  H   UNL     1      -5.150   7.814  -1.528  0.00  0.00    +0.148 HD
BRANCH  20  22
ATOM     22  S   UNL     1      -7.118   6.736  -2.034  0.00  0.00    +0.060 S 
ATOM     23  O   UNL     1      -7.585   8.022  -2.415  0.00  0.00    -0.153 OA
ATOM     24  O   UNL     1      -7.107   5.633  -2.930  0.00  0.00    -0.153 OA
BRANCH  22  25
ATOM     25  C   UNL     1      -8.077   6.243  -0.640  0.00  0.00    +0.125 A 
ATOM     26  C   UNL     1      -9.071   7.074  -0.157  0.00  0.00    +0.050 A 
ATOM     27  C   UNL     1      -9.827   6.684   0.934  0.00  0.00    +0.043 A 
ATOM     28  C   UNL     1      -9.582   5.469   1.548  0.00  0.00    +0.021 A 
ATOM     29  C   UNL     1      -8.585   4.641   1.068  0.00  0.00    +0.023 A 
ATOM     30  C   UNL     1      -7.832   5.028  -0.026  0.00  0.00    +0.067 A 
ATOM     31 CL   UNL     1      -6.579   3.988  -0.629  0.00  0.00    -0.082 Cl
ATOM     32 CL   UNL     1     -11.080   7.724   1.537  0.00  0.00    -0.083 Cl
ENDBRANCH  22  25
ENDBRANCH  20  22
ENDBRANCH  19  20
ENDBRANCH   1  19
TORSDOF 6
