REMARK  Name = ZINC08020999
REMARK  4 active torsions:
REMARK  status: ('A' for Active; 'I' for Inactive)
REMARK    1  A    between atoms: C_1  and  C_2
REMARK    2  A    between atoms: C_3  and  C_22
REMARK    3  A    between atoms: N_12  and  C_15
REMARK    4  A    between atoms: C_22  and  C_23
REMARK                            x       y       z     vdW  Elec       q    Type
REMARK                         _______ _______ _______ _____ _____    ______ ____
ROOT
ATOM      1  C   UNL     1      -0.202   1.737   0.402  0.00  0.00    +0.064 C 
ATOM      2  C   UNL     1      -0.008   0.257   0.191  0.00  0.00    +0.022 A 
ATOM      3  C   UNL     1      -1.092  -0.520   0.008  0.00  0.00    +0.023 A 
ATOM      4  C   UNL     1      -0.927  -1.917  -0.192  0.00  0.00    +0.200 A 
ATOM      5  O   UNL     1      -1.890  -2.648  -0.362  0.00  0.00    -0.287 OA
ATOM      6  C   UNL     1       0.434  -2.448  -0.188  0.00  0.00    +0.130 A 
ATOM      7  C   UNL     1       1.502  -1.568   0.009  0.00  0.00    +0.140 A 
ATOM      8  N   UNL     1       1.255  -0.245   0.188  0.00  0.00    -0.343 N 
ATOM      9  H   UNL     1       2.002   0.359   0.320  0.00  0.00    +0.167 HD
ATOM     10  N   UNL     1       2.652  -2.302  -0.031  0.00  0.00    -0.274 N 
ATOM     11  H   UNL     1       3.547  -1.944   0.078  0.00  0.00    +0.189 HD
ATOM     12  N   UNL     1       2.346  -3.649  -0.253  0.00  0.00    -0.217 N 
ATOM     13  C   UNL     1       1.007  -3.784  -0.355  0.00  0.00    +0.285 A 
ATOM     14  O   UNL     1       0.394  -4.817  -0.548  0.00  0.00    -0.265 OA
ENDROOT
BRANCH  12  15
ATOM     15  C   UNL     1       3.278  -4.688  -0.353  0.00  0.00    +0.067 A 
ATOM     16  C   UNL     1       2.847  -5.989  -0.582  0.00  0.00    +0.030 A 
ATOM     17  C   UNL     1       3.768  -7.013  -0.681  0.00  0.00    +0.040 A 
ATOM     18  C   UNL     1       5.120  -6.745  -0.551  0.00  0.00    +0.124 A 
ATOM     19  C   UNL     1       5.552  -5.449  -0.323  0.00  0.00    +0.040 A 
ATOM     20  C   UNL     1       4.635  -4.420  -0.229  0.00  0.00    +0.030 A 
ATOM     21  F   UNL     1       6.019  -7.748  -0.647  0.00  0.00    -0.205 F 
ENDBRANCH  12  15
BRANCH   3  22
ATOM     22  C   UNL     1      -2.471   0.087   0.015  0.00  0.00    +0.077 C 
BRANCH  22  23
ATOM     23  C   UNL     1      -2.913   0.348  -1.402  0.00  0.00    -0.025 A 
ATOM     24  C   UNL     1      -2.509   1.500  -2.051  0.00  0.00    +0.005 A 
ATOM     25  C   UNL     1      -2.914   1.739  -3.351  0.00  0.00    +0.000 A 
ATOM     26  C   UNL     1      -3.723   0.826  -4.003  0.00  0.00    +0.001 A 
ATOM     27  C   UNL     1      -4.127  -0.326  -3.355  0.00  0.00    +0.020 A 
ATOM     28  C   UNL     1      -3.717  -0.568  -2.055  0.00  0.00    +0.044 A 
ATOM     29 CL   UNL     1      -4.218  -2.018  -1.243  0.00  0.00    -0.083 Cl
ENDBRANCH  22  23
ENDBRANCH   3  22
TORSDOF 3
