REMARK  Name = ZINC12591252
REMARK  6 active torsions:
REMARK  status: ('A' for Active; 'I' for Inactive)
REMARK    1  A    between atoms: C_6  and  N_7
REMARK    2  A    between atoms: C_8  and  C_10
REMARK    3  A    between atoms: C_10  and  N_11
REMARK    4  A    between atoms: C_12  and  C_14
REMARK    5  A    between atoms: C_14  and  N_15
REMARK    6  A    between atoms: C_16  and  C_18
REMARK                            x       y       z     vdW  Elec       q    Type
REMARK                         _______ _______ _______ _____ _____    ______ ____
ROOT
ATOM      1  C   UNL     1      -4.888   0.918   0.249  0.00  0.00    +0.200 C 
ENDROOT
BRANCH   1   3
ATOM      2  N   UNL     1      -2.428   1.039   0.021  0.00  0.00    -0.284 N 
ATOM      3  C   UNL     1      -3.601   1.693   0.132  0.00  0.00    +0.234 C 
ATOM      4  O   UNL     1      -3.621   2.906   0.137  0.00  0.00    -0.274 OA
ATOM      5  H   UNL     1      -2.418   0.072  -0.061  0.00  0.00    +0.155 HD
BRANCH   2  11
ATOM      6  C   UNL     1      -0.149   1.307  -0.733  0.00  0.00    +0.027 A 
ATOM      7  C   UNL     1       1.042   2.009  -0.729  0.00  0.00    +0.051 A 
ATOM      8  C   UNL     1       1.163   3.162   0.025  0.00  0.00    +0.167 A 
ATOM      9  C   UNL     1       0.083   3.617   0.782  0.00  0.00    +0.169 A 
ATOM     10  C   UNL     1      -1.107   2.914   0.778  0.00  0.00    +0.072 A 
ATOM     11  C   UNL     1      -1.224   1.754   0.023  0.00  0.00    +0.037 A 
ATOM     12  O   UNL     1       0.464   4.765   1.427  0.00  0.00    -0.447 OA
ATOM     13  C   UNL     1       1.578   5.237   0.656  0.00  0.00    +0.254 C 
ATOM     14  O   UNL     1       2.209   4.031   0.203  0.00  0.00    -0.448 OA
ATOM     15  C   UNL     1       2.532   6.077   1.513  0.00  0.00    +0.093 C 
ATOM     16  C   UNL     1       3.057   7.161   0.535  0.00  0.00    +0.008 C 
ATOM     17  C   UNL     1       1.812   7.475  -0.333  0.00  0.00    +0.008 C 
ATOM     18  C   UNL     1       1.120   6.105  -0.515  0.00  0.00    +0.093 C 
ENDBRANCH   2  11
ENDBRANCH   1   3
BRANCH   1  19
ATOM     19  N   UNL     1      -6.013   1.851   0.356  0.00  0.00    -0.305 N 
ATOM     20  C   UNL     1      -7.270   1.381   0.471  0.00  0.00    +0.231 C 
ATOM     21  O   UNL     1      -7.471   0.185   0.486  0.00  0.00    -0.274 OA
ATOM     22  H   UNL     1      -5.852   2.808   0.344  0.00  0.00    +0.149 HD
BRANCH  20  23
ATOM     23  C   UNL     1      -8.427   2.341   0.582  0.00  0.00    +0.200 C 
BRANCH  23  24
ATOM     24  N   UNL     1      -9.678   1.588   0.695  0.00  0.00    -0.303 N 
ATOM     25  C   UNL     1     -10.851   2.242   0.806  0.00  0.00    +0.246 C 
ATOM     26  O   UNL     1     -10.871   3.458   0.812  0.00  0.00    -0.270 OA
ATOM     27  H   UNL     1      -9.662   0.618   0.691  0.00  0.00    +0.150 HD
BRANCH  25  28
ATOM     28  C   UNL     1     -12.112   1.482   0.921  0.00  0.00    +0.055 A 
ATOM     29  C   UNL     1     -12.093   0.086   0.915  0.00  0.00    +0.016 A 
ATOM     30  C   UNL     1     -13.274  -0.618   1.023  0.00  0.00    +0.021 A 
ATOM     31  C   UNL     1     -14.478   0.057   1.137  0.00  0.00    +0.042 A 
ATOM     32  C   UNL     1     -14.506   1.441   1.144  0.00  0.00    +0.040 A 
ATOM     33  C   UNL     1     -13.330   2.158   1.042  0.00  0.00    +0.054 A 
ATOM     34 CL   UNL     1     -13.364   3.893   1.058  0.00  0.00    -0.083 Cl
ATOM     35 CL   UNL     1     -15.960  -0.837   1.272  0.00  0.00    -0.083 Cl
ENDBRANCH  25  28
ENDBRANCH  23  24
ENDBRANCH  20  23
ENDBRANCH   1  19
TORSDOF 6
