REMARK  Name = ZINC16981294
REMARK  5 active torsions:
REMARK  status: ('A' for Active; 'I' for Inactive)
REMARK    1  A    between atoms: C_4  and  C_7
REMARK    2  A    between atoms: C_8  and  C_16
REMARK    3  A    between atoms: C_16  and  C_17
REMARK    4  A    between atoms: C_17  and  C_18
REMARK    5  A    between atoms: N_20  and  C_21
REMARK                            x       y       z     vdW  Elec       q    Type
REMARK                         _______ _______ _______ _____ _____    ______ ____
ROOT
ATOM      1  C   UNL     1       1.316  -2.167   0.024  0.00  0.00    +0.057 A 
ATOM      2  C   UNL     1       2.012  -2.842  -0.936  0.00  0.00    +0.043 A 
ATOM      3  C   UNL     1       1.944  -4.255  -0.960  0.00  0.00    +0.278 A 
ATOM      4  O   UNL     1       2.558  -4.884  -1.809  0.00  0.00    -0.265 OA
ATOM      5  N   UNL     1       1.204  -4.900  -0.047  0.00  0.00    -0.177 NA
ATOM      6  C   UNL     1       0.537  -4.238   0.875  0.00  0.00    +0.194 A 
ATOM      7  N   UNL     1       0.578  -2.880   0.938  0.00  0.00    -0.327 N 
ATOM      8  H   UNL     1       0.018  -2.353   1.725  0.00  0.00    +0.169 HD
ATOM      9  N   UNL     1      -0.209  -4.930   1.792  0.00  0.00    -0.329 N 
ATOM     10  H   UNL     1      -0.770  -4.387   2.567  0.00  0.00    +0.145 HD
ATOM     11  H   UNL     1      -0.246  -6.029   1.753  0.00  0.00    +0.145 HD
ENDROOT
BRANCH   1  15
ATOM     12  C   UNL     1       1.442   2.075   0.197  0.00  0.00    +0.000 A 
ATOM     13  C   UNL     1       1.092   1.444  -0.984  0.00  0.00    +0.001 A 
ATOM     14  C   UNL     1       1.050   0.066  -1.046  0.00  0.00    +0.010 A 
ATOM     15  C   UNL     1       1.360  -0.690   0.084  0.00  0.00    -0.001 A 
ATOM     16  C   UNL     1       1.712  -0.047   1.272  0.00  0.00    +0.010 A 
ATOM     17  C   UNL     1       1.750   1.331   1.321  0.00  0.00    +0.001 A 
ENDBRANCH   1  15
BRANCH   2  18
ATOM     18  C   UNL     1       2.837  -2.096  -1.952  0.00  0.00    +0.052 C 
BRANCH  18  19
ATOM     19  C   UNL     1       4.263  -1.925  -1.425  0.00  0.00    +0.101 C 
BRANCH  19  20
ATOM     20  C   UNL     1       5.055  -1.077  -2.386  0.00  0.00    +0.218 C 
ATOM     21  O   UNL     1       4.531  -0.650  -3.393  0.00  0.00    -0.275 OA
ATOM     22  N   UNL     1       6.347  -0.792  -2.127  0.00  0.00    -0.285 N 
ATOM     23  H   UNL     1       6.801  -1.112  -1.177  0.00  0.00    +0.155 HD
BRANCH  22  24
ATOM     24  C   UNL     1       7.110  -0.088  -3.065  0.00  0.00    +0.033 A 
ATOM     25  C   UNL     1       8.458  -0.380  -3.225  0.00  0.00    +0.023 A 
ATOM     26  C   UNL     1       9.208   0.313  -4.155  0.00  0.00    +0.002 A 
ATOM     27  C   UNL     1       8.620   1.304  -4.920  0.00  0.00    +0.000 A 
ATOM     28  C   UNL     1       7.279   1.601  -4.759  0.00  0.00    +0.002 A 
ATOM     29  C   UNL     1       6.522   0.908  -3.834  0.00  0.00    +0.023 A 
ENDBRANCH  22  24
ENDBRANCH  19  20
ENDBRANCH  18  19
ENDBRANCH   2  18
TORSDOF 5
