REMARK  Name = ZINC44878837
REMARK  12 active torsions:
REMARK  status: ('A' for Active; 'I' for Inactive)
REMARK    1  A    between atoms: C_1  and  C_2
REMARK    2  A    between atoms: N_7  and  C_9
REMARK    3  A    between atoms: C_9  and  C_10
REMARK    4  A    between atoms: C_13  and  C_16
REMARK    5  A    between atoms: C_16  and  N_17
REMARK    6  A    between atoms: C_18  and  C_20
REMARK    7  A    between atoms: C_20  and  C_21
REMARK    8  A    between atoms: C_21  and  C_22
REMARK    9  A    between atoms: C_22  and  N_23
REMARK   10  A    between atoms: N_23  and  C_24
REMARK   11  A    between atoms: N_23  and  S_33
REMARK   12  A    between atoms: S_33  and  C_36
REMARK                            x       y       z     vdW  Elec       q    Type
REMARK                         _______ _______ _______ _____ _____    ______ ____
ROOT
ATOM      1  N   UNL     1       0.936 -10.051   3.016  0.00  0.00    -0.311 N 
ATOM      2  C   UNL     1       0.542 -11.216   2.466  0.00  0.00    +0.213 C 
ATOM      3  O   UNL     1       0.722 -12.258   3.061  0.00  0.00    -0.276 OA
ATOM      4  H   UNL     1       0.793  -9.217   2.540  0.00  0.00    +0.149 HD
ENDROOT
BRANCH   1   5
ATOM      5  C   UNL     1       1.581 -10.042   4.331  0.00  0.00    +0.139 C 
BRANCH   5   9
ATOM      6  C   UNL     1       2.545  -6.025   5.420  0.00  0.00    -0.064 A 
ATOM      7  C   UNL     1       1.319  -6.559   5.766  0.00  0.00    +0.002 A 
ATOM      8  C   UNL     1       1.006  -7.859   5.414  0.00  0.00    +0.005 A 
ATOM      9  C   UNL     1       1.921  -8.624   4.715  0.00  0.00    -0.030 A 
ATOM     10  C   UNL     1       3.147  -8.089   4.367  0.00  0.00    +0.005 A 
ATOM     11  C   UNL     1       3.458  -6.788   4.715  0.00  0.00    +0.002 A 
BRANCH   6  12
ATOM     12  C   UNL     1       2.885  -4.608   5.804  0.00  0.00    -0.043 C 
BRANCH  12  18
ATOM     13  C   UNL     1       2.375   0.094   4.540  0.00  0.00    +0.005 C 
ATOM     14  C   UNL     1       2.148  -1.351   4.091  0.00  0.00    -0.031 C 
ATOM     15  C   UNL     1       2.901  -1.603   2.782  0.00  0.00    -0.001 C 
ATOM     16  C   UNL     1       2.732  -3.072   2.383  0.00  0.00    -0.018 C 
ATOM     17  C   UNL     1       3.232  -3.965   3.521  0.00  0.00    -0.078 C 
ATOM     18  N   UNL     1       2.455  -3.695   4.737  0.00  0.00    +0.383 N 
ATOM     19  C   UNL     1       2.668  -2.308   5.166  0.00  0.00    -0.075 C 
ATOM     20  H   UNL     1       1.475  -3.840   4.548  0.00  0.00    -0.081 HD
ENDBRANCH  12  18
ENDBRANCH   6  12
ENDBRANCH   5   9
ENDBRANCH   1   5
BRANCH   2  21
ATOM     21  C   UNL     1      -0.121 -11.226   1.113  0.00  0.00    +0.097 C 
BRANCH  21  22
ATOM     22  C   UNL     1      -0.466 -12.665   0.724  0.00  0.00    +0.030 C 
BRANCH  22  23
ATOM     23  C   UNL     1      -1.139 -12.674  -0.650  0.00  0.00    +0.131 C 
BRANCH  23  24
ATOM     24  N   UNL     1      -1.469 -14.052  -1.022  0.00  0.00    -0.207 N 
BRANCH  24  25
ATOM     25  C   UNL     1      -2.665 -14.628  -0.581  0.00  0.00    +0.055 A 
ATOM     26  C   UNL     1      -3.881 -14.040  -0.905  0.00  0.00    +0.028 A 
ATOM     27  C   UNL     1      -5.063 -14.608  -0.470  0.00  0.00    +0.051 A 
ATOM     28  C   UNL     1      -5.039 -15.766   0.290  0.00  0.00    +0.166 A 
ATOM     29  C   UNL     1      -3.822 -16.359   0.617  0.00  0.00    +0.168 A 
ATOM     30  C   UNL     1      -2.638 -15.792   0.176  0.00  0.00    +0.074 A 
ATOM     31  O   UNL     1      -4.066 -17.475   1.364  0.00  0.00    -0.453 OA
ATOM     32  C   UNL     1      -5.419 -17.334   1.836  0.00  0.00    +0.466 C 
ATOM     33  O   UNL     1      -6.047 -16.512   0.834  0.00  0.00    -0.453 OA
ENDBRANCH  24  25
BRANCH  24  34
ATOM     34  S   UNL     1      -0.427 -14.927  -1.966  0.00  0.00    +0.043 S 
ATOM     35  O   UNL     1      -1.224 -15.964  -2.521  0.00  0.00    -0.155 OA
ATOM     36  O   UNL     1       0.197 -13.965  -2.805  0.00  0.00    -0.155 OA
ATOM     37  C   UNL     1       0.781 -15.621  -0.805  0.00  0.00    +0.218 C 
ENDBRANCH  24  34
ENDBRANCH  23  24
ENDBRANCH  22  23
ENDBRANCH  21  22
ENDBRANCH   2  21
TORSDOF 10
