REMARK  Name = ZINC13028306
REMARK  5 active torsions:
REMARK  status: ('A' for Active; 'I' for Inactive)
REMARK    1  A    between atoms: C_1  and  C_2
REMARK    2  A    between atoms: C_5  and  N_9
REMARK    3  A    between atoms: C_7  and  C_8
REMARK    4  A    between atoms: C_17  and  C_19
REMARK    5  A    between atoms: C_20  and  C_21
REMARK                            x       y       z     vdW  Elec       q    Type
REMARK                         _______ _______ _______ _____ _____    ______ ____
ROOT
ATOM      1  N   UNL     1      -0.496   4.221  -0.885  0.00  0.00    -0.299 N 
ATOM      2  C   UNL     1       0.683   4.453  -0.197  0.00  0.00    +0.135 A 
ATOM      3  C   UNL     1       1.642   3.421   0.028  0.00  0.00    +0.051 A 
ATOM      4  C   UNL     1       1.553   2.036  -0.399  0.00  0.00    -0.025 A 
ATOM      5  C   UNL     1       2.590   1.230  -0.070  0.00  0.00    -0.004 A 
ATOM      6  S   UNL     1       3.726   2.268   0.815  0.00  0.00    -0.073 S 
ATOM      7  C   UNL     1       2.815   3.777   0.746  0.00  0.00    +0.114 A 
ATOM      8  N   UNL     1       3.047   4.989   1.200  0.00  0.00    -0.221 NA
ATOM      9  C   UNL     1       2.109   5.914   0.957  0.00  0.00    +0.156 A 
ATOM     10  N   UNL     1       0.989   5.650   0.292  0.00  0.00    -0.212 NA
ATOM     11  C   UNL     1       2.744  -0.225  -0.388  0.00  0.00    +0.043 C 
ATOM     12  C   UNL     1       1.379  -0.774  -0.827  0.00  0.00    +0.005 C 
ATOM     13  C   UNL     1       0.775   0.181  -1.860  0.00  0.00    +0.005 C 
ATOM     14  C   UNL     1       0.362   1.486  -1.180  0.00  0.00    +0.037 C 
ATOM     15  H   UNL     1      -0.733   3.318  -1.150  0.00  0.00    +0.154 HD
ENDROOT
BRANCH   1  20
ATOM     16  C   UNL     1      -3.940   8.546  -2.150  0.00  0.00    +0.044 C 
ATOM     17  C   UNL     1      -3.025   7.397  -1.814  0.00  0.00    -0.047 A 
ATOM     18  C   UNL     1      -1.654   7.577  -1.837  0.00  0.00    +0.005 A 
ATOM     19  C   UNL     1      -0.813   6.527  -1.524  0.00  0.00    +0.023 A 
ATOM     20  C   UNL     1      -1.345   5.286  -1.197  0.00  0.00    +0.033 A 
ATOM     21  C   UNL     1      -2.722   5.109  -1.175  0.00  0.00    +0.027 A 
ATOM     22  C   UNL     1      -3.558   6.165  -1.483  0.00  0.00    -0.046 A 
ATOM     23  C   UNL     1      -5.053   5.973  -1.459  0.00  0.00    +0.044 C 
ENDBRANCH   1  20
BRANCH   9  24
ATOM     24  C   UNL     1       2.329   7.284   1.447  0.00  0.00    +0.049 C 
ATOM     25  C   UNL     1       3.452   7.583   2.122  0.00  0.00    +0.011 C 
BRANCH  25  26
ATOM     26  C   UNL     1       3.673   8.955   2.613  0.00  0.00    -0.025 A 
ATOM     27  C   UNL     1       2.719   9.948   2.373  0.00  0.00    +0.009 A 
ATOM     28  C   UNL     1       2.929  11.229   2.839  0.00  0.00    +0.016 A 
ATOM     29  C   UNL     1       4.088  11.534   3.534  0.00  0.00    +0.018 A 
ATOM     30  C   UNL     1       5.039  10.556   3.771  0.00  0.00    +0.016 A 
ATOM     31  C   UNL     1       4.839   9.270   3.315  0.00  0.00    +0.009 A 
ATOM     32 BR   UNL     1       4.371  13.295   4.163  0.00  0.00    -0.050 Br
ENDBRANCH  25  26
ENDBRANCH   9  24
TORSDOF 3
