REMARK  Name = ZINC66982161
REMARK  7 active torsions:
REMARK  status: ('A' for Active; 'I' for Inactive)
REMARK    1  A    between atoms: C_1  and  C_2
REMARK    2  A    between atoms: C_2  and  C_4
REMARK    3  A    between atoms: C_2  and  N_11
REMARK    4  A    between atoms: N_11  and  C_12
REMARK    5  A    between atoms: N_15  and  C_16
REMARK    6  A    between atoms: C_18  and  N_24
REMARK    7  A    between atoms: C_25  and  C_27
REMARK                            x       y       z     vdW  Elec       q    Type
REMARK                         _______ _______ _______ _____ _____    ______ ____
ROOT
ATOM      1  N   UNL     1      -1.682  -0.748  -0.151  0.00  0.00    -0.282 N 
ATOM      2  C   UNL     1      -2.644  -0.222   0.821  0.00  0.00    +0.134 C 
ATOM      3  C   UNL     1      -2.115  -1.464  -1.207  0.00  0.00    +0.307 C 
ATOM      4  O   UNL     1      -1.317  -1.900  -2.014  0.00  0.00    -0.252 OA
ATOM      5  N   UNL     1      -3.433  -1.696  -1.370  0.00  0.00    -0.267 N 
ATOM      6  H   UNL     1      -4.062  -1.416  -0.687  0.00  0.00    +0.156 HD
ENDROOT
BRANCH   5   7
ATOM      7  C   UNL     1      -3.893  -2.343  -2.525  0.00  0.00    +0.072 A 
ATOM      8  C   UNL     1      -3.142  -2.299  -3.691  0.00  0.00    +0.052 A 
ATOM      9  C   UNL     1      -3.600  -2.940  -4.833  0.00  0.00    +0.071 A 
ATOM     10  C   UNL     1      -4.810  -3.625  -4.807  0.00  0.00    +0.147 A 
ATOM     11  C   UNL     1      -5.557  -3.667  -3.644  0.00  0.00    +0.080 A 
ATOM     12  C   UNL     1      -5.100  -3.033  -2.502  0.00  0.00    +0.147 A 
ATOM     13  F   UNL     1      -5.829  -3.080  -1.365  0.00  0.00    -0.203 F 
ATOM     14  F   UNL     1      -5.256  -4.249  -5.919  0.00  0.00    -0.203 F 
BRANCH   9  15
ATOM     15  N   UNL     1      -2.843  -2.897  -6.012  0.00  0.00    -0.283 N 
ATOM     16  C   UNL     1      -1.995  -1.873  -6.231  0.00  0.00    +0.214 C 
ATOM     17  O   UNL     1      -1.834  -1.026  -5.378  0.00  0.00    -0.276 OA
ATOM     18  C   UNL     1      -1.247  -1.780  -7.536  0.00  0.00    +0.109 C 
ATOM     19  H   UNL     1      -2.930  -3.604  -6.670  0.00  0.00    +0.155 HD
ENDBRANCH   9  15
ENDBRANCH   5   7
BRANCH   1  21
ATOM     20  C   UNL     1      -0.009   1.012   0.140  0.00  0.00    +0.033 C 
ATOM     21  C   UNL     1      -0.250  -0.495   0.026  0.00  0.00    +0.107 C 
BRANCH  21  22
ATOM     22  C   UNL     1       0.229  -1.177   1.281  0.00  0.00    +0.008 A 
ATOM     23  C   UNL     1       0.497  -0.431   2.414  0.00  0.00    +0.008 A 
ATOM     24  C   UNL     1       0.937  -1.057   3.565  0.00  0.00    +0.000 A 
ATOM     25  C   UNL     1       1.110  -2.428   3.586  0.00  0.00    +0.003 A 
ATOM     26  C   UNL     1       0.842  -3.176   2.455  0.00  0.00    +0.039 A 
ATOM     27  C   UNL     1       0.396  -2.551   1.302  0.00  0.00    +0.128 A 
ATOM     28  F   UNL     1       0.130  -3.281   0.197  0.00  0.00    -0.205 F 
ENDBRANCH  21  22
ENDBRANCH   1  21
TORSDOF 4
