REMARK  Name = ZINC28467029
REMARK  6 active torsions:
REMARK  status: ('A' for Active; 'I' for Inactive)
REMARK    1  A    between atoms: C_1  and  C_2
REMARK    2  A    between atoms: N_4  and  C_5
REMARK    3  A    between atoms: C_8  and  C_11
REMARK    4  A    between atoms: C_13  and  C_25
REMARK    5  A    between atoms: C_15  and  C_20
REMARK    6  A    between atoms: C_15  and  O_24
REMARK                            x       y       z     vdW  Elec       q    Type
REMARK                         _______ _______ _______ _____ _____    ______ ____
ROOT
ATOM      1  C   UNL     1       0.007   1.084  -0.005  0.00  0.00    +0.117 C 
ATOM      2  C   UNL     1       1.369   1.780   0.092  0.00  0.00    +0.110 C 
ATOM      3  C   UNL     1       2.050   1.342   1.393  0.00  0.00    +0.241 C 
ATOM      4  N   UNL     1       1.160   1.626   2.520  0.00  0.00    -0.264 N 
ATOM      5  C   UNL     1      -0.173   1.627   2.374  0.00  0.00    +0.302 C 
ATOM      6  O   UNL     1      -0.867   1.860   3.345  0.00  0.00    -0.253 OA
ATOM      7  N   UNL     1      -0.771   1.382   1.198  0.00  0.00    -0.292 N 
ATOM      8  H   UNL     1       1.582   1.845   3.512  0.00  0.00    +0.153 HD
ATOM      9  H   UNL     1      -1.870   1.409   1.150  0.00  0.00    +0.151 HD
ENDROOT
BRANCH   1  13
ATOM     10  C   UNL     1      -2.083   2.505  -3.451  0.00  0.00    +0.033 A 
ATOM     11  C   UNL     1      -1.418   1.286  -3.494  0.00  0.00    +0.023 A 
ATOM     12  C   UNL     1      -0.744   0.830  -2.378  0.00  0.00    +0.007 A 
ATOM     13  C   UNL     1      -0.730   1.585  -1.220  0.00  0.00    -0.026 A 
ATOM     14  C   UNL     1      -1.395   2.796  -1.173  0.00  0.00    +0.007 A 
ATOM     15  C   UNL     1      -2.067   3.261  -2.287  0.00  0.00    +0.023 A 
BRANCH  10  19
ATOM     16  C   UNL     1      -4.001   2.583  -6.689  0.00  0.00    +0.109 C 
ATOM     17  C   UNL     1      -3.366   2.095  -5.413  0.00  0.00    +0.214 C 
ATOM     18  O   UNL     1      -3.393   0.914  -5.135  0.00  0.00    -0.276 OA
ATOM     19  N   UNL     1      -2.768   2.969  -4.580  0.00  0.00    -0.286 N 
ATOM     20  H   UNL     1      -2.818   4.048  -4.787  0.00  0.00    +0.155 HD
ENDBRANCH  10  19
ENDBRANCH   1  13
BRANCH   2  21
ATOM     21  C   UNL     1       1.173   3.275   0.102  0.00  0.00    -0.000 A 
ATOM     22  C   UNL     1       1.641   4.203  -0.768  0.00  0.00    +0.012 A 
ATOM     23  C   UNL     1       1.332   5.534  -0.559  0.00  0.00    +0.008 A 
ATOM     24  C   UNL     1       0.569   5.872   0.509  0.00  0.00    +0.045 A 
ATOM     25  S   UNL     1       0.259   4.281   1.259  0.00  0.00    -0.101 S 
ENDBRANCH   2  21
BRANCH   3  26
ATOM     26  C   UNL     1       2.341  -0.159   1.337  0.00  0.00    +0.436 C 
ATOM     27  F   UNL     1       3.185  -0.430   0.255  0.00  0.00    -0.166 F 
ATOM     28  F   UNL     1       2.962  -0.558   2.525  0.00  0.00    -0.166 F 
ATOM     29  F   UNL     1       1.141  -0.861   1.180  0.00  0.00    -0.166 F 
ENDBRANCH   3  26
BRANCH   3  30
ATOM     30  O   UNL     1       3.273   2.061   1.557  0.00  0.00    -0.364 OA
ATOM     31  H   UNL     1       3.904   1.879   2.440  0.00  0.00    +0.212 HD
ENDBRANCH   3  30
TORSDOF 5
