REMARK  Name = ZINC02659398
REMARK  13 active torsions:
REMARK  status: ('A' for Active; 'I' for Inactive)
REMARK    1  A    between atoms: C_1  and  C_2
REMARK    2  A    between atoms: C_2  and  C_3
REMARK    3  A    between atoms: C_3  and  N_4
REMARK    4  A    between atoms: C_5  and  N_34
REMARK    5  A    between atoms: C_6  and  C_13
REMARK    6  A    between atoms: N_9  and  C_12
REMARK    7  A    between atoms: C_15  and  C_31
REMARK    8  A    between atoms: C_16  and  C_18
REMARK    9  A    between atoms: C_18  and  C_20
REMARK   10  A    between atoms: C_23  and  C_26
REMARK   11  A    between atoms: C_26  and  C_28
REMARK   12  A    between atoms: C_26  and  C_29
REMARK   13  A    between atoms: C_29  and  C_30
REMARK                            x       y       z     vdW  Elec       q    Type
REMARK                         _______ _______ _______ _____ _____    ______ ____
ROOT
ATOM      1  C   UNL     1      -1.212  -4.840  -2.259  0.00  0.00    +0.118 A 
ATOM      2  N   UNL     1      -1.304  -6.155  -2.459  0.00  0.00    -0.243 NA
ATOM      3  C   UNL     1      -1.333  -6.662  -3.659  0.00  0.00    +0.063 A 
ATOM      4  C   UNL     1      -1.267  -5.809  -4.757  0.00  0.00    +0.083 A 
ATOM      5  S   UNL     1      -1.167  -4.223  -3.936  0.00  0.00    -0.063 S 
ENDROOT
BRANCH   1   8
ATOM      6  N   UNL     1      -1.060  -4.038   1.388  0.00  0.00    -0.281 N 
ATOM      7  C   UNL     1      -1.101  -4.767   0.229  0.00  0.00    +0.115 A 
ATOM      8  C   UNL     1      -1.166  -4.095  -0.994  0.00  0.00    +0.109 A 
ATOM      9  C   UNL     1      -1.187  -2.675  -0.987  0.00  0.00    +0.268 A 
ATOM     10  O   UNL     1      -1.244  -2.055  -2.033  0.00  0.00    -0.267 OA
ATOM     11  N   UNL     1      -1.143  -2.021   0.191  0.00  0.00    -0.263 N 
ATOM     12  C   UNL     1      -1.087  -2.694   1.353  0.00  0.00    +0.333 A 
ATOM     13  O   UNL     1      -1.054  -2.073   2.397  0.00  0.00    -0.246 OA
ATOM     14  C   UNL     1      -1.165  -0.556   0.205  0.00  0.00    +0.157 C 
BRANCH   7  15
ATOM     15  N   UNL     1      -1.079  -6.131   0.269  0.00  0.00    -0.344 N 
ATOM     16  H   UNL     1      -0.956  -6.590   1.115  0.00  0.00    +0.144 HD
ATOM     17  H   UNL     1      -1.186  -6.642  -0.548  0.00  0.00    +0.144 HD
ENDBRANCH   7  15
BRANCH   6  18
ATOM     18  C   UNL     1      -0.991  -4.729   2.678  0.00  0.00    +0.128 C 
BRANCH  18  20
ATOM     19  C   UNL     1      -2.337  -5.718   4.536  0.00  0.00    +0.005 C 
ATOM     20  C   UNL     1      -2.408  -4.996   3.189  0.00  0.00    +0.018 C 
ENDBRANCH  18  20
ENDBRANCH   6  18
ENDBRANCH   1   8
BRANCH   3  21
ATOM     21  C   UNL     1      -1.437  -8.152  -3.855  0.00  0.00    +0.039 C 
ATOM     22  C   UNL     1      -1.709  -9.011  -2.618  0.00  0.00    +0.010 C 
ATOM     23  C   UNL     1      -0.324  -9.021  -3.268  0.00  0.00    +0.010 C 
ENDBRANCH   3  21
BRANCH   4  24
ATOM     24  C   UNL     1      -1.282  -6.112  -6.141  0.00  0.00    +0.201 C 
ATOM     25  O   UNL     1      -1.478  -7.255  -6.512  0.00  0.00    -0.286 OA
BRANCH  24  26
ATOM     26  C   UNL     1      -1.058  -5.040  -7.136  0.00  0.00    +0.023 A 
ATOM     27  C   UNL     1      -0.387  -3.872  -6.769  0.00  0.00    +0.012 A 
ATOM     28  C   UNL     1      -0.181  -2.877  -7.701  0.00  0.00    +0.004 A 
ATOM     29  C   UNL     1      -0.637  -3.034  -8.998  0.00  0.00    -0.045 A 
ATOM     30  C   UNL     1      -1.302  -4.189  -9.368  0.00  0.00    +0.004 A 
ATOM     31  C   UNL     1      -1.510  -5.195  -8.447  0.00  0.00    +0.012 A 
BRANCH  29  32
ATOM     32  C   UNL     1      -0.409  -1.942 -10.011  0.00  0.00    +0.016 C 
ATOM     33  C   UNL     1      -1.757  -1.443 -10.536  0.00  0.00    +0.012 C 
BRANCH  32  34
ATOM     34  C   UNL     1       0.420  -2.491 -11.174  0.00  0.00    +0.004 C 
ATOM     35  C   UNL     1       0.758  -1.354 -12.141  0.00  0.00    +0.004 C 
ENDBRANCH  32  34
ENDBRANCH  29  32
ENDBRANCH  24  26
ENDBRANCH   4  24
TORSDOF 9
