REMARK  Name = ZINC41603642
REMARK  4 active torsions:
REMARK  status: ('A' for Active; 'I' for Inactive)
REMARK    1  A    between atoms: C_7  and  C_11
REMARK    2  A    between atoms: C_11  and  C_12
REMARK    3  A    between atoms: C_12  and  N_13
REMARK    4  A    between atoms: C_18  and  C_21
REMARK                            x       y       z     vdW  Elec       q    Type
REMARK                         _______ _______ _______ _____ _____    ______ ____
ROOT
ATOM      1  N   UNL     1      -0.675  -4.736  -1.452  0.00  0.00    -0.313 N 
ATOM      2  C   UNL     1      -1.194  -5.202  -2.631  0.00  0.00    +0.213 A 
ATOM      3  N   UNL     1      -0.860  -4.611  -3.761  0.00  0.00    -0.174 NA
ATOM      4  C   UNL     1      -1.350  -5.042  -4.928  0.00  0.00    +0.301 A 
ATOM      5  O   UNL     1      -1.036  -4.490  -5.971  0.00  0.00    -0.263 OA
ATOM      6  C   UNL     1      -2.272  -6.191  -4.943  0.00  0.00    +0.164 A 
ATOM      7  N   UNL     1      -2.588  -6.762  -3.799  0.00  0.00    -0.165 NA
ATOM      8  N   UNL     1      -2.036  -6.265  -2.611  0.00  0.00    -0.248 N 
ATOM      9  H   UNL     1      -0.911  -5.166  -0.615  0.00  0.00    +0.149 HD
ATOM     10  H   UNL     1      -2.261  -6.683  -1.765  0.00  0.00    +0.192 HD
ENDROOT
BRANCH   6  11
ATOM     11  C   UNL     1      -2.831  -6.692  -6.213  0.00  0.00    +0.045 A 
ATOM     12  C   UNL     1      -3.698  -7.732  -6.425  0.00  0.00    +0.018 A 
ATOM     13  C   UNL     1      -4.086  -8.018  -7.715  0.00  0.00    +0.008 A 
ATOM     14  C   UNL     1      -3.599  -7.264  -8.735  0.00  0.00    +0.046 A 
ATOM     15  S   UNL     1      -2.560  -6.096  -7.874  0.00  0.00    -0.095 S 
ENDBRANCH   6  11
BRANCH   1  16
ATOM     16  C   UNL     1       0.236  -3.589  -1.455  0.00  0.00    +0.109 C 
BRANCH  16  17
ATOM     17  C   UNL     1       0.666  -3.275  -0.021  0.00  0.00    +0.056 C 
BRANCH  17  24
ATOM     18  C   UNL     1      -0.017   1.362   0.009  0.00  0.00    +0.001 A 
ATOM     19  C   UNL     1       1.170   2.083   0.002  0.00  0.00    +0.002 A 
ATOM     20  C   UNL     1       2.386   1.436  -0.013  0.00  0.00    +0.026 A 
ATOM     21  C   UNL     1       2.428   0.046  -0.021  0.00  0.00    +0.047 A 
ATOM     22  C   UNL     1       1.223  -0.681  -0.013  0.00  0.00    +0.003 A 
ATOM     23  C   UNL     1       0.002  -0.004   0.002  0.00  0.00    +0.010 A 
ATOM     24  C   UNL     1       1.604  -2.095  -0.025  0.00  0.00    -0.021 A 
ATOM     25  C   UNL     1       2.945  -2.141  -0.038  0.00  0.00    +0.087 A 
ATOM     26  N   UNL     1       3.455  -0.871  -0.036  0.00  0.00    -0.360 N 
ATOM     27  H   UNL     1       4.399  -0.650  -0.044  0.00  0.00    +0.165 HD
ENDBRANCH  17  24
ENDBRANCH  16  17
ENDBRANCH   1  16
TORSDOF 4
