REMARK  Name = ZINC06405500
REMARK  9 active torsions:
REMARK  status: ('A' for Active; 'I' for Inactive)
REMARK    1  A    between atoms: C_1  and  C_2
REMARK    2  A    between atoms: C_5  and  C_39
REMARK    3  A    between atoms: C_9  and  C_14
REMARK    4  A    between atoms: C_14  and  C_16
REMARK    5  A    between atoms: C_14  and  N_70
REMARK    6  A    between atoms: N_20  and  C_21
REMARK    7  A    between atoms: C_21  and  C_22
REMARK    8  A    between atoms: C_21  and  C_23
REMARK    9  A    between atoms: C_21  and  C_24
REMARK                            x       y       z     vdW  Elec       q    Type
REMARK                         _______ _______ _______ _____ _____    ______ ____
ROOT
ATOM      1  C   UNL     1       3.692   1.648   3.724  0.00  0.00    +0.039 C 
ENDROOT
BRANCH   1  16
ATOM      2  C   UNL     1       4.309   3.927   3.186  0.00  0.00    -0.058 C 
ATOM      3  C   UNL     1       5.189   5.102   3.618  0.00  0.00    +0.088 C 
ATOM      4  N   UNL     1       6.602   4.705   3.547  0.00  0.00    -0.313 N 
ATOM      5  C   UNL     1       6.866   3.552   4.420  0.00  0.00    +0.088 C 
ATOM      6  C   UNL     1       5.986   2.377   3.988  0.00  0.00    -0.058 C 
ATOM      7  C   UNL     1       7.430   5.763   3.862  0.00  0.00    +0.162 A 
ATOM      8  N   UNL     1       7.491   6.953   3.309  0.00  0.00    -0.225 NA
ATOM      9  C   UNL     1       8.360   7.902   3.724  0.00  0.00    +0.080 A 
ATOM     10  C   UNL     1       8.527   9.212   3.221  0.00  0.00    +0.029 A 
ATOM     11  C   UNL     1       9.463  10.056   3.761  0.00  0.00    +0.002 A 
ATOM     12  C   UNL     1      10.274   9.659   4.814  0.00  0.00    +0.001 A 
ATOM     13  C   UNL     1      10.138   8.383   5.331  0.00  0.00    +0.017 A 
ATOM     14  C   UNL     1       9.203   7.532   4.796  0.00  0.00    +0.041 A 
ATOM     15  S   UNL     1       8.685   5.866   5.129  0.00  0.00    -0.052 S 
ATOM     16  N   UNL     1       4.568   2.782   4.085  0.00  0.00    +0.391 N 
ATOM     17  H   UNL     1       4.367   3.065   5.052  0.00  0.00    -0.080 HD
ENDBRANCH   1  16
BRANCH   1  26
ATOM     18  C   UNL     1      -0.391   1.610   0.492  0.00  0.00    +0.044 C 
ATOM     19  C   UNL     1      -0.851   2.227   1.787  0.00  0.00    -0.041 A 
ATOM     20  C   UNL     1      -2.142   2.654   1.923  0.00  0.00    +0.004 A 
ATOM     21  C   UNL     1      -2.577   3.221   3.113  0.00  0.00    +0.005 A 
ATOM     22  C   UNL     1      -1.714   3.371   4.178  0.00  0.00    -0.026 A 
ATOM     23  C   UNL     1      -0.394   2.948   4.061  0.00  0.00    +0.052 A 
ATOM     24  C   UNL     1       0.043   2.371   2.853  0.00  0.00    +0.002 A 
ATOM     25  C   UNL     1       1.434   1.929   2.740  0.00  0.00    +0.018 A 
ATOM     26  C   UNL     1       2.254   2.092   3.807  0.00  0.00    +0.011 A 
ATOM     27  C   UNL     1       1.767   2.677   4.995  0.00  0.00    +0.251 A 
ATOM     28  O   UNL     1       2.521   2.815   5.943  0.00  0.00    -0.268 OA
ATOM     29  N   UNL     1       0.491   3.086   5.109  0.00  0.00    -0.322 N 
ATOM     30  H   UNL     1       0.189   3.484   5.940  0.00  0.00    +0.169 HD
ATOM     31  C   UNL     1      -2.198   3.992   5.462  0.00  0.00    +0.046 C 
ENDBRANCH   1  26
BRANCH   1  32
ATOM     32  C   UNL     1       3.926   0.520   4.697  0.00  0.00    +0.143 A 
ATOM     33  N   UNL     1       3.932   0.604   6.005  0.00  0.00    -0.115 NA
ATOM     34  N   UNL     1       4.166  -0.571   6.477  0.00  0.00    -0.023 NA
ATOM     35  N   UNL     1       4.310  -1.403   5.505  0.00  0.00    -0.043 NA
ATOM     36  N   UNL     1       4.163  -0.769   4.391  0.00  0.00    -0.225 N 
BRANCH  36  37
ATOM     37  C   UNL     1       4.244  -1.343   3.046  0.00  0.00    +0.059 C 
ATOM     38  C   UNL     1       5.412  -0.709   2.289  0.00  0.00    +0.036 C 
ATOM     39  C   UNL     1       4.463  -2.854   3.148  0.00  0.00    +0.036 C 
ATOM     40  C   UNL     1       2.940  -1.067   2.294  0.00  0.00    +0.036 C 
ENDBRANCH  36  37
ENDBRANCH   1  32
TORSDOF 4
