REMARK  Name = ZINC15002875
REMARK  12 active torsions:
REMARK  status: ('A' for Active; 'I' for Inactive)
REMARK    1  A    between atoms: C_1  and  C_2
REMARK    2  A    between atoms: C_11  and  C_12
REMARK    3  A    between atoms: N_14  and  C_15
REMARK    4  A    between atoms: C_15  and  C_16
REMARK    5  A    between atoms: C_16  and  C_18
REMARK    6  A    between atoms: C_16  and  O_19
REMARK    7  A    between atoms: O_19  and  C_20
REMARK    8  A    between atoms: C_24  and  C_26
REMARK    9  A    between atoms: C_26  and  N_61
REMARK   10  A    between atoms: C_27  and  N_61
REMARK   11  A    between atoms: C_28  and  C_29
REMARK   12  A    between atoms: C_28  and  N_61
REMARK                            x       y       z     vdW  Elec       q    Type
REMARK                         _______ _______ _______ _____ _____    ______ ____
ROOT
ATOM      1  C   UNL     1       1.192   5.866   0.135  0.00  0.00    +0.187 C 
ATOM      2  C   UNL     1       1.696   6.225  -1.264  0.00  0.00    +0.053 C 
ENDROOT
BRANCH   1   3
ATOM      3  C   UNL     1       1.028   7.143   0.962  0.00  0.00    +0.148 C 
BRANCH   3   6
ATOM      4  C   UNL     1       0.464   7.763   3.250  0.00  0.00    +0.261 C 
ATOM      5  O   UNL     1       0.590   8.931   2.933  0.00  0.00    -0.269 OA
ATOM      6  N   UNL     1       0.661   6.792   2.336  0.00  0.00    -0.307 N 
ATOM      7  H   UNL     1       0.561   5.861   2.588  0.00  0.00    +0.149 HD
BRANCH   4  18
ATOM      8  C   UNL     1      -0.045   9.797   5.533  0.00  0.00    +0.047 C 
ATOM      9  C   UNL     1      -0.130   8.296   5.635  0.00  0.00    -0.013 A 
ATOM     10  C   UNL     1      -0.457   7.555   6.796  0.00  0.00    +0.005 A 
ATOM     11  C   UNL     1      -0.781   7.919   8.110  0.00  0.00    +0.030 A 
ATOM     12  C   UNL     1      -1.056   6.952   9.034  0.00  0.00    +0.042 A 
ATOM     13  C   UNL     1      -1.018   5.607   8.684  0.00  0.00    +0.022 A 
ATOM     14  C   UNL     1      -0.702   5.225   7.399  0.00  0.00    +0.027 A 
ATOM     15  C   UNL     1      -0.417   6.193   6.440  0.00  0.00    +0.047 A 
ATOM     16  N   UNL     1      -0.083   6.127   5.107  0.00  0.00    -0.350 N 
ATOM     17  H   UNL     1       0.014   5.313   4.589  0.00  0.00    +0.166 HD
ATOM     18  C   UNL     1       0.095   7.410   4.629  0.00  0.00    +0.106 A 
ATOM     19 CL   UNL     1      -1.457   7.406  10.661  0.00  0.00    -0.084 Cl
ENDBRANCH   4  18
ENDBRANCH   3   6
ENDBRANCH   1   3
BRANCH   1  20
ATOM     20  O   UNL     1      -0.069   5.201   0.032  0.00  0.00    -0.488 OA
BRANCH  20  21
ATOM     21  C   UNL     1      -0.042   3.860  -0.190  0.00  0.00    +0.121 A 
ATOM     22  C   UNL     1       1.166   3.217  -0.417  0.00  0.00    +0.045 A 
ATOM     23  C   UNL     1       1.190   1.855  -0.642  0.00  0.00    +0.004 A 
ATOM     24  C   UNL     1       0.011   1.131  -0.641  0.00  0.00    +0.002 A 
ATOM     25  C   UNL     1      -1.194   1.771  -0.421  0.00  0.00    -0.060 A 
ATOM     26  C   UNL     1      -1.223   3.133  -0.190  0.00  0.00    +0.047 A 
BRANCH  25  27
ATOM     27  C   UNL     1      -2.478   0.981  -0.426  0.00  0.00    -0.043 C 
BRANCH  27  29
ATOM     28  C   UNL     1      -1.755  -0.472   1.371  0.00  0.00    -0.095 C 
ATOM     29  N   UNL     1      -2.763   0.524   0.950  0.00  0.00    +0.383 N 
ATOM     30  H   UNL     1      -2.719   1.331   1.585  0.00  0.00    -0.081 HD
BRANCH  29  31
ATOM     31  C   UNL     1      -4.116  -0.066   1.017  0.00  0.00    -0.040 C 
BRANCH  31  32
ATOM     32  C   UNL     1      -4.465  -0.319   2.461  0.00  0.00    -0.026 A 
ATOM     33  C   UNL     1      -5.095   0.586   3.346  0.00  0.00    +0.043 A 
ATOM     34  C   UNL     1      -5.215  -0.046   4.528  0.00  0.00    +0.195 A 
ATOM     35  O   UNL     1      -4.695  -1.278   4.406  0.00  0.00    -0.471 OA
ATOM     36  C   UNL     1      -4.243  -1.451   3.153  0.00  0.00    +0.196 A 
ENDBRANCH  31  32
ENDBRANCH  29  31
ENDBRANCH  27  29
ENDBRANCH  25  27
ENDBRANCH  20  21
ENDBRANCH   1  20
TORSDOF 9
