REMARK  Name = ZINC20881826
REMARK  9 active torsions:
REMARK  status: ('A' for Active; 'I' for Inactive)
REMARK    1  A    between atoms: C_1  and  C_2
REMARK    2  A    between atoms: C_2  and  O_3
REMARK    3  A    between atoms: O_3  and  C_4
REMARK    4  A    between atoms: C_7  and  C_12
REMARK    5  A    between atoms: C_9  and  O_10
REMARK    6  A    between atoms: O_10  and  C_11
REMARK    7  A    between atoms: C_17  and  C_27
REMARK    8  A    between atoms: C_30  and  O_36
REMARK    9  A    between atoms: C_31  and  N_33
REMARK                            x       y       z     vdW  Elec       q    Type
REMARK                         _______ _______ _______ _____ _____    ______ ____
ROOT
ATOM      1  C   UNL     1      -2.959   0.586  -4.238  0.00  0.00    +0.032 C 
ATOM      2  C   UNL     1      -3.302  -0.678  -3.453  0.00  0.00    +0.059 C 
ATOM      3  C   UNL     1      -2.875  -0.522  -2.003  0.00  0.00    +0.017 C 
ATOM      4  C   UNL     1      -2.898   0.685  -1.411  0.00  0.00    +0.036 C 
ATOM      5  C   UNL     1      -2.513   0.977   0.019  0.00  0.00    +0.136 C 
ATOM      6  N   UNL     1      -2.344  -0.198   0.847  0.00  0.00    -0.331 N 
ATOM      7  C   UNL     1      -1.330  -1.117   0.592  0.00  0.00    +0.049 A 
ATOM      8  C   UNL     1      -0.262  -1.277   1.460  0.00  0.00    +0.025 A 
ATOM      9  C   UNL     1       0.780  -2.117   1.107  0.00  0.00    +0.002 A 
ATOM     10  C   UNL     1       0.757  -2.792  -0.100  0.00  0.00    +0.002 A 
ATOM     11  C   UNL     1      -0.320  -2.651  -0.959  0.00  0.00    +0.025 A 
ATOM     12  C   UNL     1      -1.371  -1.826  -0.599  0.00  0.00    +0.052 A 
ATOM     13  N   UNL     1      -2.503  -1.675  -1.391  0.00  0.00    -0.316 N 
ATOM     14  C   UNL     1      -3.305   1.827  -2.140  0.00  0.00    +0.163 C 
ATOM     15  O   UNL     1      -3.334   2.904  -1.576  0.00  0.00    -0.292 OA
ATOM     16  C   UNL     1      -3.703   1.757  -3.584  0.00  0.00    +0.088 C 
ATOM     17  H   UNL     1      -3.022  -0.377   1.694  0.00  0.00    +0.147 HD
ATOM     18  H   UNL     1      -3.117  -2.581  -1.504  0.00  0.00    +0.152 HD
ENDROOT
BRANCH   1  22
ATOM     19  C   UNL     1      -4.225   0.156  -8.300  0.00  0.00    +0.162 A 
ATOM     20  C   UNL     1      -5.150   0.079  -7.271  0.00  0.00    +0.050 A 
ATOM     21  C   UNL     1      -4.737   0.219  -5.959  0.00  0.00    +0.008 A 
ATOM     22  C   UNL     1      -3.403   0.435  -5.670  0.00  0.00    -0.040 A 
ATOM     23  C   UNL     1      -2.476   0.518  -6.692  0.00  0.00    +0.053 A 
ATOM     24  C   UNL     1      -2.882   0.374  -8.009  0.00  0.00    +0.162 A 
BRANCH  24  25
ATOM     25  O   UNL     1      -1.970   0.450  -9.015  0.00  0.00    -0.491 OA
ATOM     26  C   UNL     1      -0.609   0.676  -8.642  0.00  0.00    +0.277 C 
ENDBRANCH  24  25
BRANCH  19  27
ATOM     27  O   UNL     1      -4.629   0.019  -9.591  0.00  0.00    -0.489 OA
BRANCH  27  29
ATOM     28  C   UNL     1      -6.284  -0.330 -11.317  0.00  0.00    +0.048 C 
ATOM     29  C   UNL     1      -6.023  -0.202  -9.815  0.00  0.00    +0.226 C 
ENDBRANCH  27  29
ENDBRANCH  19  27
ENDBRANCH   1  22
BRANCH   5  30
ATOM     30  C   UNL     1      -1.220   1.750   0.017  0.00  0.00    -0.020 A 
ATOM     31  C   UNL     1      -0.069   1.169  -0.483  0.00  0.00    +0.009 A 
ATOM     32  C   UNL     1       1.117   1.877  -0.491  0.00  0.00    +0.048 A 
ATOM     33  C   UNL     1       1.154   3.172   0.008  0.00  0.00    +0.147 A 
ATOM     34  C   UNL     1      -0.001   3.751   0.514  0.00  0.00    +0.168 A 
ATOM     35  C   UNL     1      -1.185   3.038   0.520  0.00  0.00    +0.042 A 
BRANCH  34  36
ATOM     36  N   UNL     1       0.035   5.131   1.047  0.00  0.00    +0.060 N 
ATOM     37  O   UNL     1      -0.979   5.639   1.491  0.00  0.00    -0.126 OA
ATOM     38  O   UNL     1       1.079   5.759   1.042  0.00  0.00    -0.126 OA
ENDBRANCH  34  36
BRANCH  33  39
ATOM     39  O   UNL     1       2.319   3.871   0.001  0.00  0.00    -0.504 OA
ATOM     40  H   UNL     1       2.347   4.897   0.397  0.00  0.00    +0.292 HD
ENDBRANCH  33  39
ENDBRANCH   5  30
TORSDOF 7
