REMARK  Name = ZINC15959382
REMARK  6 active torsions:
REMARK  status: ('A' for Active; 'I' for Inactive)
REMARK    1  A    between atoms: C_4  and  C_7
REMARK    2  A    between atoms: C_7  and  C_8
REMARK    3  A    between atoms: C_8  and  N_9
REMARK    4  A    between atoms: C_14  and  C_31
REMARK    5  A    between atoms: C_31  and  C_32
REMARK    6  A    between atoms: C_35  and  O_38
REMARK                            x       y       z     vdW  Elec       q    Type
REMARK                         _______ _______ _______ _____ _____    ______ ____
ROOT
ATOM      1  N   UNL     1       5.450  -1.678   1.382  0.00  0.00    -0.241 N 
ATOM      2  C   UNL     1       5.532  -3.014   1.369  0.00  0.00    +0.227 C 
ATOM      3  O   UNL     1       4.587  -3.774   1.373  0.00  0.00    -0.275 OA
ATOM      4  C   UNL     1       6.986  -3.428   1.347  0.00  0.00    +0.107 C 
ATOM      5  C   UNL     1       7.341  -4.114   2.683  0.00  0.00    +0.072 C 
ATOM      6  N   UNL     1       7.725  -3.002   3.593  0.00  0.00    -0.295 NA
ATOM      7  C   UNL     1       8.474  -2.072   2.728  0.00  0.00    +0.136 C 
ATOM      8  C   UNL     1       7.745  -2.072   1.362  0.00  0.00    +0.122 C 
ATOM      9  C   UNL     1       6.631  -1.049   1.373  0.00  0.00    +0.228 C 
ATOM     10  O   UNL     1       6.784   0.153   1.375  0.00  0.00    -0.275 OA
ATOM     11  C   UNL     1       8.538  -0.694   3.325  0.00  0.00    +0.003 A 
ATOM     12  C   UNL     1       7.582   0.224   3.695  0.00  0.00    +0.008 A 
ATOM     13  C   UNL     1       7.962   1.441   4.233  0.00  0.00    +0.000 A 
ATOM     14  C   UNL     1       9.303   1.732   4.397  0.00  0.00    +0.002 A 
ATOM     15  C   UNL     1      10.265   0.816   4.027  0.00  0.00    +0.023 A 
ATOM     16  C   UNL     1       9.892  -0.411   3.484  0.00  0.00    +0.039 A 
ATOM     17  N   UNL     1      10.665  -1.485   3.038  0.00  0.00    -0.283 N 
ATOM     18  C   UNL     1       9.909  -2.500   2.578  0.00  0.00    +0.243 C 
ATOM     19  O   UNL     1      10.307  -3.554   2.130  0.00  0.00    -0.273 OA
ATOM     20  H   UNL     1       6.909  -2.555   3.983  0.00  0.00    +0.124 HD
ATOM     21  H   UNL     1      11.635  -1.498   3.056  0.00  0.00    +0.155 HD
ENDROOT
BRANCH   1  22
ATOM     22  C   UNL     1       4.171  -0.963   1.399  0.00  0.00    +0.121 C 
BRANCH  22  23
ATOM     23  C   UNL     1       3.711  -0.707  -0.038  0.00  0.00    +0.054 C 
BRANCH  23  27
ATOM     24  C   UNL     1      -0.017   1.378   0.010  0.00  0.00    +0.000 A 
ATOM     25  C   UNL     1       1.171   2.086   0.002  0.00  0.00    +0.000 A 
ATOM     26  C   UNL     1       2.377   1.411  -0.013  0.00  0.00    +0.004 A 
ATOM     27  C   UNL     1       2.396   0.029  -0.020  0.00  0.00    -0.046 A 
ATOM     28  C   UNL     1       1.208  -0.679  -0.012  0.00  0.00    +0.004 A 
ATOM     29  C   UNL     1       0.002  -0.004   0.002  0.00  0.00    +0.000 A 
ENDBRANCH  23  27
ENDBRANCH  22  23
ENDBRANCH   1  22
BRANCH   5  30
ATOM     30  C   UNL     1       6.126  -4.862   3.237  0.00  0.00    +0.054 C 
BRANCH  30  31
ATOM     31  C   UNL     1       6.527  -5.623   4.474  0.00  0.00    -0.046 A 
ATOM     32  C   UNL     1       6.993  -6.920   4.365  0.00  0.00    +0.007 A 
ATOM     33  C   UNL     1       7.360  -7.621   5.498  0.00  0.00    +0.045 A 
ATOM     34  C   UNL     1       7.261  -7.022   6.745  0.00  0.00    +0.117 A 
ATOM     35  C   UNL     1       6.793  -5.720   6.852  0.00  0.00    +0.045 A 
ATOM     36  C   UNL     1       6.432  -5.022   5.715  0.00  0.00    +0.007 A 
BRANCH  34  37
ATOM     37  O   UNL     1       7.621  -7.709   7.861  0.00  0.00    -0.507 OA
ATOM     38  H   UNL     1       8.551  -7.604   8.104  0.00  0.00    +0.292 HD
ENDBRANCH  34  37
ENDBRANCH  30  31
ENDBRANCH   5  30
TORSDOF 6
