REMARK  Name = ZINC01585101
REMARK  9 active torsions:
REMARK  status: ('A' for Active; 'I' for Inactive)
REMARK    1  A    between atoms: C_6  and  C_7
REMARK    2  A    between atoms: C_8  and  C_27
REMARK    3  A    between atoms: N_11  and  C_21
REMARK    4  A    between atoms: C_13  and  C_14
REMARK    5  A    between atoms: C_21  and  C_22
REMARK    6  A    between atoms: C_22  and  O_23
REMARK    7  A    between atoms: O_23  and  C_24
REMARK    8  A    between atoms: C_24  and  C_26
REMARK    9  A    between atoms: C_26  and  N_46
REMARK                            x       y       z     vdW  Elec       q    Type
REMARK                         _______ _______ _______ _____ _____    ______ ____
ROOT
ATOM      1  C   UNL     1      -0.041   1.359  -0.015  0.00  0.00    +0.032 A 
ATOM      2  C   UNL     1       0.032  -0.037  -0.165  0.00  0.00    +0.127 A 
ATOM      3  C   UNL     1       1.325  -0.628  -0.143  0.00  0.00    +0.285 A 
ATOM      4  O   UNL     1       1.446  -1.834  -0.269  0.00  0.00    -0.265 OA
ATOM      5  N   UNL     1       2.413   0.144   0.017  0.00  0.00    -0.225 N 
ATOM      6  N   UNL     1       2.354   1.417   0.154  0.00  0.00    -0.167 NA
ATOM      7  C   UNL     1       1.223   2.083   0.151  0.00  0.00    +0.100 A 
ENDROOT
BRANCH   1  13
ATOM      8  C   UNL     1      -1.646   2.943  -1.074  0.00  0.00    +0.010 A 
ATOM      9  C   UNL     1      -2.859   3.598  -1.085  0.00  0.00    +0.020 A 
ATOM     10  C   UNL     1      -3.767   3.397  -0.058  0.00  0.00    +0.041 A 
ATOM     11  C   UNL     1      -3.465   2.534   0.982  0.00  0.00    +0.020 A 
ATOM     12  C   UNL     1      -2.257   1.869   1.002  0.00  0.00    +0.010 A 
ATOM     13  C   UNL     1      -1.338   2.067  -0.030  0.00  0.00    -0.014 A 
ATOM     14 CL   UNL     1      -5.291   4.229  -0.076  0.00  0.00    -0.084 Cl
ENDBRANCH   1  13
BRANCH   7  15
ATOM     15  C   UNL     1       1.224   3.556   0.315  0.00  0.00    +0.003 A 
ATOM     16  C   UNL     1       2.246   4.321  -0.245  0.00  0.00    +0.011 A 
ATOM     17  C   UNL     1       2.240   5.693  -0.094  0.00  0.00    +0.020 A 
ATOM     18  C   UNL     1       1.226   6.308   0.620  0.00  0.00    +0.041 A 
ATOM     19  C   UNL     1       0.211   5.553   1.182  0.00  0.00    +0.020 A 
ATOM     20  C   UNL     1       0.205   4.181   1.033  0.00  0.00    +0.011 A 
ATOM     21 CL   UNL     1       1.228   8.034   0.812  0.00  0.00    -0.084 Cl
ENDBRANCH   7  15
BRANCH   2  22
ATOM     22  C   UNL     1      -1.148  -0.831  -0.333  0.00  0.00    +0.105 C 
ATOM     23  N   UNL     1      -2.083  -1.461  -0.466  0.00  0.00    -0.191 NA
ENDBRANCH   2  22
BRANCH   5  24
ATOM     24  C   UNL     1       3.729  -0.499   0.034  0.00  0.00    +0.188 C 
BRANCH  24  25
ATOM     25  C   UNL     1       4.284  -0.564  -1.390  0.00  0.00    +0.255 C 
BRANCH  25  26
ATOM     26  O   UNL     1       4.521   0.782  -1.879  0.00  0.00    -0.464 OA
BRANCH  26  27
ATOM     27  C   UNL     1       5.012   0.901  -3.123  0.00  0.00    +0.289 C 
ATOM     28  O   UNL     1       5.236  -0.087  -3.781  0.00  0.00    -0.253 OA
BRANCH  27  29
ATOM     29  C   UNL     1       5.284   2.267  -3.698  0.00  0.00    +0.036 C 
BRANCH  29  32
ATOM     30  H   UNL     1       6.003   3.031  -5.469  0.00  0.00    -0.089 HD
ATOM     31  H   UNL     1       6.636   1.545  -5.072  0.00  0.00    -0.089 HD
ATOM     32  N   UNL     1       5.793   2.117  -5.072  0.00  0.00    +0.385 N 
ATOM     33  H   UNL     1       5.078   1.658  -5.649  0.00  0.00    -0.089 HD
ENDBRANCH  29  32
ENDBRANCH  27  29
ENDBRANCH  26  27
ENDBRANCH  25  26
ENDBRANCH  24  25
ENDBRANCH   5  24
TORSDOF 9
