REMARK  Name = ZINC00650447
REMARK  7 active torsions:
REMARK  status: ('A' for Active; 'I' for Inactive)
REMARK    1  A    between atoms: C_1  and  C_2
REMARK    2  A    between atoms: C_2  and  C_3
REMARK    3  A    between atoms: C_10  and  C_14
REMARK    4  A    between atoms: C_17  and  C_33
REMARK    5  A    between atoms: N_19  and  C_27
REMARK    6  A    between atoms: C_22  and  N_26
REMARK    7  A    between atoms: C_23  and  C_24
REMARK                            x       y       z     vdW  Elec       q    Type
REMARK                         _______ _______ _______ _____ _____    ______ ____
ROOT
ATOM      1  C   UNL     1       1.206   3.571   0.009  0.00  0.00    +0.104 C 
ATOM      2  C   UNL     1       0.505   4.087   1.240  0.00  0.00    +0.050 A 
ATOM      3  C   UNL     1       0.919   4.061   2.564  0.00  0.00    +0.068 A 
ATOM      4  N   UNL     1      -0.013   4.622   3.297  0.00  0.00    -0.168 NA
ATOM      5  N   UNL     1      -1.060   5.026   2.454  0.00  0.00    -0.200 N 
ATOM      6  C   UNL     1      -0.723   4.688   1.190  0.00  0.00    +0.230 A 
ATOM      7  O   UNL     1      -1.404   4.870   0.032  0.00  0.00    -0.423 OA
ATOM      8  C   UNL     1      -0.731   4.691  -1.123  0.00  0.00    +0.200 C 
ATOM      9  C   UNL     1       0.481   4.100  -1.203  0.00  0.00    +0.098 C 
ATOM     10  C   UNL     1       2.216   3.488   3.072  0.00  0.00    +0.068 C 
ENDROOT
BRANCH   1  18
ATOM     11  C   UNL     1      -1.127  -2.111   0.002  0.00  0.00    -0.047 A 
ATOM     12  C   UNL     1       0.099  -2.773  -0.014  0.00  0.00    +0.006 A 
ATOM     13  C   UNL     1       1.271  -2.080  -0.021  0.00  0.00    +0.028 A 
ATOM     14  C   UNL     1       1.250  -0.675  -0.013  0.00  0.00    +0.073 A 
ATOM     15  C   UNL     1       0.002  -0.004   0.002  0.00  0.00    +0.001 A 
ATOM     16  C   UNL     1      -1.187  -0.751   0.010  0.00  0.00    +0.013 A 
ATOM     17  C   UNL     1      -0.017   1.403   0.010  0.00  0.00    +0.017 A 
ATOM     18  C   UNL     1       1.178   2.065   0.002  0.00  0.00    +0.003 A 
ATOM     19  C   UNL     1       2.372   1.344  -0.013  0.00  0.00    +0.134 A 
ATOM     20  N   UNL     1       2.385   0.032  -0.020  0.00  0.00    -0.235 NA
ATOM     21 CL   UNL     1       3.879   2.205  -0.022  0.00  0.00    -0.062 Cl
BRANCH  11  23
ATOM     22  C   UNL     1      -2.822  -3.191   1.454  0.00  0.00    +0.009 C 
ATOM     23  C   UNL     1      -2.404  -2.912   0.009  0.00  0.00    +0.032 C 
ENDBRANCH  11  23
ENDBRANCH   1  18
BRANCH   5  24
ATOM     24  C   UNL     1      -2.243   5.664   2.851  0.00  0.00    +0.069 A 
ATOM     25  C   UNL     1      -2.826   6.621   2.031  0.00  0.00    +0.028 A 
ATOM     26  C   UNL     1      -3.995   7.244   2.422  0.00  0.00    +0.002 A 
ATOM     27  C   UNL     1      -4.578   6.924   3.635  0.00  0.00    +0.000 A 
ATOM     28  C   UNL     1      -3.997   5.976   4.456  0.00  0.00    +0.002 A 
ATOM     29  C   UNL     1      -2.831   5.345   4.067  0.00  0.00    +0.028 A 
ENDBRANCH   5  24
BRANCH   8  30
ATOM     30  N   UNL     1      -1.311   5.136  -2.285  0.00  0.00    -0.328 N 
ATOM     31  H   UNL     1      -0.851   5.023  -3.131  0.00  0.00    +0.145 HD
ATOM     32  H   UNL     1      -2.181   5.565  -2.259  0.00  0.00    +0.145 HD
ENDBRANCH   8  30
BRANCH   9  33
ATOM     33  C   UNL     1       1.102   3.971  -2.488  0.00  0.00    +0.101 C 
ATOM     34  N   UNL     1       1.594   3.869  -3.506  0.00  0.00    -0.191 NA
ENDBRANCH   9  33
TORSDOF 5
