REMARK  Name = ZINC02262298
REMARK  9 active torsions:
REMARK  status: ('A' for Active; 'I' for Inactive)
REMARK    1  A    between atoms: C_1  and  C_2
REMARK    2  A    between atoms: C_2  and  O_3
REMARK    3  A    between atoms: O_3  and  C_4
REMARK    4  A    between atoms: C_4  and  C_6
REMARK    5  A    between atoms: C_7  and  N_17
REMARK    6  A    between atoms: C_18  and  C_20
REMARK    7  A    between atoms: C_20  and  C_21
REMARK    8  A    between atoms: C_21  and  N_22
REMARK    9  A    between atoms: C_26  and  C_29
REMARK                            x       y       z     vdW  Elec       q    Type
REMARK                         _______ _______ _______ _____ _____    ______ ____
ROOT
ATOM      1  C   UNL     1       2.849  -3.473  -3.210  0.00  0.00    +0.147 A 
ATOM      2  C   UNL     1       1.539  -3.698  -2.841  0.00  0.00    +0.073 A 
ATOM      3  C   UNL     1       0.767  -2.546  -3.312  0.00  0.00    +0.023 A 
ATOM      4  C   UNL     1      -0.586  -2.199  -3.242  0.00  0.00    +0.027 A 
ATOM      5  C   UNL     1      -1.015  -1.024  -3.791  0.00  0.00    +0.019 A 
ATOM      6  C   UNL     1      -0.118  -0.170  -4.419  0.00  0.00    +0.017 A 
ATOM      7  C   UNL     1       1.219  -0.490  -4.500  0.00  0.00    +0.027 A 
ATOM      8  C   UNL     1       1.680  -1.683  -3.947  0.00  0.00    +0.049 A 
ATOM      9  N   UNL     1       2.929  -2.256  -3.871  0.00  0.00    -0.348 N 
ATOM     10  H   UNL     1       3.743  -1.868  -4.227  0.00  0.00    +0.166 HD
ATOM     11 BR   UNL     1      -2.845  -0.558  -3.695  0.00  0.00    -0.050 Br
ENDROOT
BRANCH   2  12
ATOM     12  N   UNL     1       1.047  -4.803  -2.155  0.00  0.00    -0.283 N 
ATOM     13  C   UNL     1       0.013  -4.662  -1.302  0.00  0.00    +0.215 C 
ATOM     14  O   UNL     1      -0.543  -3.589  -1.196  0.00  0.00    -0.276 OA
ATOM     15  H   UNL     1       1.447  -5.676  -2.291  0.00  0.00    +0.155 HD
BRANCH  13  16
ATOM     16  C   UNL     1      -0.450  -5.835  -0.478  0.00  0.00    +0.077 C 
BRANCH  16  17
ATOM     17  C   UNL     1      -1.628  -5.409   0.401  0.00  0.00    -0.070 C 
BRANCH  17  18
ATOM     18  N   UNL     1      -2.080  -6.553   1.204  0.00  0.00    +0.380 N 
ATOM     19  C   UNL     1      -1.014  -6.948   2.133  0.00  0.00    -0.079 C 
ATOM     20  C   UNL     1      -1.448  -8.190   2.914  0.00  0.00    -0.018 C 
ATOM     21  C   UNL     1      -2.722  -7.870   3.702  0.00  0.00    -0.001 C 
ATOM     22  C   UNL     1      -3.804  -7.388   2.731  0.00  0.00    -0.031 C 
ATOM     23  C   UNL     1      -3.282  -6.176   1.956  0.00  0.00    -0.076 C 
ATOM     24  C   UNL     1      -5.056  -6.993   3.516  0.00  0.00    +0.005 C 
ATOM     25  H   UNL     1      -2.295  -7.327   0.593  0.00  0.00    -0.082 HD
ENDBRANCH  17  18
ENDBRANCH  16  17
ENDBRANCH  13  16
ENDBRANCH   2  12
BRANCH   1  26
ATOM     26  C   UNL     1       3.939  -4.342  -2.950  0.00  0.00    +0.358 C 
ATOM     27  O   UNL     1       3.774  -5.340  -2.273  0.00  0.00    -0.243 OA
BRANCH  26  28
ATOM     28  O   UNL     1       5.160  -4.063  -3.454  0.00  0.00    -0.460 OA
BRANCH  28  30
ATOM     29  C   UNL     1       7.510  -4.503  -3.804  0.00  0.00    +0.048 C 
ATOM     30  C   UNL     1       6.212  -4.982  -3.152  0.00  0.00    +0.229 C 
ENDBRANCH  28  30
ENDBRANCH  26  28
ENDBRANCH   1  26
TORSDOF 7
