REMARK  Name = ZINC39665334
REMARK  10 active torsions:
REMARK  status: ('A' for Active; 'I' for Inactive)
REMARK    1  A    between atoms: C_1  and  C_2
REMARK    2  A    between atoms: C_4  and  C_7
REMARK    3  A    between atoms: C_8  and  C_13
REMARK    4  A    between atoms: C_9  and  C_12
REMARK    5  A    between atoms: C_17  and  C_26
REMARK    6  A    between atoms: N_28  and  C_29
REMARK    7  A    between atoms: C_29  and  C_30
REMARK    8  A    between atoms: C_30  and  C_32
REMARK    9  A    between atoms: C_30  and  O_33
REMARK   10  A    between atoms: O_33  and  C_34
REMARK                            x       y       z     vdW  Elec       q    Type
REMARK                         _______ _______ _______ _____ _____    ______ ____
ROOT
ATOM      1  C   UNL     1       0.307  -5.119  -0.018  0.00  0.00    +0.252 C 
ATOM      2  O   UNL     1       0.883  -5.300   1.037  0.00  0.00    -0.270 OA
ATOM      3  N   UNL     1       0.955  -5.321  -1.183  0.00  0.00    -0.296 N 
ATOM      4  C   UNL     1       0.428  -5.148  -2.557  0.00  0.00    +0.121 C 
ATOM      5  C   UNL     1       1.598  -4.523  -3.349  0.00  0.00    +0.100 C 
ATOM      6  C   UNL     1       2.860  -4.934  -2.571  0.00  0.00    -0.004 C 
ATOM      7  C   UNL     1       2.357  -5.759  -1.378  0.00  0.00    +0.115 C 
ATOM      8  C   UNL     1       3.773  -5.780  -3.454  0.00  0.00    -0.010 C 
ATOM      9  C   UNL     1       5.047  -6.127  -2.678  0.00  0.00    -0.082 C 
ATOM     10  N   UNL     1       5.730  -4.891  -2.277  0.00  0.00    +0.379 N 
ATOM     11  C   UNL     1       4.882  -4.127  -1.355  0.00  0.00    -0.082 C 
ATOM     12  C   UNL     1       3.600  -3.695  -2.074  0.00  0.00    -0.010 C 
ATOM     13  H   UNL     1       6.599  -5.122  -1.820  0.00  0.00    -0.086 HD
ATOM     14  H   UNL     1       5.921  -4.333  -3.096  0.00  0.00    -0.086 HD
ENDROOT
BRANCH   1  16
ATOM     15  C   UNL     1      -1.550  -3.367  -0.027  0.00  0.00    +0.201 A 
ATOM     16  C   UNL     1      -1.099  -4.679  -0.024  0.00  0.00    +0.108 A 
ATOM     17  C   UNL     1      -2.241  -5.517  -0.029  0.00  0.00    +0.093 A 
ATOM     18  N   UNL     1      -3.298  -4.761  -0.034  0.00  0.00    -0.082 NA
ATOM     19  O   UNL     1      -2.893  -3.406  -0.027  0.00  0.00    -0.352 OA
ATOM     20  C   UNL     1      -2.232  -7.024  -0.029  0.00  0.00    +0.070 C 
BRANCH  15  24
ATOM     21  C   UNL     1      -0.141   1.507  -0.013  0.00  0.00    +0.089 C 
ATOM     22  C   UNL     1      -0.105   0.001  -0.016  0.00  0.00    +0.135 A 
ATOM     23  C   UNL     1      -1.175  -0.813  -0.020  0.00  0.00    +0.079 A 
ATOM     24  C   UNL     1      -0.709  -2.151  -0.023  0.00  0.00    +0.152 A 
ATOM     25  N   UNL     1       0.603  -2.118  -0.021  0.00  0.00    -0.075 NA
ATOM     26  O   UNL     1       1.001  -0.759  -0.022  0.00  0.00    -0.359 OA
ENDBRANCH  15  24
ENDBRANCH   1  16
BRANCH   5  27
ATOM     27  C   UNL     1       1.639  -5.077  -4.750  0.00  0.00    +0.218 C 
ATOM     28  O   UNL     1       1.322  -6.229  -4.956  0.00  0.00    -0.275 OA
ATOM     29  N   UNL     1       2.028  -4.291  -5.773  0.00  0.00    -0.312 N 
ATOM     30  H   UNL     1       2.281  -3.369  -5.609  0.00  0.00    +0.149 HD
BRANCH  29  31
ATOM     31  C   UNL     1       2.067  -4.829  -7.136  0.00  0.00    +0.148 C 
BRANCH  31  32
ATOM     32  C   UNL     1       2.539  -3.740  -8.101  0.00  0.00    +0.187 C 
ATOM     33  C   UNL     1       2.580  -4.302  -9.523  0.00  0.00    +0.053 C 
BRANCH  32  34
ATOM     34  O   UNL     1       1.633  -2.635  -8.051  0.00  0.00    -0.488 OA
BRANCH  34  35
ATOM     35  C   UNL     1       2.125  -1.418  -8.405  0.00  0.00    +0.121 A 
ATOM     36  C   UNL     1       1.339  -0.284  -8.265  0.00  0.00    +0.045 A 
ATOM     37  C   UNL     1       1.841   0.952  -8.624  0.00  0.00    +0.004 A 
ATOM     38  C   UNL     1       3.125   1.058  -9.124  0.00  0.00    +0.000 A 
ATOM     39  C   UNL     1       3.911  -0.071  -9.264  0.00  0.00    +0.004 A 
ATOM     40  C   UNL     1       3.416  -1.308  -8.900  0.00  0.00    +0.045 A 
ENDBRANCH  34  35
ENDBRANCH  32  34
ENDBRANCH  31  32
ENDBRANCH  29  31
ENDBRANCH   5  27
TORSDOF 7
