REMARK  Name = ZINC09092520
REMARK  8 active torsions:
REMARK  status: ('A' for Active; 'I' for Inactive)
REMARK    1  A    between atoms: C_1  and  N_2
REMARK    2  A    between atoms: N_2  and  C_20
REMARK    3  A    between atoms: C_3  and  C_5
REMARK    4  A    between atoms: C_5  and  S_6
REMARK    5  A    between atoms: S_6  and  C_7
REMARK    6  A    between atoms: C_10  and  C_13
REMARK    7  A    between atoms: N_11  and  N_12
REMARK    8  A    between atoms: C_20  and  C_26
REMARK                            x       y       z     vdW  Elec       q    Type
REMARK                         _______ _______ _______ _____ _____    ______ ____
ROOT
ATOM      1  C   UNL     1       0.117   0.062  -5.213  0.00  0.00    +0.209 A 
ATOM      2  N   UNL     1       0.074   1.374  -5.147  0.00  0.00    -0.121 NA
ATOM      3  N   UNL     1      -0.149   1.867  -6.313  0.00  0.00    -0.127 NA
ATOM      4  C   UNL     1      -0.273   0.900  -7.192  0.00  0.00    +0.183 A 
ATOM      5  N   UNL     1      -0.107  -0.286  -6.514  0.00  0.00    -0.224 N 
ENDROOT
BRANCH   4   6
ATOM      6  C   UNL     1      -0.541   1.056  -8.637  0.00  0.00    +0.035 A 
ATOM      7  C   UNL     1      -1.528   0.285  -9.254  0.00  0.00    +0.013 A 
ATOM      8  C   UNL     1      -1.774   0.435 -10.603  0.00  0.00    +0.001 A 
ATOM      9  C   UNL     1      -1.044   1.348 -11.345  0.00  0.00    +0.001 A 
ATOM     10  C   UNL     1      -0.065   2.115 -10.741  0.00  0.00    +0.016 A 
ATOM     11  C   UNL     1       0.188   1.978  -9.390  0.00  0.00    +0.029 A 
ATOM     12 BR   UNL     1       1.521   3.034  -8.564  0.00  0.00    -0.050 Br
ENDBRANCH   4   6
BRANCH   5  13
ATOM     13  N   UNL     1      -0.155  -1.548  -7.035  0.00  0.00    -0.295 N 
ATOM     14  H   UNL     1      -1.106  -1.883  -7.083  0.00  0.00    +0.163 HD
ATOM     15  H   UNL     1       0.287  -1.583  -7.941  0.00  0.00    +0.163 HD
ENDBRANCH   5  13
BRANCH   1  16
ATOM     16  S   UNL     1       0.401  -1.043  -3.870  0.00  0.00    -0.075 S 
BRANCH  16  17
ATOM     17  C   UNL     1       0.602   0.147  -2.521  0.00  0.00    +0.173 C 
BRANCH  17  20
ATOM     18  C   UNL     1       0.990   1.558  -0.094  0.00  0.00    +0.133 C 
ATOM     19  N   UNL     1       1.044   0.094  -0.088  0.00  0.00    -0.285 N 
ATOM     20  C   UNL     1       0.862  -0.592  -1.234  0.00  0.00    +0.227 C 
ATOM     21  O   UNL     1       0.907  -1.804  -1.229  0.00  0.00    -0.275 OA
BRANCH  19  22
ATOM     22  C   UNL     1       1.298  -0.624   1.164  0.00  0.00    +0.123 C 
ATOM     23  C   UNL     1       0.117  -1.548   1.470  0.00  0.00    +0.041 C 
ATOM     24  C   UNL     1       0.381  -2.298   2.777  0.00  0.00    +0.003 C 
ATOM     25  C   UNL     1       0.551  -1.292   3.917  0.00  0.00    +0.000 C 
ATOM     26  C   UNL     1       1.732  -0.369   3.611  0.00  0.00    +0.003 C 
ATOM     27  C   UNL     1       1.468   0.382   2.304  0.00  0.00    +0.041 C 
BRANCH  22  28
ATOM     28  C   UNL     1       2.525  -1.426   1.030  0.00  0.00    +0.089 C 
ATOM     29  N   UNL     1       3.473  -2.044   0.926  0.00  0.00    -0.194 NA
ENDBRANCH  22  28
ENDBRANCH  19  22
ENDBRANCH  17  20
ENDBRANCH  16  17
ENDBRANCH   1  16
TORSDOF 7
