REMARK  Name = ZINC03764554
REMARK  11 active torsions:
REMARK  status: ('A' for Active; 'I' for Inactive)
REMARK    1  A    between atoms: C_1  and  C_2
REMARK    2  A    between atoms: C_7  and  O_8
REMARK    3  A    between atoms: O_8  and  C_9
REMARK    4  A    between atoms: C_9  and  C_10
REMARK    5  A    between atoms: N_12  and  C_13
REMARK    6  A    between atoms: C_13  and  C_15
REMARK    7  A    between atoms: C_13  and  C_16
REMARK    8  A    between atoms: N_18  and  N_19
REMARK    9  A    between atoms: C_20  and  C_21
REMARK   10  A    between atoms: C_24  and  C_26
REMARK   11  A    between atoms: C_29  and  N_33
REMARK                            x       y       z     vdW  Elec       q    Type
REMARK                         _______ _______ _______ _____ _____    ______ ____
ROOT
ATOM      1  C   UNL     1       8.334   1.843  -0.668  0.00  0.00    +0.252 C 
ATOM      2  O   UNL     1       8.197   2.982  -1.049  0.00  0.00    -0.272 OA
ATOM      3  N   UNL     1       9.529   1.232  -0.787  0.00  0.00    -0.205 N 
ATOM      4  H   UNL     1       9.639   0.317  -0.481  0.00  0.00    +0.177 HD
ENDROOT
BRANCH   1   5
ATOM      5  C   UNL     1       7.168   1.107  -0.060  0.00  0.00    +0.158 C 
ATOM      6  C   UNL     1       7.516   0.694   1.371  0.00  0.00    +0.038 C 
BRANCH   5   9
ATOM      7  C   UNL     1       4.755   1.448  -0.035  0.00  0.00    +0.251 C 
ATOM      8  O   UNL     1       4.614   0.243  -0.041  0.00  0.00    -0.272 OA
ATOM      9  N   UNL     1       5.993   1.982  -0.044  0.00  0.00    -0.301 N 
ATOM     10  H   UNL     1       6.105   2.945  -0.040  0.00  0.00    +0.150 HD
BRANCH   7  11
ATOM     11  C   UNL     1       3.546   2.348  -0.019  0.00  0.00    +0.324 C 
BRANCH  11  12
ATOM     12  O   UNL     1       2.360   1.552  -0.012  0.00  0.00    -0.483 OA
BRANCH  12  19
ATOM     13  C   UNL     1       0.002  -0.004   0.002  0.00  0.00    +0.047 C 
ATOM     14  C   UNL     1      -0.018   1.503   0.010  0.00  0.00    -0.009 A 
ATOM     15  C   UNL     1      -1.224   2.178   0.020  0.00  0.00    +0.007 A 
ATOM     16  C   UNL     1      -1.243   3.560   0.032  0.00  0.00    +0.000 A 
ATOM     17  C   UNL     1      -0.057   4.271   0.025  0.00  0.00    +0.004 A 
ATOM     18  C   UNL     1       1.151   3.600   0.010  0.00  0.00    +0.046 A 
ATOM     19  C   UNL     1       1.173   2.213   0.003  0.00  0.00    +0.124 A 
ENDBRANCH  12  19
ENDBRANCH  11  12
ENDBRANCH   7  11
ENDBRANCH   5   9
ENDBRANCH   1   5
BRANCH   3  20
ATOM     20  N   UNL     1      10.527   1.862  -1.307  0.00  0.00    -0.185 NA
ATOM     21  C   UNL     1      11.704   1.259  -1.424  0.00  0.00    +0.176 C 
BRANCH  21  22
ATOM     22  C   UNL     1      12.779   1.938  -1.984  0.00  0.00    +0.148 A 
ATOM     23  C   UNL     1      14.134   1.401  -2.170  0.00  0.00    +0.051 A 
ATOM     24  C   UNL     1      14.866   2.385  -2.751  0.00  0.00    +0.050 A 
ATOM     25  C   UNL     1      13.976   3.533  -2.917  0.00  0.00    +0.137 A 
ATOM     26  O   UNL     1      12.759   3.205  -2.446  0.00  0.00    -0.454 OA
BRANCH  25  27
ATOM     27  C   UNL     1      14.334   4.782  -3.481  0.00  0.00    +0.037 A 
ATOM     28  C   UNL     1      15.482   5.461  -3.029  0.00  0.00    +0.035 A 
ATOM     29  C   UNL     1      15.824   6.662  -3.582  0.00  0.00    +0.072 A 
ATOM     30  C   UNL     1      15.039   7.225  -4.581  0.00  0.00    +0.146 A 
ATOM     31  C   UNL     1      13.903   6.574  -5.034  0.00  0.00    +0.055 A 
ATOM     32  C   UNL     1      13.541   5.357  -4.495  0.00  0.00    +0.054 A 
ATOM     33 CL   UNL     1      12.118   4.540  -5.061  0.00  0.00    -0.083 Cl
ATOM     34 CL   UNL     1      17.243   7.494  -3.028  0.00  0.00    -0.081 Cl
BRANCH  30  35
ATOM     35  N   UNL     1      15.420   8.530  -5.166  0.00  0.00    +0.058 N 
ATOM     36  O   UNL     1      14.680   9.068  -6.113  0.00  0.00    -0.126 OA
ATOM     37  O   UNL     1      16.498   9.153  -4.739  0.00  0.00    -0.126 OA
ENDBRANCH  30  35
ENDBRANCH  25  27
ENDBRANCH  21  22
ENDBRANCH   3  20
TORSDOF 9
