REMARK  Name = ZINC27332755
REMARK  8 active torsions:
REMARK  status: ('A' for Active; 'I' for Inactive)
REMARK    1  A    between atoms: C_9  and  S_11
REMARK    2  A    between atoms: S_11  and  C_12
REMARK    3  A    between atoms: C_12  and  C_13
REMARK    4  A    between atoms: C_16  and  C_19
REMARK    5  A    between atoms: N_21  and  C_22
REMARK    6  A    between atoms: C_22  and  C_23
REMARK    7  A    between atoms: C_23  and  C_25
REMARK    8  A    between atoms: C_23  and  N_30
REMARK                            x       y       z     vdW  Elec       q    Type
REMARK                         _______ _______ _______ _____ _____    ______ ____
ROOT
ATOM      1  C   UNL     1       6.770   4.450   0.033  0.00  0.00    -0.037 A 
ATOM      2  C   UNL     1       7.478   4.559   1.217  0.00  0.00    +0.005 A 
ATOM      3  C   UNL     1       8.803   4.943   1.199  0.00  0.00    +0.013 A 
ATOM      4  C   UNL     1       9.427   5.231  -0.016  0.00  0.00    +0.037 A 
ATOM      5  C   UNL     1       8.705   5.125  -1.206  0.00  0.00    +0.013 A 
ATOM      6  C   UNL     1       7.382   4.734  -1.175  0.00  0.00    +0.005 A 
ENDROOT
BRANCH   4   7
ATOM      7  C   UNL     1      10.845   5.648  -0.043  0.00  0.00    +0.244 C 
ATOM      8  O   UNL     1      11.385   5.899  -1.102  0.00  0.00    -0.270 OA
ATOM      9  N   UNL     1      11.538   5.751   1.109  0.00  0.00    -0.312 N 
ATOM     10  H   UNL     1      11.049   5.524   2.067  0.00  0.00    +0.149 HD
BRANCH   9  11
ATOM     11  C   UNL     1      12.944   6.164   1.083  0.00  0.00    +0.097 C 
BRANCH  11  12
ATOM     12  C   UNL     1      13.458   6.314   2.516  0.00  0.00    +0.016 C 
BRANCH  12  13
ATOM     13  N   UNL     1      14.825   6.851   2.492  0.00  0.00    +0.387 N 
ATOM     14  C   UNL     1      14.864   8.175   1.821  0.00  0.00    -0.078 C 
ATOM     15  C   UNL     1      16.185   8.797   2.341  0.00  0.00    -0.020 C 
ATOM     16  C   UNL     1      16.235   8.323   3.811  0.00  0.00    -0.020 C 
ATOM     17  C   UNL     1      15.329   7.079   3.864  0.00  0.00    -0.078 C 
ATOM     18  H   UNL     1      15.431   6.104   1.959  0.00  0.00    -0.081 HD
ENDBRANCH  12  13
BRANCH  12  19
ATOM     19  C   UNL     1      13.459   4.967   3.192  0.00  0.00    +0.093 A 
ATOM     20  C   UNL     1      12.523   4.514   4.046  0.00  0.00    +0.043 A 
ATOM     21  C   UNL     1      12.919   3.214   4.435  0.00  0.00    +0.041 A 
ATOM     22  C   UNL     1      14.073   2.950   3.797  0.00  0.00    +0.195 A 
ATOM     23  O   UNL     1      14.392   4.013   3.041  0.00  0.00    -0.469 OA
ENDBRANCH  12  19
ENDBRANCH  11  12
ENDBRANCH   9  11
ENDBRANCH   4   7
BRANCH   1  24
ATOM     24  C   UNL     1       5.325   4.025   0.059  0.00  0.00    +0.112 C 
BRANCH  24  25
ATOM     25  S   UNL     1       5.223   2.223  -0.073  0.00  0.00    -0.083 S 
BRANCH  25  34
ATOM     26  C   UNL     1      -0.914   0.852   0.068  0.00  0.00    +0.002 A 
ATOM     27  C   UNL     1      -1.042   2.228   0.183  0.00  0.00    +0.002 A 
ATOM     28  C   UNL     1       0.073   3.035   0.199  0.00  0.00    +0.030 A 
ATOM     29  C   UNL     1       1.345   2.464   0.103  0.00  0.00    +0.090 A 
ATOM     30  C   UNL     1       1.469   1.069  -0.007  0.00  0.00    +0.067 A 
ATOM     31  C   UNL     1       0.335   0.272  -0.021  0.00  0.00    +0.028 A 
ATOM     32  N   UNL     1       2.828   0.808  -0.082  0.00  0.00    -0.333 N 
ATOM     33  H   UNL     1       3.184  -0.228  -0.175  0.00  0.00    +0.168 HD
ATOM     34  C   UNL     1       3.475   2.010  -0.018  0.00  0.00    +0.168 A 
ATOM     35  N   UNL     1       2.601   2.980   0.091  0.00  0.00    -0.222 NA
ENDBRANCH  25  34
ENDBRANCH  24  25
ENDBRANCH   1  24
TORSDOF 8
