REMARK  Name = ZINC16489861
REMARK  10 active torsions:
REMARK  status: ('A' for Active; 'I' for Inactive)
REMARK    1  A    between atoms: C_4  and  N_7
REMARK    2  A    between atoms: N_7  and  C_8
REMARK    3  A    between atoms: C_8  and  N_10
REMARK    4  A    between atoms: N_10  and  C_11
REMARK    5  A    between atoms: C_14  and  C_17
REMARK    6  A    between atoms: C_17  and  C_18
REMARK    7  A    between atoms: C_21  and  N_24
REMARK    8  A    between atoms: N_24  and  C_25
REMARK    9  A    between atoms: C_25  and  N_27
REMARK   10  A    between atoms: N_27  and  C_28
REMARK                            x       y       z     vdW  Elec       q    Type
REMARK                         _______ _______ _______ _____ _____    ______ ____
ROOT
ATOM      1  C   UNL     1       5.431   3.412  -2.959  0.00  0.00    +0.007 C 
ENDROOT
BRANCH   1   5
ATOM      2  C   UNL     1       1.206   3.413  -2.022  0.00  0.00    +0.072 C 
ATOM      3  C   UNL     1       1.625   3.689  -3.468  0.00  0.00    +0.022 C 
ATOM      4  C   UNL     1       3.095   4.111  -3.501  0.00  0.00    +0.005 C 
ATOM      5  C   UNL     1       3.961   2.990  -2.925  0.00  0.00    -0.011 C 
ATOM      6  C   UNL     1       3.543   2.713  -1.480  0.00  0.00    +0.005 C 
ATOM      7  C   UNL     1       2.072   2.291  -1.446  0.00  0.00    +0.022 C 
BRANCH   2   8
ATOM      8  N   UNL     1      -0.202   3.009  -1.990  0.00  0.00    -0.323 N 
ATOM      9  H   UNL     1      -0.467   1.941  -1.990  0.00  0.00    +0.148 HD
BRANCH   8  10
ATOM     10  C   UNL     1      -1.171   3.944  -1.961  0.00  0.00    +0.135 C 
ATOM     11  S   UNL     1      -0.757   5.606  -1.955  0.00  0.00    -0.019 S 
BRANCH  10  12
ATOM     12  N   UNL     1      -2.466   3.572  -1.937  0.00  0.00    -0.297 N 
ATOM     13  H   UNL     1      -2.732   2.510  -1.838  0.00  0.00    +0.154 HD
BRANCH  12  17
ATOM     14  C   UNL     1      -5.465   6.448  -2.240  0.00  0.00    +0.000 A 
ATOM     15  C   UNL     1      -4.313   6.571  -2.994  0.00  0.00    +0.002 A 
ATOM     16  C   UNL     1      -3.317   5.619  -2.896  0.00  0.00    +0.023 A 
ATOM     17  C   UNL     1      -3.473   4.538  -2.039  0.00  0.00    +0.033 A 
ATOM     18  C   UNL     1      -4.634   4.415  -1.286  0.00  0.00    +0.023 A 
ATOM     19  C   UNL     1      -5.624   5.372  -1.385  0.00  0.00    +0.002 A 
ENDBRANCH  12  17
ENDBRANCH  10  12
ENDBRANCH   8  10
ENDBRANCH   2   8
ENDBRANCH   1   5
BRANCH   1  20
ATOM     20  C   UNL     1       5.884   3.567  -4.412  0.00  0.00    -0.011 C 
ATOM     21  C   UNL     1       5.838   2.206  -5.109  0.00  0.00    +0.005 C 
ATOM     22  C   UNL     1       6.291   2.361  -6.562  0.00  0.00    +0.022 C 
ATOM     23  C   UNL     1       7.721   2.903  -6.595  0.00  0.00    +0.072 C 
ATOM     24  C   UNL     1       7.768   4.264  -5.898  0.00  0.00    +0.022 C 
ATOM     25  C   UNL     1       7.315   4.109  -4.445  0.00  0.00    +0.005 C 
BRANCH  23  26
ATOM     26  N   UNL     1       8.613   1.969  -5.903  0.00  0.00    -0.323 N 
ATOM     27  H   UNL     1       8.858   2.127  -4.842  0.00  0.00    +0.148 HD
BRANCH  26  28
ATOM     28  C   UNL     1       9.134   0.918  -6.566  0.00  0.00    +0.135 C 
ATOM     29  S   UNL     1       8.753   0.673  -8.216  0.00  0.00    -0.019 S 
BRANCH  28  30
ATOM     30  N   UNL     1       9.954   0.059  -5.929  0.00  0.00    -0.297 N 
ATOM     31  H   UNL     1      10.259   0.257  -4.890  0.00  0.00    +0.154 HD
BRANCH  30  32
ATOM     32  C   UNL     1      10.419  -1.084  -6.588  0.00  0.00    +0.033 A 
ATOM     33  C   UNL     1      10.407  -2.313  -5.941  0.00  0.00    +0.023 A 
ATOM     34  C   UNL     1      10.862  -3.441  -6.597  0.00  0.00    +0.002 A 
ATOM     35  C   UNL     1      11.338  -3.345  -7.891  0.00  0.00    +0.000 A 
ATOM     36  C   UNL     1      11.355  -2.122  -8.536  0.00  0.00    +0.002 A 
ATOM     37  C   UNL     1      10.897  -0.992  -7.888  0.00  0.00    +0.023 A 
ENDBRANCH  30  32
ENDBRANCH  28  30
ENDBRANCH  26  28
ENDBRANCH  23  26
ENDBRANCH   1  20
TORSDOF 10
