REMARK  Name = ZINC39529965
REMARK  8 active torsions:
REMARK  status: ('A' for Active; 'I' for Inactive)
REMARK    1  A    between atoms: C_1  and  S_2
REMARK    2  A    between atoms: S_2  and  C_3
REMARK    3  A    between atoms: C_6  and  N_16
REMARK    4  A    between atoms: C_7  and  C_9
REMARK    5  A    between atoms: C_14  and  O_15
REMARK    6  A    between atoms: C_20  and  S_23
REMARK    7  A    between atoms: S_23  and  O_26
REMARK    8  A    between atoms: O_26  and  C_27
REMARK                            x       y       z     vdW  Elec       q    Type
REMARK                         _______ _______ _______ _____ _____    ______ ____
ROOT
ATOM      1  N   UNL     1      -5.746  -1.494   0.049  0.00  0.00    -0.331 N 
ATOM      2  C   UNL     1      -6.469  -1.678   1.317  0.00  0.00    +0.086 C 
ATOM      3  C   UNL     1      -7.759  -0.853   1.264  0.00  0.00    -0.061 C 
ATOM      4  N   UNL     1      -8.527  -1.223   0.069  0.00  0.00    +0.398 N 
ATOM      5  C   UNL     1      -7.777  -0.861  -1.140  0.00  0.00    +0.133 C 
ATOM      6  C   UNL     1      -6.489  -1.681  -1.207  0.00  0.00    +0.115 C 
ATOM      7  H   UNL     1      -8.695  -2.218   0.074  0.00  0.00    -0.083 HD
ATOM      8  H   UNL     1      -9.411  -0.735   0.074  0.00  0.00    -0.083 HD
ENDROOT
BRANCH   1  12
ATOM      9  C   UNL     1      -1.702  -0.454   0.016  0.00  0.00    +0.008 A 
ATOM     10  C   UNL     1      -2.680   0.534   0.025  0.00  0.00    +0.016 A 
ATOM     11  C   UNL     1      -4.017   0.189   0.036  0.00  0.00    +0.025 A 
ATOM     12  C   UNL     1      -4.391  -1.147   0.037  0.00  0.00    +0.038 A 
ATOM     13  C   UNL     1      -3.411  -2.146   0.028  0.00  0.00    +0.008 A 
ATOM     14  C   UNL     1      -2.064  -1.792   0.012  0.00  0.00    +0.025 A 
BRANCH  13  15
ATOM     15  C   UNL     1      -3.805  -3.575   0.030  0.00  0.00    +0.025 A 
ATOM     16  C   UNL     1      -3.496  -4.384   1.121  0.00  0.00    +0.012 A 
ATOM     17  C   UNL     1      -3.866  -5.714   1.119  0.00  0.00    +0.001 A 
ATOM     18  C   UNL     1      -4.542  -6.247   0.036  0.00  0.00    +0.004 A 
ATOM     19  C   UNL     1      -4.854  -5.453  -1.052  0.00  0.00    +0.046 A 
ATOM     20  C   UNL     1      -4.494  -4.115  -1.060  0.00  0.00    +0.125 A 
BRANCH  20  21
ATOM     21  O   UNL     1      -4.805  -3.332  -2.126  0.00  0.00    -0.506 OA
ATOM     22  H   UNL     1      -4.127  -3.318  -2.815  0.00  0.00    +0.292 HD
ENDBRANCH  20  21
ENDBRANCH  13  15
BRANCH   9  24
ATOM     23  C   UNL     1      -0.022   1.810   0.012  0.00  0.00    +0.090 C 
ATOM     24  S   UNL     1       0.002  -0.004   0.002  0.00  0.00    -0.129 S 
ENDBRANCH   9  24
ENDBRANCH   1  12
BRANCH   5  25
ATOM     25  S   UNL     1      -8.790  -1.202  -2.606  0.00  0.00    +0.109 S 
ATOM     26  O   UNL     1      -8.154  -0.694  -3.770  0.00  0.00    -0.138 OA
ATOM     27  O   UNL     1      -9.271  -2.538  -2.568  0.00  0.00    -0.138 OA
BRANCH  25  28
ATOM     28  O   UNL     1     -10.031  -0.337  -2.433  0.00  0.00    -0.347 OA
BRANCH  28  29
ATOM     29  C   UNL     1      -9.823   0.983  -2.676  0.00  0.00    +0.156 A 
ATOM     30  C   UNL     1      -9.432   1.826  -1.645  0.00  0.00    +0.048 A 
ATOM     31  C   UNL     1      -9.221   3.168  -1.895  0.00  0.00    +0.004 A 
ATOM     32  C   UNL     1      -9.398   3.672  -3.170  0.00  0.00    +0.000 A 
ATOM     33  C   UNL     1      -9.788   2.834  -4.199  0.00  0.00    +0.004 A 
ATOM     34  C   UNL     1      -9.995   1.490  -3.956  0.00  0.00    +0.048 A 
ENDBRANCH  28  29
ENDBRANCH  25  28
ENDBRANCH   5  25
TORSDOF 7
