REMARK  Name = ZINC20344213
REMARK  8 active torsions:
REMARK  status: ('A' for Active; 'I' for Inactive)
REMARK    1  A    between atoms: C_1  and  C_2
REMARK    2  A    between atoms: C_4  and  O_5
REMARK    3  A    between atoms: N_13  and  C_14
REMARK    4  A    between atoms: C_14  and  N_16
REMARK    5  A    between atoms: C_19  and  C_22
REMARK    6  A    between atoms: C_22  and  C_23
REMARK    7  A    between atoms: C_22  and  C_29
REMARK    8  A    between atoms: C_22  and  O_35
REMARK                            x       y       z     vdW  Elec       q    Type
REMARK                         _______ _______ _______ _____ _____    ______ ____
ROOT
ATOM      1  N   UNL     1       2.166  -0.186   3.669  0.00  0.00    -0.312 N 
ATOM      2  C   UNL     1       2.925  -0.534   2.460  0.00  0.00    +0.107 C 
ATOM      3  C   UNL     1       2.167  -0.012   1.235  0.00  0.00    +0.026 C 
ATOM      4  C   UNL     1       0.736  -0.554   1.257  0.00  0.00    +0.033 C 
ATOM      5  C   UNL     1       0.020  -0.058   2.515  0.00  0.00    +0.026 C 
ATOM      6  C   UNL     1       0.753  -0.581   3.754  0.00  0.00    +0.107 C 
ENDROOT
BRANCH   1   7
ATOM      7  C   UNL     1       2.754   0.481   4.681  0.00  0.00    +0.137 C 
ATOM      8  S   UNL     1       4.431   0.821   4.622  0.00  0.00    -0.018 S 
BRANCH   7  20
ATOM      9  C   UNL     1       1.212  -4.212   9.761  0.00  0.00    +0.045 C 
ATOM     10  C   UNL     1       0.679  -2.802   9.774  0.00  0.00    -0.033 A 
ATOM     11  C   UNL     1      -0.146  -2.377  10.766  0.00  0.00    +0.091 A 
ATOM     12  C   UNL     1      -0.632  -1.053  10.755  0.00  0.00    +0.285 A 
ATOM     13  O   UNL     1      -0.300  -0.188   9.784  0.00  0.00    -0.425 OA
ATOM     14  C   UNL     1       0.515  -0.547   8.769  0.00  0.00    +0.141 A 
ATOM     15  C   UNL     1       1.036  -1.854   8.717  0.00  0.00    +0.021 A 
ATOM     16  C   UNL     1       1.882  -2.230   7.667  0.00  0.00    +0.013 A 
ATOM     17  C   UNL     1       2.196  -1.329   6.692  0.00  0.00    +0.024 A 
ATOM     18  C   UNL     1       1.688  -0.030   6.741  0.00  0.00    +0.036 A 
ATOM     19  C   UNL     1       0.848   0.359   7.774  0.00  0.00    +0.070 A 
ATOM     20  N   UNL     1       2.023   0.881   5.740  0.00  0.00    -0.297 N 
ATOM     21  H   UNL     1       1.690   1.927   5.815  0.00  0.00    +0.154 HD
BRANCH  12  22
ATOM     22  O   UNL     1      -1.371  -0.685  11.651  0.00  0.00    -0.480 OA
ATOM     23  H   UNL     1      -1.757   0.344  11.656  0.00  0.00    +0.295 HD
ENDBRANCH  12  22
ENDBRANCH   7  20
ENDBRANCH   1   7
BRANCH   4  24
ATOM     24  C   UNL     1      -0.014  -0.062   0.017  0.00  0.00    +0.119 C 
BRANCH  24  25
ATOM     25  C   UNL     1      -1.423  -0.597   0.037  0.00  0.00    -0.011 A 
ATOM     26  C   UNL     1      -1.693  -1.812   0.637  0.00  0.00    +0.007 A 
ATOM     27  C   UNL     1      -2.986  -2.300   0.659  0.00  0.00    +0.000 A 
ATOM     28  C   UNL     1      -4.008  -1.577   0.074  0.00  0.00    +0.000 A 
ATOM     29  C   UNL     1      -3.738  -0.363  -0.530  0.00  0.00    +0.000 A 
ATOM     30  C   UNL     1      -2.445   0.127  -0.549  0.00  0.00    +0.007 A 
ENDBRANCH  24  25
BRANCH  24  31
ATOM     31  C   UNL     1       0.690  -0.551  -1.223  0.00  0.00    -0.011 A 
ATOM     32  C   UNL     1       1.394  -1.740  -1.194  0.00  0.00    +0.007 A 
ATOM     33  C   UNL     1       2.037  -2.191  -2.332  0.00  0.00    +0.000 A 
ATOM     34  C   UNL     1       1.984  -1.446  -3.496  0.00  0.00    +0.000 A 
ATOM     35  C   UNL     1       1.284  -0.255  -3.523  0.00  0.00    +0.000 A 
ATOM     36  C   UNL     1       0.638   0.194  -2.386  0.00  0.00    +0.007 A 
ENDBRANCH  24  31
BRANCH  24  37
ATOM     37  O   UNL     1      -0.046   1.366   0.015  0.00  0.00    -0.379 OA
ATOM     38  H   UNL     1      -0.546   1.904  -0.805  0.00  0.00    +0.211 HD
ENDBRANCH  24  37
ENDBRANCH   4  24
TORSDOF 7
