REMARK  Name = ZINC06198546
REMARK  12 active torsions:
REMARK  status: ('A' for Active; 'I' for Inactive)
REMARK    1  A    between atoms: C_1  and  N_60
REMARK    2  A    between atoms: C_2  and  N_60
REMARK    3  A    between atoms: C_3  and  C_4
REMARK    4  A    between atoms: C_3  and  N_60
REMARK    5  A    between atoms: C_4  and  C_5
REMARK    6  A    between atoms: C_5  and  N_6
REMARK    7  A    between atoms: N_6  and  C_7
REMARK    8  A    between atoms: C_7  and  N_9
REMARK    9  A    between atoms: N_9  and  C_10
REMARK   10  A    between atoms: N_9  and  C_17
REMARK   11  A    between atoms: C_10  and  C_11
REMARK   12  A    between atoms: C_17  and  C_18
REMARK                            x       y       z     vdW  Elec       q    Type
REMARK                         _______ _______ _______ _____ _____    ______ ____
ROOT
ATOM      1  N   UNL     1      -5.508   1.014   1.419  0.00  0.00    -0.304 N 
ENDROOT
BRANCH   1   2
ATOM      2  C   UNL     1      -6.309   2.006   1.857  0.00  0.00    +0.133 C 
ATOM      3  S   UNL     1      -6.837   3.222   0.774  0.00  0.00    -0.019 S 
BRANCH   2   4
ATOM      4  N   UNL     1      -6.694   2.039   3.148  0.00  0.00    -0.326 N 
ATOM      5  H   UNL     1      -6.395   1.350   3.762  0.00  0.00    +0.148 HD
BRANCH   4   6
ATOM      6  C   UNL     1      -7.565   3.117   3.625  0.00  0.00    +0.101 C 
BRANCH   6   7
ATOM      7  C   UNL     1      -7.849   2.921   5.115  0.00  0.00    +0.000 C 
BRANCH   7   8
ATOM      8  C   UNL     1      -8.759   4.046   5.613  0.00  0.00    -0.078 C 
BRANCH   8  11
ATOM      9  C   UNL     1      -9.701   5.037   7.612  0.00  0.00    -0.097 C 
ATOM     10  C   UNL     1      -9.823   2.642   7.274  0.00  0.00    -0.097 C 
ATOM     11  N   UNL     1      -9.007   3.855   7.058  0.00  0.00    +0.376 N 
ATOM     12  H   UNL     1      -8.107   3.741   7.539  0.00  0.00    -0.083 HD
ENDBRANCH   8  11
ENDBRANCH   7   8
ENDBRANCH   6   7
ENDBRANCH   4   6
ENDBRANCH   2   4
ENDBRANCH   1   2
BRANCH   1  13
ATOM     13  C   UNL     1      -5.142  -0.083   2.317  0.00  0.00    +0.142 C 
BRANCH  13  14
ATOM     14  C   UNL     1      -3.822   0.226   2.976  0.00  0.00    -0.030 A 
ATOM     15  C   UNL     1      -2.639  -0.085   2.332  0.00  0.00    +0.005 A 
ATOM     16  C   UNL     1      -1.428   0.203   2.933  0.00  0.00    +0.000 A 
ATOM     17  C   UNL     1      -1.400   0.793   4.183  0.00  0.00    +0.000 A 
ATOM     18  C   UNL     1      -2.583   1.099   4.830  0.00  0.00    +0.000 A 
ATOM     19  C   UNL     1      -3.794   0.815   4.226  0.00  0.00    +0.005 A 
ENDBRANCH  13  14
ENDBRANCH   1  13
BRANCH   1  20
ATOM     20  C   UNL     1      -5.004   1.034   0.043  0.00  0.00    +0.147 C 
BRANCH  20  21
ATOM     21  C   UNL     1      -5.936   0.251  -0.845  0.00  0.00    +0.035 A 
ATOM     22  C   UNL     1      -6.901   0.897  -1.548  0.00  0.00    +0.020 A 
ATOM     23  C   UNL     1      -7.787   0.109  -2.405  0.00  0.00    +0.003 A 
ATOM     24  C   UNL     1      -8.804   0.721  -3.148  0.00  0.00    +0.059 A 
ATOM     25  C   UNL     1      -9.626  -0.047  -3.942  0.00  0.00    +0.167 A 
ATOM     26  C   UNL     1      -9.451  -1.435  -4.005  0.00  0.00    +0.168 A 
ATOM     27  C   UNL     1      -8.453  -2.048  -3.270  0.00  0.00    +0.075 A 
ATOM     28  C   UNL     1      -7.616  -1.287  -2.464  0.00  0.00    +0.053 A 
ATOM     29  N   UNL     1      -6.614  -1.882  -1.723  0.00  0.00    -0.322 N 
ATOM     30  H   UNL     1      -6.490  -2.874  -1.768  0.00  0.00    +0.169 HD
ATOM     31  C   UNL     1      -5.803  -1.149  -0.942  0.00  0.00    +0.254 A 
ATOM     32  O   UNL     1      -4.929  -1.708  -0.301  0.00  0.00    -0.268 OA
ATOM     33  O   UNL     1     -10.385  -1.952  -4.855  0.00  0.00    -0.453 OA
ATOM     34  C   UNL     1     -11.389  -0.929  -4.991  0.00  0.00    +0.466 C 
ATOM     35  O   UNL     1     -10.670   0.295  -4.754  0.00  0.00    -0.453 OA
ENDBRANCH  20  21
ENDBRANCH   1  20
TORSDOF 10
