REMARK  Name = ZINC21226495
REMARK  9 active torsions:
REMARK  status: ('A' for Active; 'I' for Inactive)
REMARK    1  A    between atoms: C_1  and  C_2
REMARK    2  A    between atoms: C_2  and  C_3
REMARK    3  A    between atoms: C_2  and  O_4
REMARK    4  A    between atoms: O_4  and  C_5
REMARK    5  A    between atoms: C_8  and  C_13
REMARK    6  A    between atoms: C_10  and  O_11
REMARK    7  A    between atoms: O_11  and  C_12
REMARK    8  A    between atoms: C_18  and  C_28
REMARK    9  A    between atoms: C_31  and  C_34
REMARK                            x       y       z     vdW  Elec       q    Type
REMARK                         _______ _______ _______ _____ _____    ______ ____
ROOT
ATOM      1  C   UNL     1      -5.245  -0.589  -4.722  0.00  0.00    +0.032 C 
ATOM      2  C   UNL     1      -5.043  -0.617  -3.208  0.00  0.00    +0.059 C 
ATOM      3  C   UNL     1      -4.471   0.709  -2.737  0.00  0.00    +0.017 C 
ATOM      4  C   UNL     1      -4.795   1.853  -3.366  0.00  0.00    +0.036 C 
ATOM      5  C   UNL     1      -4.312   3.234  -2.995  0.00  0.00    +0.136 C 
ATOM      6  N   UNL     1      -3.648   3.317  -1.700  0.00  0.00    -0.331 N 
ATOM      7  C   UNL     1      -2.438   2.659  -1.480  0.00  0.00    +0.049 A 
ATOM      8  C   UNL     1      -1.262   3.357  -1.263  0.00  0.00    +0.025 A 
ATOM      9  C   UNL     1      -0.072   2.660  -1.138  0.00  0.00    +0.002 A 
ATOM     10  C   UNL     1      -0.057   1.281  -1.229  0.00  0.00    +0.002 A 
ATOM     11  C   UNL     1      -1.234   0.580  -1.429  0.00  0.00    +0.025 A 
ATOM     12  C   UNL     1      -2.426   1.274  -1.543  0.00  0.00    +0.052 A 
ATOM     13  N   UNL     1      -3.651   0.630  -1.659  0.00  0.00    -0.316 N 
ATOM     14  C   UNL     1      -5.654   1.828  -4.489  0.00  0.00    +0.163 C 
ATOM     15  O   UNL     1      -5.948   2.879  -5.025  0.00  0.00    -0.292 OA
ATOM     16  C   UNL     1      -6.216   0.553  -5.042  0.00  0.00    +0.088 C 
ATOM     17  H   UNL     1      -4.102   3.901  -0.886  0.00  0.00    +0.147 HD
ATOM     18  H   UNL     1      -3.942   0.020  -0.791  0.00  0.00    +0.152 HD
ENDROOT
BRANCH   1  22
ATOM     19  C   UNL     1      -6.904  -4.308  -6.030  0.00  0.00    +0.162 A 
ATOM     20  C   UNL     1      -7.589  -3.523  -5.116  0.00  0.00    +0.050 A 
ATOM     21  C   UNL     1      -7.050  -2.321  -4.696  0.00  0.00    +0.008 A 
ATOM     22  C   UNL     1      -5.827  -1.900  -5.184  0.00  0.00    -0.040 A 
ATOM     23  C   UNL     1      -5.141  -2.676  -6.099  0.00  0.00    +0.053 A 
ATOM     24  C   UNL     1      -5.673  -3.883  -6.521  0.00  0.00    +0.162 A 
BRANCH  24  25
ATOM     25  O   UNL     1      -4.996  -4.650  -7.418  0.00  0.00    -0.491 OA
ATOM     26  C   UNL     1      -3.739  -4.152  -7.879  0.00  0.00    +0.277 C 
ENDBRANCH  24  25
BRANCH  19  27
ATOM     27  O   UNL     1      -7.433  -5.490  -6.445  0.00  0.00    -0.486 OA
BRANCH  27  29
ATOM     28  C   UNL     1      -9.839  -5.280  -6.510  0.00  0.00    +0.051 C 
ATOM     29  C   UNL     1      -8.639  -5.919  -5.810  0.00  0.00    +0.167 C 
ATOM     30  C   UNL     1      -8.747  -7.443  -5.899  0.00  0.00    +0.051 C 
ENDBRANCH  27  29
ENDBRANCH  19  27
ENDBRANCH   1  22
BRANCH   5  31
ATOM     31  C   UNL     1      -3.357   3.707  -4.060  0.00  0.00    -0.023 A 
ATOM     32  C   UNL     1      -3.672   4.816  -4.826  0.00  0.00    +0.006 A 
ATOM     33  C   UNL     1      -2.798   5.256  -5.799  0.00  0.00    +0.009 A 
ATOM     34  C   UNL     1      -1.602   4.576  -6.017  0.00  0.00    -0.018 A 
ATOM     35  C   UNL     1      -1.292   3.457  -5.246  0.00  0.00    +0.009 A 
ATOM     36  C   UNL     1      -2.170   3.029  -4.272  0.00  0.00    +0.006 A 
BRANCH  34  37
ATOM     37  C   UNL     1      -0.661   5.041  -7.066  0.00  0.00    -0.018 A 
ATOM     38  C   UNL     1       0.538   4.364  -7.281  0.00  0.00    +0.008 A 
ATOM     39  C   UNL     1       1.407   4.798  -8.261  0.00  0.00    +0.001 A 
ATOM     40  C   UNL     1       1.094   5.910  -9.023  0.00  0.00    +0.000 A 
ATOM     41  C   UNL     1      -0.092   6.588  -8.811  0.00  0.00    +0.001 A 
ATOM     42  C   UNL     1      -0.971   6.160  -7.837  0.00  0.00    +0.008 A 
ENDBRANCH  34  37
ENDBRANCH   5  31
TORSDOF 6
