REMARK  Name = ZINC39986375
REMARK  3 active torsions:
REMARK  status: ('A' for Active; 'I' for Inactive)
REMARK    1  A    between atoms: C_4  and  S_14
REMARK    2  A    between atoms: S_14  and  O_17
REMARK    3  A    between atoms: O_17  and  C_18
REMARK                            x       y       z     vdW  Elec       q    Type
REMARK                         _______ _______ _______ _____ _____    ______ ____
ROOT
ATOM      1  S   UNL     1       3.732   3.916  -0.009  0.00  0.00    +0.152 S 
ATOM      2  O   UNL     1       3.951   4.436  -1.313  0.00  0.00    -0.131 OA
ATOM      3  O   UNL     1       2.598   4.270   0.771  0.00  0.00    -0.131 OA
ENDROOT
BRANCH   1   7
ATOM      4  C   UNL     1       0.124   1.241  -0.514  0.00  0.00    +0.001 A 
ATOM      5  C   UNL     1       1.218   2.052  -0.362  0.00  0.00    +0.010 A 
ATOM      6  C   UNL     1       2.495   1.470  -0.317  0.00  0.00    +0.013 A 
ATOM      7  C   UNL     1       3.709   2.161  -0.164  0.00  0.00    +0.136 A 
ATOM      8  C   UNL     1       4.872   1.442  -0.139  0.00  0.00    +0.033 A 
ATOM      9  C   UNL     1       4.914   0.052  -0.257  0.00  0.00    +0.026 A 
ATOM     10  C   UNL     1       3.742  -0.664  -0.409  0.00  0.00    +0.042 A 
ATOM     11  C   UNL     1       2.567   0.081  -0.432  0.00  0.00    +0.017 A 
ATOM     12  C   UNL     1       1.454  -0.758  -0.589  0.00  0.00    +0.047 A 
ATOM     13  C   UNL     1       0.214  -0.145  -0.628  0.00  0.00    +0.014 A 
ATOM     14  C   UNL     1       2.027  -2.107  -0.663  0.00  0.00    +0.249 C 
ATOM     15  O   UNL     1       1.403  -3.143  -0.799  0.00  0.00    -0.270 OA
ATOM     16  N   UNL     1       3.377  -1.997  -0.553  0.00  0.00    -0.281 N 
ATOM     17  H   UNL     1       3.998  -2.743  -0.572  0.00  0.00    +0.155 HD
ENDBRANCH   1   7
BRANCH   1  18
ATOM     18  O   UNL     1       4.958   4.279   0.816  0.00  0.00    -0.342 OA
BRANCH  18  19
ATOM     19  C   UNL     1       4.821   4.039   2.145  0.00  0.00    +0.160 A 
ATOM     20  C   UNL     1       4.208   4.990   2.959  0.00  0.00    +0.049 A 
ATOM     21  C   UNL     1       4.063   4.763   4.297  0.00  0.00    +0.015 A 
ATOM     22  C   UNL     1       4.531   3.568   4.855  0.00  0.00    +0.018 A 
ATOM     23  C   UNL     1       4.388   3.297   6.287  0.00  0.00    +0.018 A 
ATOM     24  C   UNL     1       4.862   2.119   6.768  0.00  0.00    +0.092 A 
ATOM     25  C   UNL     1       5.471   1.198   5.891  0.00  0.00    +0.337 A 
ATOM     26  O   UNL     1       5.892   0.144   6.335  0.00  0.00    -0.245 OA
ATOM     27  O   UNL     1       5.599   1.452   4.579  0.00  0.00    -0.422 OA
ATOM     28  C   UNL     1       5.149   2.604   4.037  0.00  0.00    +0.143 A 
ATOM     29  C   UNL     1       5.285   2.848   2.679  0.00  0.00    +0.095 A 
ENDBRANCH  18  19
ENDBRANCH   1  18
TORSDOF 3
