REMARK  Name = ZINC54201448
REMARK  4 active torsions:
REMARK  status: ('A' for Active; 'I' for Inactive)
REMARK    1  A    between atoms: C_4  and  C_7
REMARK    2  A    between atoms: C_10  and  C_13
REMARK    3  A    between atoms: C_18  and  O_19
REMARK    4  A    between atoms: C_25  and  C_26
REMARK                            x       y       z     vdW  Elec       q    Type
REMARK                         _______ _______ _______ _____ _____    ______ ____
ROOT
ATOM      1  C   UNL     1       3.693  -0.682  -0.037  0.00  0.00    +0.069 C 
ATOM      2  N   UNL     1       4.854  -0.123  -0.040  0.00  0.00    -0.182 NA
ATOM      3  N   UNL     1       5.918  -1.022  -0.057  0.00  0.00    -0.195 N 
ATOM      4  C   UNL     1       5.383  -2.393  -0.066  0.00  0.00    +0.139 C 
ATOM      5  C   UNL     1       3.856  -2.185  -0.047  0.00  0.00    +0.087 C 
ATOM      6  C   UNL     1       7.247  -0.685  -0.063  0.00  0.00    +0.174 C 
ATOM      7  N   UNL     1       8.299  -1.489  -0.085  0.00  0.00    -0.152 NA
ATOM      8  C   UNL     1       9.533  -1.034  -0.089  0.00  0.00    +0.276 C 
ATOM      9  O   UNL     1      10.496  -1.786  -0.110  0.00  0.00    -0.267 OA
ATOM     10  C   UNL     1       9.693   0.435  -0.068  0.00  0.00    +0.082 C 
ATOM     11  C   UNL     1      10.829   1.190  -0.067  0.00  0.00    +0.066 C 
ATOM     12  S   UNL     1       7.979   0.944  -0.053  0.00  0.00    -0.050 S 
ENDROOT
BRANCH   1  16
ATOM     13  C   UNL     1      -0.017   1.379   0.010  0.00  0.00    +0.000 A 
ATOM     14  C   UNL     1       1.168   2.094   0.002  0.00  0.00    +0.001 A 
ATOM     15  C   UNL     1       2.377   1.431  -0.013  0.00  0.00    +0.010 A 
ATOM     16  C   UNL     1       2.404   0.034  -0.021  0.00  0.00    -0.002 A 
ATOM     17  C   UNL     1       1.204  -0.681  -0.013  0.00  0.00    +0.010 A 
ATOM     18  C   UNL     1       0.002  -0.004   0.002  0.00  0.00    +0.001 A 
ENDBRANCH   1  16
BRANCH   4  19
ATOM     19  C   UNL     1       5.812  -3.121  -1.314  0.00  0.00    +0.017 A 
ATOM     20  C   UNL     1       6.263  -2.410  -2.409  0.00  0.00    +0.009 A 
ATOM     21  C   UNL     1       6.656  -3.077  -3.554  0.00  0.00    +0.001 A 
ATOM     22  C   UNL     1       6.599  -4.458  -3.607  0.00  0.00    +0.004 A 
ATOM     23  C   UNL     1       6.148  -5.174  -2.515  0.00  0.00    +0.046 A 
ATOM     24  C   UNL     1       5.758  -4.507  -1.362  0.00  0.00    +0.122 A 
BRANCH  24  25
ATOM     25  O   UNL     1       5.320  -5.209  -0.284  0.00  0.00    -0.506 OA
ATOM     26  H   UNL     1       4.367  -5.370  -0.281  0.00  0.00    +0.292 HD
ENDBRANCH  24  25
ENDBRANCH   4  19
BRANCH  11  27
ATOM     27  C   UNL     1      10.739   2.601  -0.045  0.00  0.00    +0.129 A 
ATOM     28  C   UNL     1      11.801   3.484  -0.046  0.00  0.00    +0.049 A 
ATOM     29  C   UNL     1      11.248   4.773  -0.021  0.00  0.00    +0.042 A 
ATOM     30  C   UNL     1       9.904   4.631  -0.004  0.00  0.00    +0.195 A 
ATOM     31  O   UNL     1       9.601   3.325  -0.025  0.00  0.00    -0.463 OA
ENDBRANCH  11  27
TORSDOF 4
