REMARK  Name = ZINC46973789
REMARK  6 active torsions:
REMARK  status: ('A' for Active; 'I' for Inactive)
REMARK    1  A    between atoms: C_1  and  C_2
REMARK    2  A    between atoms: C_2  and  C_4
REMARK    3  A    between atoms: C_2  and  N_10
REMARK    4  A    between atoms: N_13  and  N_14
REMARK    5  A    between atoms: C_15  and  C_17
REMARK    6  A    between atoms: C_17  and  C_18
REMARK                            x       y       z     vdW  Elec       q    Type
REMARK                         _______ _______ _______ _____ _____    ______ ____
ROOT
ATOM      1  N   UNL     1      -3.924  -1.457   0.078  0.00  0.00    -0.233 N 
ATOM      2  C   UNL     1      -5.189  -1.924   0.087  0.00  0.00    +0.230 C 
ATOM      3  O   UNL     1      -5.799  -2.042  -0.954  0.00  0.00    -0.274 OA
ATOM      4  H   UNL     1      -3.436  -1.363   0.910  0.00  0.00    +0.173 HD
ENDROOT
BRANCH   1   8
ATOM      5  N   UNL     1      -1.372  -0.511   0.012  0.00  0.00    -0.293 N 
ATOM      6  C   UNL     1      -2.051  -0.643  -1.145  0.00  0.00    +0.316 C 
ATOM      7  O   UNL     1      -1.522  -0.341  -2.197  0.00  0.00    -0.251 OA
ATOM      8  N   UNL     1      -3.315  -1.109  -1.135  0.00  0.00    -0.218 N 
ATOM      9  H   UNL     1      -1.794  -0.752   0.852  0.00  0.00    +0.151 HD
ATOM     10  H   UNL     1      -3.804  -1.204  -1.968  0.00  0.00    +0.174 HD
BRANCH   5  12
ATOM     11  C   UNL     1      -0.019   1.526   0.010  0.00  0.00    +0.030 C 
ATOM     12  C   UNL     1       0.002  -0.004   0.002  0.00  0.00    +0.100 C 
BRANCH  12  13
ATOM     13  C   UNL     1       0.742  -0.511   1.242  0.00  0.00    +0.138 C 
ATOM     14  C   UNL     1       2.224  -0.061   1.204  0.00  0.00    +0.035 C 
ATOM     15  C   UNL     1       2.576  -0.081   2.717  0.00  0.00    +0.031 C 
ATOM     16  C   UNL     1       1.245   0.351   3.369  0.00  0.00    +0.160 C 
ATOM     17  O   UNL     1       0.196   0.087   2.428  0.00  0.00    -0.375 OA
ENDBRANCH  12  13
ENDBRANCH   5  12
ENDBRANCH   1   8
BRANCH   2  18
ATOM     18  C   UNL     1      -5.844  -2.298   1.392  0.00  0.00    +0.104 C 
BRANCH  18  19
ATOM     19  C   UNL     1      -7.266  -2.795   1.124  0.00  0.00    -0.020 C 
ATOM     20  C   UNL     1      -7.215  -4.020   0.209  0.00  0.00    +0.011 C 
ATOM     21  C   UNL     1      -8.637  -4.516  -0.059  0.00  0.00    -0.010 C 
ATOM     22  C   UNL     1      -9.303  -4.896   1.266  0.00  0.00    +0.007 C 
ATOM     23  C   UNL     1      -9.354  -3.671   2.181  0.00  0.00    -0.010 C 
ATOM     24  C   UNL     1      -7.931  -3.175   2.448  0.00  0.00    +0.011 C 
ATOM     25  C   UNL     1     -10.162  -2.562   1.504  0.00  0.00    +0.007 C 
ATOM     26  C   UNL     1      -9.497  -2.182   0.180  0.00  0.00    -0.010 C 
ATOM     27  C   UNL     1      -9.446  -3.407  -0.736  0.00  0.00    +0.007 C 
ATOM     28  C   UNL     1      -8.074  -1.686   0.447  0.00  0.00    +0.011 C 
ENDBRANCH  18  19
ENDBRANCH   2  18
TORSDOF 5
