REMARK  Name = ZINC00804028
REMARK  8 active torsions:
REMARK  status: ('A' for Active; 'I' for Inactive)
REMARK    1  A    between atoms: C_1  and  C_2
REMARK    2  A    between atoms: C_5  and  S_8
REMARK    3  A    between atoms: S_8  and  C_9
REMARK    4  A    between atoms: C_9  and  C_10
REMARK    5  A    between atoms: C_17  and  N_30
REMARK    6  A    between atoms: C_18  and  C_28
REMARK    7  A    between atoms: C_19  and  C_21
REMARK    8  A    between atoms: C_21  and  C_22
REMARK                            x       y       z     vdW  Elec       q    Type
REMARK                         _______ _______ _______ _____ _____    ______ ____
ROOT
ATOM      1  C   UNL     1       0.097  -6.482   1.870  0.00  0.00    +0.080 A 
ATOM      2  C   UNL     1      -1.016  -7.309   1.944  0.00  0.00    +0.046 A 
ATOM      3  C   UNL     1      -0.579  -8.599   2.061  0.00  0.00    +0.222 A 
ATOM      4  N   UNL     1       0.764  -8.573   2.059  0.00  0.00    -0.246 N 
ATOM      5  H   UNL     1       1.350  -9.343   2.129  0.00  0.00    +0.192 HD
ATOM      6  N   UNL     1       1.169  -7.235   1.933  0.00  0.00    -0.175 NA
ATOM      7  O   UNL     1      -1.426  -9.653   2.159  0.00  0.00    -0.423 OA
ATOM      8  C   UNL     1      -2.724  -9.390   2.414  0.00  0.00    +0.200 C 
ATOM      9  C   UNL     1      -3.275  -8.160   2.319  0.00  0.00    +0.094 C 
ATOM     10  C   UNL     1      -2.478  -6.946   1.908  0.00  0.00    +0.076 C 
ENDROOT
BRANCH   8  11
ATOM     11  N   UNL     1      -3.532 -10.433   2.792  0.00  0.00    -0.328 N 
ATOM     12  H   UNL     1      -3.166 -11.328   2.869  0.00  0.00    +0.145 HD
ATOM     13  H   UNL     1      -4.470 -10.275   2.982  0.00  0.00    +0.145 HD
ENDBRANCH   8  11
BRANCH   9  14
ATOM     14  C   UNL     1      -4.666  -8.002   2.619  0.00  0.00    +0.100 C 
ATOM     15  N   UNL     1      -5.769  -7.878   2.857  0.00  0.00    -0.191 NA
ENDBRANCH   9  14
BRANCH   1  16
ATOM     16  C   UNL     1       0.077  -4.981   1.735  0.00  0.00    +0.132 C 
BRANCH  16  17
ATOM     17  S   UNL     1       0.062  -4.533  -0.023  0.00  0.00    -0.119 S 
BRANCH  17  22
ATOM     18  C   UNL     1      -0.018   1.503   0.010  0.00  0.00    +0.044 C 
ATOM     19  C   UNL     1       0.002  -0.004   0.002  0.00  0.00    -0.050 A 
ATOM     20  C   UNL     1       0.006  -0.687  -1.200  0.00  0.00    +0.004 A 
ATOM     21  C   UNL     1       0.024  -2.068  -1.212  0.00  0.00    +0.015 A 
ATOM     22  C   UNL     1       0.039  -2.771  -0.013  0.00  0.00    +0.008 A 
ATOM     23  C   UNL     1       0.036  -2.081   1.193  0.00  0.00    +0.015 A 
ATOM     24  C   UNL     1       0.023  -0.700   1.197  0.00  0.00    +0.004 A 
ENDBRANCH  17  22
ENDBRANCH  16  17
ENDBRANCH   1  16
BRANCH  10  25
ATOM     25  C   UNL     1      -2.871  -6.526   0.490  0.00  0.00    +0.049 C 
BRANCH  25  26
ATOM     26  C   UNL     1      -4.301  -6.048   0.486  0.00  0.00    -0.046 A 
ATOM     27  C   UNL     1      -5.329  -6.945   0.262  0.00  0.00    +0.003 A 
ATOM     28  C   UNL     1      -6.640  -6.507   0.258  0.00  0.00    +0.000 A 
ATOM     29  C   UNL     1      -6.923  -5.172   0.479  0.00  0.00    +0.000 A 
ATOM     30  C   UNL     1      -5.895  -4.275   0.703  0.00  0.00    +0.000 A 
ATOM     31  C   UNL     1      -4.584  -4.714   0.711  0.00  0.00    +0.003 A 
ENDBRANCH  25  26
ENDBRANCH  10  25
TORSDOF 7
