REMARK  Name = ZINC24890845
REMARK  6 active torsions:
REMARK  status: ('A' for Active; 'I' for Inactive)
REMARK    1  A    between atoms: C_1  and  C_2
REMARK    2  A    between atoms: N_13  and  C_25
REMARK    3  A    between atoms: C_14  and  S_16
REMARK    4  A    between atoms: S_16  and  C_17
REMARK    5  A    between atoms: C_17  and  C_18
REMARK    6  A    between atoms: C_18  and  C_19
REMARK                            x       y       z     vdW  Elec       q    Type
REMARK                         _______ _______ _______ _____ _____    ______ ____
ROOT
ATOM      1  C   UNL     1       5.788  -2.793   7.901  0.00  0.00    +0.008 C 
ATOM      2  C   UNL     1       4.898  -1.829   7.114  0.00  0.00    -0.009 C 
ATOM      3  C   UNL     1       3.475  -1.865   7.679  0.00  0.00    +0.008 C 
ATOM      4  C   UNL     1       2.646  -0.734   7.072  0.00  0.00    +0.037 C 
ATOM      5  C   UNL     1       2.752  -0.807   5.551  0.00  0.00    -0.023 A 
ATOM      6  C   UNL     1       3.752  -1.495   4.962  0.00  0.00    -0.004 A 
ATOM      7  S   UNL     1       3.477  -1.308   3.221  0.00  0.00    -0.073 S 
ATOM      8  C   UNL     1       2.015  -0.303   3.289  0.00  0.00    +0.117 A 
ATOM      9  C   UNL     1       1.790  -0.146   4.667  0.00  0.00    +0.076 A 
ATOM     10  C   UNL     1       0.650   0.638   5.028  0.00  0.00    +0.268 A 
ATOM     11  O   UNL     1       0.376   0.828   6.201  0.00  0.00    -0.267 OA
ATOM     12  N   UNL     1      -0.115   1.168   4.055  0.00  0.00    -0.253 N 
ATOM     13  C   UNL     1       0.174   0.961   2.735  0.00  0.00    +0.177 A 
ATOM     14  N   UNL     1       1.219   0.242   2.377  0.00  0.00    -0.216 NA
ATOM     15  C   UNL     1       4.854  -2.252   5.639  0.00  0.00    +0.046 C 
ENDROOT
BRANCH  12  16
ATOM     16  C   UNL     1      -1.231   1.942   4.401  0.00  0.00    +0.087 A 
ATOM     17  C   UNL     1      -2.470   1.339   4.573  0.00  0.00    +0.029 A 
ATOM     18  C   UNL     1      -3.567   2.104   4.919  0.00  0.00    +0.002 A 
ATOM     19  C   UNL     1      -3.436   3.470   5.085  0.00  0.00    +0.003 A 
ATOM     20  C   UNL     1      -2.205   4.076   4.910  0.00  0.00    +0.040 A 
ATOM     21  C   UNL     1      -1.101   3.316   4.568  0.00  0.00    +0.147 A 
ATOM     22  F   UNL     1       0.101   3.908   4.397  0.00  0.00    -0.203 F 
ENDBRANCH  12  16
BRANCH  13  23
ATOM     23  S   UNL     1      -0.860   1.669   1.497  0.00  0.00    -0.087 S 
BRANCH  23  24
ATOM     24  C   UNL     1      -0.013   1.086   0.008  0.00  0.00    +0.086 C 
BRANCH  24  25
ATOM     25  C   UNL     1      -0.753   1.593  -1.232  0.00  0.00    +0.107 C 
BRANCH  25  26
ATOM     26  C   UNL     1      -0.047   1.107  -2.471  0.00  0.00    +0.221 C 
ATOM     27  O   UNL     1       0.949   0.422  -2.373  0.00  0.00    -0.275 OA
ATOM     28  N   UNL     1      -0.524   1.433  -3.689  0.00  0.00    -0.240 N 
ATOM     29  C   UNL     1       0.107   0.998  -4.798  0.00  0.00    +0.303 C 
ATOM     30  O   UNL     1       1.106   0.312  -4.700  0.00  0.00    -0.253 OA
ATOM     31  N   UNL     1      -0.369   1.324  -6.016  0.00  0.00    -0.313 N 
ATOM     32  H   UNL     1      -1.428   2.053  -3.778  0.00  0.00    +0.159 HD
ATOM     33  H   UNL     1       0.145   0.969  -6.921  0.00  0.00    +0.146 HD
ATOM     34  H   UNL     1      -1.273   1.944  -6.105  0.00  0.00    +0.146 HD
ENDBRANCH  25  26
ENDBRANCH  24  25
ENDBRANCH  23  24
ENDBRANCH  13  23
TORSDOF 5
