REMARK  Name = ZINC39534292
REMARK  10 active torsions:
REMARK  status: ('A' for Active; 'I' for Inactive)
REMARK    1  A    between atoms: C_4  and  O_7
REMARK    2  A    between atoms: O_7  and  S_8
REMARK    3  A    between atoms: S_8  and  C_11
REMARK    4  A    between atoms: C_14  and  C_17
REMARK    5  A    between atoms: C_17  and  C_19
REMARK    6  A    between atoms: C_17  and  N_28
REMARK    7  A    between atoms: C_19  and  N_20
REMARK    8  A    between atoms: N_20  and  C_21
REMARK    9  A    between atoms: C_26  and  O_27
REMARK   10  A    between atoms: C_32  and  O_35
REMARK                            x       y       z     vdW  Elec       q    Type
REMARK                         _______ _______ _______ _____ _____    ______ ____
ROOT
ATOM      1  C   UNL     1       0.894  -5.504   3.593  0.00  0.00    +0.104 C 
ENDROOT
BRANCH   1   2
ATOM      2  N   UNL     1       0.725  -6.539   2.564  0.00  0.00    -0.295 NA
ATOM      3  C   UNL     1       2.021  -7.121   2.185  0.00  0.00    +0.066 C 
ATOM      4  C   UNL     1       1.796  -8.232   1.157  0.00  0.00    -0.063 C 
ATOM      5  N   UNL     1       1.124  -7.678  -0.025  0.00  0.00    +0.398 N 
ATOM      6  C   UNL     1      -0.179  -7.122   0.365  0.00  0.00    +0.073 C 
ATOM      7  C   UNL     1       0.030  -6.002   1.386  0.00  0.00    +0.096 C 
ATOM      8  H   UNL     1       1.694  -6.948  -0.425  0.00  0.00    -0.082 HD
ATOM      9  H   UNL     1       0.987  -8.409  -0.708  0.00  0.00    -0.082 HD
BRANCH   6  10
ATOM     10  O   UNL     1      -0.838  -6.599  -0.789  0.00  0.00    -0.409 OA
ATOM     11  H   UNL     1      -1.004  -7.255  -1.480  0.00  0.00    +0.207 HD
ENDBRANCH   6  10
ENDBRANCH   1   2
BRANCH   1  15
ATOM     12  C   UNL     1       3.494  -2.449   2.124  0.00  0.00    +0.128 A 
ATOM     13  C   UNL     1       4.002  -3.694   2.444  0.00  0.00    +0.031 A 
ATOM     14  C   UNL     1       3.161  -4.683   2.920  0.00  0.00    +0.007 A 
ATOM     15  C   UNL     1       1.811  -4.426   3.075  0.00  0.00    -0.029 A 
ATOM     16  C   UNL     1       1.304  -3.181   2.756  0.00  0.00    +0.007 A 
ATOM     17  C   UNL     1       2.146  -2.191   2.285  0.00  0.00    +0.031 A 
BRANCH  12  18
ATOM     18  S   UNL     1       4.566  -1.189   1.518  0.00  0.00    +0.151 S 
ATOM     19  O   UNL     1       3.755  -0.284   0.783  0.00  0.00    -0.131 OA
ATOM     20  O   UNL     1       5.685  -1.850   0.943  0.00  0.00    -0.131 OA
BRANCH  18  21
ATOM     21  O   UNL     1       5.088  -0.423   2.726  0.00  0.00    -0.342 OA
BRANCH  21  25
ATOM     22  C   UNL     1       7.966  -2.445   4.882  0.00  0.00    +0.000 A 
ATOM     23  C   UNL     1       8.339  -1.616   3.840  0.00  0.00    +0.004 A 
ATOM     24  C   UNL     1       7.378  -0.938   3.116  0.00  0.00    +0.048 A 
ATOM     25  C   UNL     1       6.036  -1.089   3.436  0.00  0.00    +0.157 A 
ATOM     26  C   UNL     1       5.664  -1.922   4.481  0.00  0.00    +0.048 A 
ATOM     27  C   UNL     1       6.630  -2.597   5.202  0.00  0.00    +0.004 A 
ENDBRANCH  21  25
ENDBRANCH  18  21
ENDBRANCH  12  18
ENDBRANCH   1  15
BRANCH   1  28
ATOM     28  C   UNL     1       1.500  -6.130   4.850  0.00  0.00    +0.125 C 
BRANCH  28  29
ATOM     29  N   UNL     1       0.670  -7.255   5.285  0.00  0.00    -0.339 N 
ATOM     30  H   UNL     1      -0.127  -7.492   4.784  0.00  0.00    +0.146 HD
BRANCH  29  31
ATOM     31  C   UNL     1       1.026  -7.990   6.422  0.00  0.00    +0.069 A 
ATOM     32  C   UNL     1       2.161  -7.649   7.143  0.00  0.00    +0.026 A 
ATOM     33  C   UNL     1       2.510  -8.375   8.266  0.00  0.00    +0.002 A 
ATOM     34  C   UNL     1       1.730  -9.441   8.674  0.00  0.00    +0.004 A 
ATOM     35  C   UNL     1       0.597  -9.787   7.960  0.00  0.00    +0.047 A 
ATOM     36  C   UNL     1       0.237  -9.061   6.837  0.00  0.00    +0.138 A 
BRANCH  36  37
ATOM     37  O   UNL     1      -0.880  -9.396   6.137  0.00  0.00    -0.505 OA
ATOM     38  H   UNL     1      -0.725 -10.040   5.433  0.00  0.00    +0.292 HD
ENDBRANCH  36  37
ENDBRANCH  29  31
ENDBRANCH  28  29
ENDBRANCH   1  28
TORSDOF 10
