REMARK  Name = ZINC35458570
REMARK  9 active torsions:
REMARK  status: ('A' for Active; 'I' for Inactive)
REMARK    1  A    between atoms: C_1  and  C_2
REMARK    2  A    between atoms: C_2  and  C_3
REMARK    3  A    between atoms: C_3  and  N_4
REMARK    4  A    between atoms: N_4  and  C_5
REMARK    5  A    between atoms: C_5  and  C_6
REMARK    6  A    between atoms: C_16  and  C_18
REMARK    7  A    between atoms: N_26  and  C_27
REMARK    8  A    between atoms: C_30  and  O_33
REMARK    9  A    between atoms: O_33  and  C_34
REMARK                            x       y       z     vdW  Elec       q    Type
REMARK                         _______ _______ _______ _____ _____    ______ ____
ROOT
ATOM      1  C   UNL     1       1.380  -3.621   1.211  0.00  0.00    +0.205 C 
ENDROOT
BRANCH   1   2
ATOM      2  C   UNL     1       2.691  -3.600   1.954  0.00  0.00    +0.234 C 
ATOM      3  O   UNL     1       2.741  -3.161   3.083  0.00  0.00    -0.274 OA
ATOM      4  N   UNL     1       3.808  -4.071   1.364  0.00  0.00    -0.286 N 
ATOM      5  C   UNL     1       3.758  -4.681   0.028  0.00  0.00    +0.130 C 
ATOM      6  C   UNL     1       4.569  -3.826  -0.951  0.00  0.00    +0.140 C 
ATOM      7  N   UNL     1       5.858  -3.482  -0.338  0.00  0.00    -0.347 N 
ATOM      8  C   UNL     1       6.980  -3.055  -0.979  0.00  0.00    +0.086 A 
ATOM      9  C   UNL     1       7.939  -2.840  -0.054  0.00  0.00    +0.019 A 
ATOM     10  C   UNL     1       7.388  -3.150   1.207  0.00  0.00    +0.025 A 
ATOM     11  C   UNL     1       6.121  -3.541   1.003  0.00  0.00    +0.044 A 
ATOM     12  C   UNL     1       5.117  -3.982   2.038  0.00  0.00    +0.153 C 
BRANCH  12  13
ATOM     13  C   UNL     1       5.054  -2.973   3.155  0.00  0.00    -0.021 A 
ATOM     14  C   UNL     1       4.558  -1.705   2.913  0.00  0.00    +0.006 A 
ATOM     15  C   UNL     1       4.500  -0.779   3.938  0.00  0.00    +0.000 A 
ATOM     16  C   UNL     1       4.937  -1.121   5.204  0.00  0.00    +0.000 A 
ATOM     17  C   UNL     1       5.431  -2.389   5.446  0.00  0.00    +0.000 A 
ATOM     18  C   UNL     1       5.486  -3.317   4.422  0.00  0.00    +0.006 A 
ENDBRANCH  12  13
ENDBRANCH   1   2
BRANCH   1  19
ATOM     19  N   UNL     1       0.328  -3.061   2.062  0.00  0.00    -0.277 N 
ATOM     20  C   UNL     1      -0.380  -3.867   2.878  0.00  0.00    +0.307 C 
ATOM     21  O   UNL     1      -0.145  -5.059   2.908  0.00  0.00    -0.252 OA
ATOM     22  N   UNL     1      -1.349  -3.351   3.660  0.00  0.00    -0.269 N 
ATOM     23  H   UNL     1      -1.587  -2.414   3.583  0.00  0.00    +0.156 HD
BRANCH  22  24
ATOM     24  C   UNL     1      -2.012  -4.168   4.586  0.00  0.00    +0.035 A 
ATOM     25  C   UNL     1      -3.313  -3.872   4.967  0.00  0.00    +0.027 A 
ATOM     26  C   UNL     1      -3.966  -4.678   5.879  0.00  0.00    +0.047 A 
ATOM     27  C   UNL     1      -3.322  -5.784   6.413  0.00  0.00    +0.120 A 
ATOM     28  C   UNL     1      -2.021  -6.081   6.032  0.00  0.00    +0.047 A 
ATOM     29  C   UNL     1      -1.369  -5.279   5.117  0.00  0.00    +0.027 A 
BRANCH  27  30
ATOM     30  O   UNL     1      -3.965  -6.578   7.310  0.00  0.00    -0.495 OA
ATOM     31  C   UNL     1      -3.241  -7.700   7.820  0.00  0.00    +0.277 C 
ENDBRANCH  27  30
ENDBRANCH  22  24
BRANCH  19  32
ATOM     32  C   UNL     1       0.044  -1.624   2.026  0.00  0.00    +0.109 C 
BRANCH  32  34
ATOM     33  C   UNL     1      -1.314   0.161   0.925  0.00  0.00    +0.005 C 
ATOM     34  C   UNL     1      -1.018  -1.340   0.963  0.00  0.00    +0.016 C 
ENDBRANCH  32  34
ENDBRANCH  19  32
ENDBRANCH   1  19
TORSDOF 7
