REMARK  Name = ZINC19419451
REMARK  4 active torsions:
REMARK  status: ('A' for Active; 'I' for Inactive)
REMARK    1  A    between atoms: C_9  and  O_23
REMARK    2  A    between atoms: C_10  and  C_11
REMARK    3  A    between atoms: N_12  and  N_13
REMARK    4  A    between atoms: C_14  and  C_16
REMARK                            x       y       z     vdW  Elec       q    Type
REMARK                         _______ _______ _______ _____ _____    ______ ____
ROOT
ATOM      1  C   UNL     1      -1.372   6.050   0.045  0.00  0.00    +0.142 C 
ATOM      2  N   UNL     1      -1.364   7.349   0.052  0.00  0.00    -0.187 NA
ENDROOT
BRANCH   1  12
ATOM      3  C   UNL     1      -0.013   1.076   0.008  0.00  0.00    +0.001 A 
ATOM      4  C   UNL     1      -1.234   1.745   0.017  0.00  0.00    +0.001 A 
ATOM      5  C   UNL     1      -1.286   3.107   0.031  0.00  0.00    +0.009 A 
ATOM      6  C   UNL     1      -0.096   3.845   0.023  0.00  0.00    -0.006 A 
ATOM      7  C   UNL     1       1.148   3.168   0.008  0.00  0.00    -0.017 A 
ATOM      8  C   UNL     1       1.163   1.762   0.000  0.00  0.00    +0.008 A 
ATOM      9  C   UNL     1       2.341   3.910  -0.000  0.00  0.00    +0.012 A 
ATOM     10  C   UNL     1       2.315   5.269   0.006  0.00  0.00    +0.046 A 
ATOM     11  C   UNL     1       1.117   5.981   0.021  0.00  0.00    +0.126 A 
ATOM     12  C   UNL     1      -0.105   5.306   0.030  0.00  0.00    +0.044 A 
BRANCH  11  13
ATOM     13  O   UNL     1       1.138   7.338   0.027  0.00  0.00    -0.506 OA
ATOM     14  H   UNL     1       0.194   7.903   0.039  0.00  0.00    +0.292 HD
ENDBRANCH  11  13
ENDBRANCH   1  12
BRANCH   2  15
ATOM     15  N   UNL     1      -2.572   8.058   0.067  0.00  0.00    -0.203 N 
ATOM     16  C   UNL     1      -2.563   9.406   0.073  0.00  0.00    +0.258 C 
ATOM     17  O   UNL     1      -1.508  10.005   0.066  0.00  0.00    -0.269 OA
ATOM     18  H   UNL     1      -3.529   7.514   0.073  0.00  0.00    +0.178 HD
BRANCH  16  19
ATOM     19  C   UNL     1      -3.863  10.168   0.089  0.00  0.00    +0.089 C 
ATOM     20  C   UNL     1      -3.578  11.648   0.093  0.00  0.00    +0.036 C 
ATOM     21  N   UNL     1      -2.426  12.197   0.085  0.00  0.00    -0.268 N 
ATOM     22  N   UNL     1      -2.483  13.587   0.089  0.00  0.00    -0.236 N 
ATOM     23  C   UNL     1      -3.761  14.022   0.111  0.00  0.00    +0.235 C 
ATOM     24  O   UNL     1      -4.150  15.171   0.123  0.00  0.00    -0.274 OA
ATOM     25  C   UNL     1      -4.604  12.761   0.108  0.00  0.00    +0.149 C 
ATOM     26  H   UNL     1      -1.452  11.686   0.075  0.00  0.00    +0.170 HD
ATOM     27  H   UNL     1      -1.554  14.176   0.076  0.00  0.00    +0.173 HD
ENDBRANCH  16  19
ENDBRANCH   2  15
TORSDOF 4
