REMARK  Name = ZINC61909445
REMARK  3 active torsions:
REMARK  status: ('A' for Active; 'I' for Inactive)
REMARK    1  A    between atoms: C_1  and  C_2
REMARK    2  A    between atoms: N_5  and  C_9
REMARK    3  A    between atoms: C_9  and  C_17
REMARK                            x       y       z     vdW  Elec       q    Type
REMARK                         _______ _______ _______ _____ _____    ______ ____
ROOT
ATOM      1  C   UNL     1       0.060  -4.215  -0.065  0.00  0.00    +0.149 C 
ATOM      2  C   UNL     1       1.018  -4.751  -1.099  0.00  0.00    +0.040 C 
ATOM      3  C   UNL     1       2.509  -4.703  -0.824  0.00  0.00    +0.003 C 
ATOM      4  C   UNL     1       2.998  -3.311  -0.416  0.00  0.00    +0.000 C 
ATOM      5  C   UNL     1       3.429  -3.356   1.062  0.00  0.00    +0.000 C 
ATOM      6  C   UNL     1       2.201  -3.394   1.970  0.00  0.00    +0.000 C 
ATOM      7  C   UNL     1       1.588  -4.793   1.923  0.00  0.00    +0.003 C 
ATOM      8  C   UNL     1       0.198  -4.797   1.326  0.00  0.00    +0.040 C 
ENDROOT
BRANCH   1  13
ATOM      9  C   UNL     1      -0.022   1.502   0.053  0.00  0.00    +0.044 C 
ATOM     10  C   UNL     1       0.002  -0.004   0.010  0.00  0.00    -0.044 A 
ATOM     11  C   UNL     1      -0.147  -0.749   1.189  0.00  0.00    +0.021 A 
ATOM     12  C   UNL     1      -0.125  -2.102   1.141  0.00  0.00    +0.090 A 
ATOM     13  N   UNL     1       0.040  -2.750  -0.040  0.00  0.00    -0.299 N 
ATOM     14  C   UNL     1       0.186  -2.063  -1.189  0.00  0.00    +0.252 A 
ATOM     15  O   UNL     1       0.334  -2.661  -2.243  0.00  0.00    -0.268 OA
ATOM     16  C   UNL     1       0.162  -0.658  -1.176  0.00  0.00    +0.073 A 
ENDBRANCH   1  13
BRANCH   1  17
ATOM     17  C   UNL     1      -1.346  -4.617  -0.545  0.00  0.00    +0.381 C 
ATOM     18  O   UNL     1      -2.171  -3.757  -0.802  0.00  0.00    -0.244 OA
ATOM     19  O   UNL     1      -1.635  -5.795  -0.667  0.00  0.00    -0.244 OA
ENDBRANCH   1  17
TORSDOF 2
