REMARK  Name = ZINC13489220
REMARK  9 active torsions:
REMARK  status: ('A' for Active; 'I' for Inactive)
REMARK    1  A    between atoms: C_1  and  C_2
REMARK    2  A    between atoms: C_4  and  S_23
REMARK    3  A    between atoms: C_5  and  N_22
REMARK    4  A    between atoms: N_8  and  C_9
REMARK    5  A    between atoms: C_9  and  C_10
REMARK    6  A    between atoms: N_12  and  C_13
REMARK    7  A    between atoms: C_13  and  C_14
REMARK    8  A    between atoms: C_19  and  C_20
REMARK    9  A    between atoms: S_23  and  C_26
REMARK                            x       y       z     vdW  Elec       q    Type
REMARK                         _______ _______ _______ _____ _____    ______ ____
ROOT
ATOM      1  C   UNL     1      -1.905   0.539   0.956  0.00  0.00    +0.063 C 
ATOM      2  C   UNL     1      -0.907  -0.472   0.455  0.00  0.00    +0.021 A 
ATOM      3  C   UNL     1      -0.249  -0.244  -0.704  0.00  0.00    +0.050 A 
ATOM      4  C   UNL     1       0.682  -1.178  -1.179  0.00  0.00    +0.122 A 
ATOM      5  C   UNL     1       0.914  -2.317  -0.458  0.00  0.00    +0.116 A 
ATOM      6  C   UNL     1       0.210  -2.523   0.749  0.00  0.00    +0.275 A 
ATOM      7  O   UNL     1       0.405  -3.533   1.405  0.00  0.00    -0.266 OA
ATOM      8  N   UNL     1      -0.674  -1.601   1.177  0.00  0.00    -0.302 N 
ENDROOT
BRANCH   5   9
ATOM      9  N   UNL     1       1.839  -3.266  -0.910  0.00  0.00    -0.352 N 
ATOM     10  H   UNL     1       1.900  -3.471  -1.856  0.00  0.00    +0.143 HD
ATOM     11  H   UNL     1       2.417  -3.720  -0.277  0.00  0.00    +0.143 HD
ENDBRANCH   5   9
BRANCH   4  12
ATOM     12  S   UNL     1       1.543  -0.890  -2.690  0.00  0.00    +0.033 S 
ATOM     13  O   UNL     1       1.977   0.463  -2.658  0.00  0.00    -0.164 OA
ATOM     14  O   UNL     1       2.444  -1.976  -2.857  0.00  0.00    -0.164 OA
BRANCH  12  15
ATOM     15  C   UNL     1       0.363  -1.009  -3.993  0.00  0.00    +0.131 A 
ATOM     16  C   UNL     1      -0.402  -0.035  -4.543  0.00  0.00    +0.035 A 
ATOM     17  C   UNL     1      -1.268  -0.363  -5.569  0.00  0.00    +0.009 A 
ATOM     18  C   UNL     1      -1.328  -1.649  -5.994  0.00  0.00    +0.047 A 
ATOM     19  S   UNL     1      -0.129  -2.443  -4.936  0.00  0.00    -0.078 S 
ENDBRANCH  12  15
ENDBRANCH   4  12
BRANCH   8  20
ATOM     20  C   UNL     1      -1.396  -1.819   2.433  0.00  0.00    +0.220 C 
BRANCH  20  21
ATOM     21  C   UNL     1      -2.677  -2.562   2.152  0.00  0.00    +0.233 C 
ATOM     22  O   UNL     1      -2.959  -2.878   1.016  0.00  0.00    -0.274 OA
ATOM     23  N   UNL     1      -3.510  -2.875   3.165  0.00  0.00    -0.310 N 
ATOM     24  H   UNL     1      -3.285  -2.623   4.074  0.00  0.00    +0.149 HD
BRANCH  23  25
ATOM     25  C   UNL     1      -4.755  -3.598   2.892  0.00  0.00    +0.141 C 
BRANCH  25  26
ATOM     26  C   UNL     1      -5.499  -3.822   4.184  0.00  0.00    -0.011 A 
ATOM     27  C   UNL     1      -5.428  -5.050   4.830  0.00  0.00    +0.010 A 
ATOM     28  C   UNL     1      -6.125  -5.214   6.013  0.00  0.00    +0.041 A 
ATOM     29  C   UNL     1      -6.870  -4.150   6.513  0.00  0.00    +0.094 A 
ATOM     30  N   UNL     1      -6.912  -2.995   5.867  0.00  0.00    -0.347 N 
ATOM     31  C   UNL     1      -6.252  -2.808   4.740  0.00  0.00    +0.019 A 
ATOM     32  C   UNL     1      -6.327  -1.472   4.047  0.00  0.00    +0.063 C 
ATOM     33  N   UNL     1      -7.576  -4.302   7.701  0.00  0.00    -0.345 N 
ATOM     34  H   UNL     1      -7.548  -5.147   8.177  0.00  0.00    +0.144 HD
ATOM     35  H   UNL     1      -8.096  -3.563   8.053  0.00  0.00    +0.144 HD
ATOM     36  H   UNL     1      -7.438  -2.267   6.234  0.00  0.00    +0.167 HD
ENDBRANCH  25  26
ENDBRANCH  23  25
ENDBRANCH  20  21
ENDBRANCH   8  20
TORSDOF 7
