REMARK  Name = ZINC35642698
REMARK  9 active torsions:
REMARK  status: ('A' for Active; 'I' for Inactive)
REMARK    1  A    between atoms: C_1  and  C_2
REMARK    2  A    between atoms: C_2  and  O_3
REMARK    3  A    between atoms: O_3  and  C_4
REMARK    4  A    between atoms: C_4  and  C_6
REMARK    5  A    between atoms: C_7  and  C_22
REMARK    6  A    between atoms: N_8  and  C_21
REMARK    7  A    between atoms: C_12  and  C_14
REMARK    8  A    between atoms: C_22  and  N_23
REMARK    9  A    between atoms: C_30  and  C_32
REMARK                            x       y       z     vdW  Elec       q    Type
REMARK                         _______ _______ _______ _____ _____    ______ ____
ROOT
ATOM      1  C   UNL     1      -2.261  -2.791   0.811  0.00  0.00    +0.080 C 
ATOM      2  C   UNL     1      -2.807  -3.926   0.324  0.00  0.00    +0.041 C 
ATOM      3  N   UNL     1      -4.156  -4.037   0.140  0.00  0.00    -0.260 N 
ATOM      4  C   UNL     1      -5.027  -3.059   0.419  0.00  0.00    +0.307 C 
ATOM      5  O   UNL     1      -6.210  -3.252   0.222  0.00  0.00    -0.252 OA
ATOM      6  N   UNL     1      -4.633  -1.868   0.911  0.00  0.00    -0.288 N 
ATOM      7  C   UNL     1      -3.197  -1.649   1.152  0.00  0.00    +0.144 C 
ATOM      8  C   UNL     1      -4.679  -5.298  -0.392  0.00  0.00    +0.139 C 
ATOM      9  H   UNL     1      -5.281  -1.173   1.106  0.00  0.00    +0.151 HD
ENDROOT
BRANCH   7  10
ATOM     10  C   UNL     1      -3.010  -1.315   2.609  0.00  0.00    -0.022 A 
ATOM     11  C   UNL     1      -3.619  -2.090   3.579  0.00  0.00    +0.008 A 
ATOM     12  C   UNL     1      -3.449  -1.785   4.916  0.00  0.00    +0.038 A 
ATOM     13  C   UNL     1      -2.667  -0.703   5.284  0.00  0.00    +0.123 A 
ATOM     14  C   UNL     1      -2.058   0.073   4.313  0.00  0.00    +0.038 A 
ATOM     15  C   UNL     1      -2.226  -0.237   2.976  0.00  0.00    +0.008 A 
ATOM     16  F   UNL     1      -2.500  -0.404   6.591  0.00  0.00    -0.205 F 
ENDBRANCH   7  10
BRANCH   1  17
ATOM     17  C   UNL     1      -0.865  -2.674   1.002  0.00  0.00    +0.339 C 
ATOM     18  O   UNL     1      -0.146  -3.643   0.840  0.00  0.00    -0.245 OA
BRANCH  17  19
ATOM     19  O   UNL     1      -0.330  -1.489   1.363  0.00  0.00    -0.462 OA
BRANCH  19  21
ATOM     20  C   UNL     1       1.507  -0.029   1.943  0.00  0.00    +0.048 C 
ATOM     21  C   UNL     1       1.088  -1.444   1.538  0.00  0.00    +0.229 C 
ENDBRANCH  19  21
ENDBRANCH  17  19
ENDBRANCH   1  17
BRANCH   2  22
ATOM     22  C   UNL     1      -1.913  -5.089  -0.024  0.00  0.00    +0.136 C 
BRANCH  22  23
ATOM     23  N   UNL     1      -1.651  -5.882   1.184  0.00  0.00    -0.295 NA
ATOM     24  C   UNL     1      -0.503  -6.766   0.991  0.00  0.00    +0.086 C 
ATOM     25  C   UNL     1       0.261  -6.879   2.292  0.00  0.00    +0.034 C 
ATOM     26  C   UNL     1      -0.251  -8.091   3.088  0.00  0.00    +0.109 C 
ATOM     27  N   UNL     1      -1.719  -8.213   2.995  0.00  0.00    -0.296 N 
ATOM     28  C   UNL     1      -2.602  -7.068   3.076  0.00  0.00    +0.123 C 
ATOM     29  C   UNL     1      -2.836  -6.488   1.661  0.00  0.00    +0.103 C 
ATOM     30  C   UNL     1      -2.258  -9.437   2.828  0.00  0.00    +0.253 C 
ATOM     31  O   UNL     1      -1.550 -10.426   2.875  0.00  0.00    -0.269 OA
BRANCH  30  32
ATOM     32  C   UNL     1      -3.698  -9.577   2.589  0.00  0.00    +0.074 A 
ATOM     33  C   UNL     1      -4.463 -10.731   2.516  0.00  0.00    +0.021 A 
ATOM     34  C   UNL     1      -5.804 -10.543   2.278  0.00  0.00    +0.008 A 
ATOM     35  C   UNL     1      -6.278  -9.281   2.134  0.00  0.00    +0.046 A 
ATOM     36  S   UNL     1      -4.921  -8.308   2.325  0.00  0.00    -0.092 S 
ENDBRANCH  30  32
ENDBRANCH  22  23
ENDBRANCH   2  22
TORSDOF 7
