REMARK  Name = ZINC38990420
REMARK  6 active torsions:
REMARK  status: ('A' for Active; 'I' for Inactive)
REMARK    1  A    between atoms: C_4  and  C_7
REMARK    2  A    between atoms: C_9  and  C_13
REMARK    3  A    between atoms: C_17  and  S_21
REMARK    4  A    between atoms: N_19  and  N_20
REMARK    5  A    between atoms: S_21  and  C_22
REMARK    6  A    between atoms: C_22  and  C_23
REMARK                            x       y       z     vdW  Elec       q    Type
REMARK                         _______ _______ _______ _____ _____    ______ ____
ROOT
ATOM      1  C   UNL     1       5.760  -2.985  -1.339  0.00  0.00    +0.185 C 
ATOM      2  N   UNL     1       5.570  -2.126  -2.537  0.00  0.00    -0.234 NA
ATOM      3  N   UNL     1       6.517  -2.696  -3.508  0.00  0.00    -0.228 NA
ATOM      4  C   UNL     1       7.698  -3.070  -2.698  0.00  0.00    +0.214 C 
ATOM      5  N   UNL     1       7.215  -3.260  -1.312  0.00  0.00    -0.197 NA
ATOM      6  H   UNL     1       5.798  -1.164  -2.331  0.00  0.00    +0.143 HD
ATOM      7  H   UNL     1       6.763  -2.018  -4.214  0.00  0.00    +0.143 HD
ENDROOT
BRANCH   1  10
ATOM      8  C   UNL     1       3.695  -0.686  -0.047  0.00  0.00    +0.091 C 
ATOM      9  C   UNL     1       3.829  -2.026  -0.059  0.00  0.00    +0.034 C 
ATOM     10  C   UNL     1       5.332  -2.241  -0.072  0.00  0.00    +0.187 C 
ATOM     11  N   UNL     1       5.867  -0.869  -0.065  0.00  0.00    -0.176 NA
ATOM     12  N   UNL     1       4.915  -0.087  -0.057  0.00  0.00    -0.154 NA
BRANCH   8  16
ATOM     13  C   UNL     1      -0.022   1.380  -0.003  0.00  0.00    +0.000 A 
ATOM     14  C   UNL     1       1.163   2.094  -0.011  0.00  0.00    +0.001 A 
ATOM     15  C   UNL     1       2.373   1.429  -0.025  0.00  0.00    +0.010 A 
ATOM     16  C   UNL     1       2.398   0.035  -0.031  0.00  0.00    +0.002 A 
ATOM     17  C   UNL     1       1.201  -0.678  -0.023  0.00  0.00    +0.010 A 
ATOM     18  C   UNL     1      -0.002  -0.003  -0.009  0.00  0.00    +0.001 A 
ENDBRANCH   8  16
ENDBRANCH   1  10
BRANCH   5  19
ATOM     19  N   UNL     1       7.898  -2.361  -0.395  0.00  0.00    -0.264 NA
ATOM     20  H   UNL     1       8.890  -2.547  -0.377  0.00  0.00    +0.137 HD
ATOM     21  H   UNL     1       7.716  -1.397  -0.632  0.00  0.00    +0.137 HD
ENDBRANCH   5  19
BRANCH   4  22
ATOM     22  S   UNL     1       8.415  -4.615  -3.321  0.00  0.00    -0.115 S 
BRANCH  22  23
ATOM     23  C   UNL     1       7.056  -5.811  -3.196  0.00  0.00    +0.168 C 
BRANCH  23  24
ATOM     24  C   UNL     1       7.524  -7.156  -3.689  0.00  0.00    +0.228 C 
ATOM     25  O   UNL     1       8.662  -7.295  -4.086  0.00  0.00    -0.275 OA
ATOM     26  N   UNL     1       6.678  -8.206  -3.689  0.00  0.00    -0.270 N 
ATOM     27  C   UNL     1       7.077  -9.422  -4.242  0.00  0.00    +0.125 A 
ATOM     28  C   UNL     1       6.165 -10.467  -4.335  0.00  0.00    +0.045 A 
ATOM     29  C   UNL     1       6.572 -11.669  -4.886  0.00  0.00    +0.025 A 
ATOM     30  C   UNL     1       7.884 -11.785  -5.328  0.00  0.00    +0.059 A 
ATOM     31  C   UNL     1       8.736 -10.704  -5.205  0.00  0.00    +0.132 A 
ATOM     32  N   UNL     1       8.317  -9.569  -4.680  0.00  0.00    -0.239 NA
ATOM     33 CL   UNL     1       8.447 -13.271  -6.027  0.00  0.00    -0.082 Cl
ATOM     34  H   UNL     1       5.793  -8.114  -3.304  0.00  0.00    +0.156 HD
ENDBRANCH  23  24
ENDBRANCH  22  23
ENDBRANCH   4  22
TORSDOF 6
