REMARK  Name = ZINC39671078
REMARK  10 active torsions:
REMARK  status: ('A' for Active; 'I' for Inactive)
REMARK    1  A    between atoms: C_1  and  C_2
REMARK    2  A    between atoms: C_2  and  C_3
REMARK    3  A    between atoms: C_2  and  C_4
REMARK    4  A    between atoms: C_4  and  C_6
REMARK    5  A    between atoms: C_4  and  O_29
REMARK    6  A    between atoms: C_10  and  C_19
REMARK    7  A    between atoms: N_21  and  C_22
REMARK    8  A    between atoms: C_22  and  C_23
REMARK    9  A    between atoms: C_23  and  C_24
REMARK   10  A    between atoms: O_29  and  C_30
REMARK                            x       y       z     vdW  Elec       q    Type
REMARK                         _______ _______ _______ _____ _____    ______ ____
ROOT
ATOM      1  C   UNL     1       0.721  -1.903   1.659  0.00  0.00    +0.257 C 
ATOM      2  O   UNL     1       1.762  -2.521   1.725  0.00  0.00    -0.272 OA
ATOM      3  N   UNL     1      -0.455  -2.562   1.658  0.00  0.00    -0.297 N 
ATOM      4  C   UNL     1      -1.820  -1.986   1.653  0.00  0.00    +0.121 C 
ATOM      5  C   UNL     1      -2.627  -2.901   0.706  0.00  0.00    +0.100 C 
ATOM      6  C   UNL     1      -1.872  -4.240   0.716  0.00  0.00    -0.004 C 
ATOM      7  C   UNL     1      -0.674  -4.029   1.653  0.00  0.00    +0.115 C 
ATOM      8  C   UNL     1      -1.381  -4.581  -0.688  0.00  0.00    -0.010 C 
ATOM      9  C   UNL     1      -0.683  -5.943  -0.663  0.00  0.00    -0.082 C 
ATOM     10  N   UNL     1      -1.621  -6.968  -0.190  0.00  0.00    +0.379 N 
ATOM     11  C   UNL     1      -2.017  -6.683   1.195  0.00  0.00    -0.082 C 
ATOM     12  C   UNL     1      -2.771  -5.351   1.249  0.00  0.00    -0.010 C 
ATOM     13  H   UNL     1      -2.441  -6.969  -0.778  0.00  0.00    -0.086 HD
ATOM     14  H   UNL     1      -1.179  -7.873  -0.232  0.00  0.00    -0.086 HD
ENDROOT
BRANCH   5  15
ATOM     15  C   UNL     1      -2.655  -2.322  -0.685  0.00  0.00    +0.218 C 
ATOM     16  O   UNL     1      -1.673  -1.768  -1.131  0.00  0.00    -0.275 OA
ATOM     17  N   UNL     1      -3.772  -2.420  -1.433  0.00  0.00    -0.315 N 
ATOM     18  H   UNL     1      -4.558  -2.862  -1.076  0.00  0.00    +0.149 HD
BRANCH  17  19
ATOM     19  C   UNL     1      -3.800  -1.857  -2.785  0.00  0.00    +0.112 C 
BRANCH  19  20
ATOM     20  C   UNL     1      -5.174  -2.101  -3.412  0.00  0.00    +0.093 C 
BRANCH  20  21
ATOM     21  C   UNL     1      -5.202  -1.522  -4.803  0.00  0.00    +0.106 A 
ATOM     22  C   UNL     1      -4.869  -2.172  -5.932  0.00  0.00    +0.044 A 
ATOM     23  C   UNL     1      -5.041  -1.258  -6.997  0.00  0.00    +0.041 A 
ATOM     24  C   UNL     1      -5.468  -0.104  -6.454  0.00  0.00    +0.195 A 
ATOM     25  O   UNL     1      -5.570  -0.272  -5.126  0.00  0.00    -0.468 OA
ENDBRANCH  20  21
ENDBRANCH  19  20
ENDBRANCH  17  19
ENDBRANCH   5  15
BRANCH   1  26
ATOM     26  C   UNL     1       0.741  -0.398   1.579  0.00  0.00    +0.261 C 
BRANCH  26  28
ATOM     27  C   UNL     1       0.187   1.573   0.147  0.00  0.00    +0.011 C 
ATOM     28  C   UNL     1       0.259   0.045   0.197  0.00  0.00    +0.033 C 
ATOM     29  C   UNL     1       1.236  -0.454  -0.869  0.00  0.00    +0.011 C 
ENDBRANCH  26  28
BRANCH  26  30
ATOM     30  O   UNL     1       2.073   0.073   1.793  0.00  0.00    -0.479 OA
BRANCH  30  31
ATOM     31  C   UNL     1       2.211   1.270   2.420  0.00  0.00    +0.122 A 
ATOM     32  C   UNL     1       1.091   1.942   2.890  0.00  0.00    +0.045 A 
ATOM     33  C   UNL     1       1.234   3.159   3.527  0.00  0.00    +0.004 A 
ATOM     34  C   UNL     1       2.491   3.708   3.697  0.00  0.00    +0.000 A 
ATOM     35  C   UNL     1       3.609   3.041   3.229  0.00  0.00    +0.004 A 
ATOM     36  C   UNL     1       3.472   1.821   2.597  0.00  0.00    +0.045 A 
ENDBRANCH  30  31
ENDBRANCH  26  30
ENDBRANCH   1  26
TORSDOF 8
