REMARK  Name = ZINC03841455
REMARK  8 active torsions:
REMARK  status: ('A' for Active; 'I' for Inactive)
REMARK    1  A    between atoms: C_1  and  N_2
REMARK    2  A    between atoms: C_4  and  C_11
REMARK    3  A    between atoms: C_11  and  N_67
REMARK    4  A    between atoms: C_22  and  N_27
REMARK    5  A    between atoms: N_27  and  S_28
REMARK    6  A    between atoms: S_28  and  C_31
REMARK    7  A    between atoms: C_34  and  O_37
REMARK    8  A    between atoms: O_37  and  C_38
REMARK                            x       y       z     vdW  Elec       q    Type
REMARK                         _______ _______ _______ _____ _____    ______ ____
ROOT
ATOM      1  C   UNL     1      -0.429   6.816   0.081  0.00  0.00    -0.073 C 
ATOM      2  C   UNL     1      -0.181   6.365  -1.351  0.00  0.00    -0.007 C 
ATOM      3  C   UNL     1      -1.419   5.668  -1.923  0.00  0.00    +0.011 C 
ATOM      4  C   UNL     1      -1.761   4.497  -0.995  0.00  0.00    +0.020 C 
ATOM      5  C   UNL     1      -2.078   5.069   0.397  0.00  0.00    -0.069 C 
ATOM      6  C   UNL     1      -0.549   3.604  -0.854  0.00  0.00    +0.023 A 
ATOM      7  C   UNL     1      -0.767   2.293  -0.573  0.00  0.00    +0.023 A 
ATOM      8  C   UNL     1       0.305   1.429  -0.319  0.00  0.00    +0.031 A 
ATOM      9  C   UNL     1       1.578   1.928  -0.361  0.00  0.00    +0.112 A 
ATOM     10  C   UNL     1       1.770   3.287  -0.677  0.00  0.00    +0.274 A 
ATOM     11  O   UNL     1       2.899   3.752  -0.684  0.00  0.00    -0.266 OA
ATOM     12  N   UNL     1       0.714   4.084  -0.974  0.00  0.00    -0.310 N 
ATOM     13  C   UNL     1       1.015   5.434  -1.451  0.00  0.00    +0.127 C 
ATOM     14  N   UNL     1      -0.832   5.672   0.923  0.00  0.00    +0.383 N 
ATOM     15  H   UNL     1      -0.087   4.966   0.905  0.00  0.00    -0.081 HD
ENDROOT
BRANCH   9  16
ATOM     16  N   UNL     1       2.675   1.099  -0.094  0.00  0.00    -0.211 N 
ATOM     17  H   UNL     1       3.568   1.474  -0.056  0.00  0.00    +0.174 HD
BRANCH  16  18
ATOM     18  S   UNL     1       2.446  -0.522   0.156  0.00  0.00    +0.073 S 
ATOM     19  O   UNL     1       3.734  -1.088   0.355  0.00  0.00    -0.150 OA
ATOM     20  O   UNL     1       1.404  -0.641   1.115  0.00  0.00    -0.150 OA
BRANCH  18  21
ATOM     21  C   UNL     1       1.825  -1.199  -1.348  0.00  0.00    +0.109 A 
ATOM     22  C   UNL     1       0.464  -1.370  -1.518  0.00  0.00    +0.032 A 
ATOM     23  C   UNL     1      -0.025  -1.895  -2.698  0.00  0.00    +0.047 A 
ATOM     24  C   UNL     1       0.851  -2.261  -3.709  0.00  0.00    +0.120 A 
ATOM     25  C   UNL     1       2.217  -2.094  -3.534  0.00  0.00    +0.047 A 
ATOM     26  C   UNL     1       2.701  -1.563  -2.353  0.00  0.00    +0.032 A 
BRANCH  24  27
ATOM     27  O   UNL     1       0.373  -2.784  -4.869  0.00  0.00    -0.495 OA
ATOM     28  C   UNL     1      -1.045  -2.927  -4.979  0.00  0.00    +0.277 C 
ENDBRANCH  24  27
ENDBRANCH  18  21
ENDBRANCH  16  18
ENDBRANCH   9  16
BRANCH  14  29
ATOM     29  C   UNL     1      -1.036   6.118   2.316  0.00  0.00    -0.041 C 
BRANCH  29  33
ATOM     30  C   UNL     1      -4.547   3.374   4.643  0.00  0.00    +0.149 C 
ATOM     31  N   UNL     1      -3.240   3.790   4.127  0.00  0.00    -0.349 N 
ATOM     32  C   UNL     1      -3.003   4.934   3.416  0.00  0.00    +0.088 A 
ATOM     33  C   UNL     1      -1.702   5.013   3.096  0.00  0.00    -0.039 A 
ATOM     34  C   UNL     1      -1.053   3.819   3.642  0.00  0.00    +0.001 A 
ATOM     35  C   UNL     1      -2.067   3.087   4.287  0.00  0.00    +0.049 A 
ATOM     36  C   UNL     1      -1.747   1.886   4.912  0.00  0.00    +0.026 A 
ATOM     37  C   UNL     1      -0.446   1.433   4.899  0.00  0.00    +0.002 A 
ATOM     38  C   UNL     1       0.551   2.162   4.268  0.00  0.00    +0.001 A 
ATOM     39  C   UNL     1       0.260   3.345   3.647  0.00  0.00    +0.010 A 
ENDBRANCH  29  33
ENDBRANCH  14  29
TORSDOF 6
