REMARK  Name = ZINC01893746
REMARK  8 active torsions:
REMARK  status: ('A' for Active; 'I' for Inactive)
REMARK    1  A    between atoms: C_1  and  C_2
REMARK    2  A    between atoms: C_2  and  C_3
REMARK    3  A    between atoms: C_3  and  C_4
REMARK    4  A    between atoms: C_4  and  N_5
REMARK    5  A    between atoms: C_11  and  S_12
REMARK    6  A    between atoms: S_12  and  C_13
REMARK    7  A    between atoms: C_13  and  C_14
REMARK    8  A    between atoms: N_16  and  C_17
REMARK                            x       y       z     vdW  Elec       q    Type
REMARK                         _______ _______ _______ _____ _____    ______ ____
ROOT
ATOM      1  N   UNL     1      -2.784  -2.582   0.015  0.00  0.00    -0.288 N 
ATOM      2  C   UNL     1      -3.403  -2.824   1.190  0.00  0.00    +0.259 A 
ATOM      3  O   UNL     1      -2.825  -2.640   2.249  0.00  0.00    -0.267 OA
ATOM      4  C   UNL     1      -4.724  -3.290   1.168  0.00  0.00    +0.050 A 
ATOM      5  C   UNL     1      -5.346  -3.482  -0.055  0.00  0.00    +0.083 A 
ATOM      6  N   UNL     1      -4.672  -3.256  -1.189  0.00  0.00    -0.223 NA
ATOM      7  C   UNL     1      -3.432  -2.812  -1.161  0.00  0.00    +0.173 A 
ATOM      8  C   UNL     1      -6.763  -3.909  -0.084  0.00  0.00    +0.004 A 
ATOM      9  C   UNL     1      -7.333  -4.405  -1.254  0.00  0.00    +0.010 A 
ATOM     10  C   UNL     1      -8.651  -4.816  -1.252  0.00  0.00    +0.001 A 
ATOM     11  C   UNL     1      -9.400  -4.737  -0.091  0.00  0.00    +0.000 A 
ATOM     12  C   UNL     1      -8.840  -4.237   1.071  0.00  0.00    +0.004 A 
ATOM     13  C   UNL     1      -7.526  -3.813   1.079  0.00  0.00    -0.037 A 
ATOM     14  C   UNL     1      -6.928  -3.220   2.326  0.00  0.00    +0.047 C 
ATOM     15  C   UNL     1      -5.452  -3.593   2.450  0.00  0.00    +0.007 C 
ATOM     16  C   UNL     1      -5.331  -5.088   2.760  0.00  0.00    +0.012 C 
ATOM     17  C   UNL     1      -6.064  -5.398   4.067  0.00  0.00    +0.001 C 
ATOM     18  C   UNL     1      -5.439  -4.591   5.207  0.00  0.00    +0.000 C 
ATOM     19  C   UNL     1      -5.555  -3.098   4.897  0.00  0.00    +0.001 C 
ATOM     20  C   UNL     1      -4.821  -2.789   3.591  0.00  0.00    +0.012 C 
ENDROOT
BRANCH   1  21
ATOM     21  C   UNL     1      -1.413  -2.066   0.005  0.00  0.00    +0.127 C 
BRANCH  21  22
ATOM     22  C   UNL     1      -1.444  -0.536   0.018  0.00  0.00    +0.021 C 
BRANCH  22  24
ATOM     23  C   UNL     1      -0.043   1.533   0.020  0.00  0.00    +0.004 C 
ATOM     24  C   UNL     1      -0.012   0.003   0.007  0.00  0.00    -0.002 C 
ENDBRANCH  22  24
ENDBRANCH  21  22
ENDBRANCH   1  21
BRANCH   7  25
ATOM     25  S   UNL     1      -2.590  -2.514  -2.680  0.00  0.00    -0.078 S 
BRANCH  25  26
ATOM     26  C   UNL     1      -3.811  -2.947  -3.950  0.00  0.00    +0.173 C 
BRANCH  26  27
ATOM     27  C   UNL     1      -3.211  -2.735  -5.316  0.00  0.00    +0.227 C 
ATOM     28  O   UNL     1      -2.071  -2.332  -5.423  0.00  0.00    -0.275 OA
ATOM     29  N   UNL     1      -3.940  -2.993  -6.420  0.00  0.00    -0.285 N 
ATOM     30  H   UNL     1      -4.826  -3.378  -6.337  0.00  0.00    +0.155 HD
BRANCH  29  31
ATOM     31  C   UNL     1      -3.418  -2.705  -7.687  0.00  0.00    +0.033 A 
ATOM     32  C   UNL     1      -4.257  -2.257  -8.699  0.00  0.00    +0.024 A 
ATOM     33  C   UNL     1      -3.739  -1.974  -9.947  0.00  0.00    +0.017 A 
ATOM     34  C   UNL     1      -2.387  -2.136 -10.191  0.00  0.00    +0.018 A 
ATOM     35  C   UNL     1      -1.549  -2.582  -9.184  0.00  0.00    +0.017 A 
ATOM     36  C   UNL     1      -2.060  -2.862  -7.932  0.00  0.00    +0.024 A 
ATOM     37 BR   UNL     1      -1.682  -1.747 -11.902  0.00  0.00    -0.050 Br
ENDBRANCH  29  31
ENDBRANCH  26  27
ENDBRANCH  25  26
ENDBRANCH   7  25
TORSDOF 7
