REMARK  Name = ZINC23211618
REMARK  5 active torsions:
REMARK  status: ('A' for Active; 'I' for Inactive)
REMARK    1  A    between atoms: C_6  and  N_7
REMARK    2  A    between atoms: C_8  and  C_10
REMARK    3  A    between atoms: C_10  and  N_11
REMARK    4  A    between atoms: N_11  and  C_12
REMARK    5  A    between atoms: C_12  and  C_14
REMARK                            x       y       z     vdW  Elec       q    Type
REMARK                         _______ _______ _______ _____ _____    ______ ____
ROOT
ATOM      1  N   UNL     1      -0.011   0.966   0.007  0.00  0.00    -0.284 N 
ATOM      2  C   UNL     1       1.050   1.777  -0.174  0.00  0.00    +0.233 C 
ATOM      3  O   UNL     1       0.879   2.953  -0.417  0.00  0.00    -0.274 OA
ATOM      4  H   UNL     1       0.140  -0.115   0.144  0.00  0.00    +0.155 HD
ENDROOT
BRANCH   1  10
ATOM      5  C   UNL     1      -1.528   2.769   0.536  0.00  0.00    +0.024 A 
ATOM      6  C   UNL     1      -2.805   3.295   0.544  0.00  0.00    +0.017 A 
ATOM      7  C   UNL     1      -3.864   2.553   0.051  0.00  0.00    +0.018 A 
ATOM      8  C   UNL     1      -3.645   1.284  -0.456  0.00  0.00    +0.017 A 
ATOM      9  C   UNL     1      -2.369   0.756  -0.472  0.00  0.00    +0.024 A 
ATOM     10  C   UNL     1      -1.305   1.499   0.022  0.00  0.00    +0.033 A 
ATOM     11 BR   UNL     1      -5.612   3.273   0.071  0.00  0.00    -0.050 Br
ENDBRANCH   1  10
BRANCH   2  12
ATOM     12  C   UNL     1       2.448   1.223  -0.076  0.00  0.00    +0.181 C 
BRANCH  12  13
ATOM     13  N   UNL     1       3.416   2.296  -0.311  0.00  0.00    -0.383 NA
ATOM     14  H   UNL     1       3.259   2.719  -1.315  0.00  0.00    +0.125 HD
ATOM     15  H   UNL     1       3.281   3.085   0.444  0.00  0.00    +0.125 HD
BRANCH  13  16
ATOM     16  C   UNL     1       4.759   2.028  -0.272  0.00  0.00    +0.154 C 
ATOM     17  N   UNL     1       5.172   0.827  -0.027  0.00  0.00    -0.135 NA
BRANCH  16  18
ATOM     18  C   UNL     1       5.756   3.132  -0.514  0.00  0.00    +0.246 C 
ATOM     19 CL   UNL     1       7.428   2.469  -0.396  0.00  0.00    -0.075 Cl
ATOM     20 CL   UNL     1       5.498   3.825  -2.159  0.00  0.00    -0.075 Cl
ATOM     21 CL   UNL     1       5.533   4.424   0.724  0.00  0.00    -0.075 Cl
ENDBRANCH  16  18
ENDBRANCH  13  16
ENDBRANCH  12  13
ENDBRANCH   2  12
TORSDOF 5
