REMARK  Name = ZINC40708855
REMARK  7 active torsions:
REMARK  status: ('A' for Active; 'I' for Inactive)
REMARK    1  A    between atoms: C_1  and  C_2
REMARK    2  A    between atoms: C_2  and  O_3
REMARK    3  A    between atoms: O_3  and  C_4
REMARK    4  A    between atoms: C_9  and  C_10
REMARK    5  A    between atoms: C_11  and  C_20
REMARK    6  A    between atoms: C_20  and  C_21
REMARK    7  A    between atoms: C_21  and  N_22
REMARK                            x       y       z     vdW  Elec       q    Type
REMARK                         _______ _______ _______ _____ _____    ______ ____
ROOT
ATOM      1  C   UNL     1       1.988  -1.420  -3.486  0.00  0.00    +0.096 A 
ATOM      2  C   UNL     1       2.712  -1.797  -4.576  0.00  0.00    +0.049 A 
ATOM      3  N   UNL     1       3.041  -0.656  -5.253  0.00  0.00    -0.302 N 
ATOM      4  C   UNL     1       3.749  -0.438  -6.401  0.00  0.00    +0.093 A 
ATOM      5  C   UNL     1       3.935   0.814  -6.867  0.00  0.00    +0.019 A 
ATOM      6  C   UNL     1       3.402   1.915  -6.176  0.00  0.00    +0.020 A 
ATOM      7  C   UNL     1       2.694   1.713  -5.032  0.00  0.00    +0.061 A 
ATOM      8  C   UNL     1       2.507   0.398  -4.557  0.00  0.00    +0.153 A 
ATOM      9  N   UNL     1       1.872  -0.083  -3.498  0.00  0.00    -0.226 NA
ATOM     10 BR   UNL     1       1.968   3.182  -4.087  0.00  0.00    -0.047 Br
ENDROOT
BRANCH   1  16
ATOM     11  C   UNL     1       1.608  -2.067  -1.103  0.00  0.00    +0.130 A 
ATOM     12  C   UNL     1       1.069  -2.921  -0.154  0.00  0.00    +0.046 A 
ATOM     13  C   UNL     1       0.352  -4.033  -0.552  0.00  0.00    +0.004 A 
ATOM     14  C   UNL     1       0.167  -4.301  -1.897  0.00  0.00    +0.001 A 
ATOM     15  C   UNL     1       0.698  -3.458  -2.853  0.00  0.00    +0.014 A 
ATOM     16  C   UNL     1       1.419  -2.332  -2.463  0.00  0.00    +0.044 A 
BRANCH  11  17
ATOM     17  O   UNL     1       2.314  -0.973  -0.714  0.00  0.00    -0.492 OA
BRANCH  17  19
ATOM     18  C   UNL     1       3.284   0.504   0.935  0.00  0.00    +0.048 C 
ATOM     19  C   UNL     1       2.467  -0.767   0.692  0.00  0.00    +0.226 C 
ENDBRANCH  17  19
ENDBRANCH  11  17
ENDBRANCH   1  16
BRANCH   2  20
ATOM     20  C   UNL     1       3.080  -3.206  -4.964  0.00  0.00    +0.036 C 
BRANCH  20  21
ATOM     21  C   UNL     1       4.355  -3.621  -4.226  0.00  0.00    -0.080 C 
BRANCH  21  22
ATOM     22  N   UNL     1       4.714  -4.994  -4.603  0.00  0.00    +0.378 N 
ATOM     23  H   UNL     1       3.962  -5.619  -4.353  0.00  0.00    -0.090 HD
ATOM     24  H   UNL     1       4.872  -5.039  -5.599  0.00  0.00    -0.090 HD
ATOM     25  H   UNL     1       5.555  -5.268  -4.117  0.00  0.00    -0.090 HD
ENDBRANCH  21  22
ENDBRANCH  20  21
ENDBRANCH   2  20
TORSDOF 6
