REMARK  Name = ZINC20864812
REMARK  4 active torsions:
REMARK  status: ('A' for Active; 'I' for Inactive)
REMARK    1  A    between atoms: C_3  and  C_21
REMARK    2  A    between atoms: C_5  and  C_6
REMARK    3  A    between atoms: C_6  and  N_7
REMARK    4  A    between atoms: N_10  and  C_11
REMARK                            x       y       z     vdW  Elec       q    Type
REMARK                         _______ _______ _______ _____ _____    ______ ____
ROOT
ATOM      1  N   UNL     1       0.257   1.564   0.190  0.00  0.00    -0.292 N 
ATOM      2  C   UNL     1      -0.793   2.408   0.222  0.00  0.00    +0.300 C 
ATOM      3  O   UNL     1      -0.620   3.601   0.064  0.00  0.00    -0.253 OA
ATOM      4  N   UNL     1      -2.036   1.929   0.429  0.00  0.00    -0.294 N 
ATOM      5  H   UNL     1       0.101   0.485   0.337  0.00  0.00    +0.151 HD
ATOM      6  H   UNL     1      -2.193   0.850   0.573  0.00  0.00    +0.151 HD
ENDROOT
BRANCH   4   7
ATOM      7  C   UNL     1      -3.178   2.847   0.465  0.00  0.00    +0.037 C 
ATOM      8  C   UNL     1      -2.981   3.864   1.590  0.00  0.00    +0.029 C 
ATOM      9  C   UNL     1      -4.173   4.822   1.627  0.00  0.00    -0.008 C 
ATOM     10  C   UNL     1      -5.457   4.028   1.876  0.00  0.00    +0.007 C 
ATOM     11  C   UNL     1      -5.654   3.011   0.750  0.00  0.00    -0.008 C 
ATOM     12  C   UNL     1      -4.462   2.053   0.713  0.00  0.00    +0.029 C 
ATOM     13  C   UNL     1      -5.760   3.745  -0.588  0.00  0.00    +0.007 C 
ATOM     14  C   UNL     1      -4.476   4.539  -0.837  0.00  0.00    -0.008 C 
ATOM     15  C   UNL     1      -4.278   5.556   0.289  0.00  0.00    +0.007 C 
ATOM     16  C   UNL     1      -3.283   3.581  -0.874  0.00  0.00    +0.029 C 
ENDBRANCH   4   7
BRANCH   1  17
ATOM     17  C   UNL     1       1.607   2.083  -0.042  0.00  0.00    +0.180 C 
BRANCH  17  22
ATOM     18  C   UNL     1       2.968   0.224  -1.118  0.00  0.00    +0.047 A 
ATOM     19  C   UNL     1       3.894  -0.734  -0.676  0.00  0.00    +0.055 A 
ATOM     20  C   UNL     1       4.037  -0.548   0.669  0.00  0.00    +0.190 A 
ATOM     21  O   UNL     1       3.243   0.478   1.036  0.00  0.00    -0.453 OA
ATOM     22  C   UNL     1       2.592   0.943  -0.038  0.00  0.00    +0.123 A 
BRANCH  20  23
ATOM     23  C   UNL     1       4.908  -1.325   1.558  0.00  0.00    +0.282 C 
ATOM     24  O   UNL     1       5.685  -2.137   1.092  0.00  0.00    -0.267 OA
ATOM     25  N   UNL     1       4.848  -1.139   2.892  0.00  0.00    -0.291 N 
ATOM     26  C   UNL     1       3.820  -0.272   3.490  0.00  0.00    +0.136 C 
ATOM     27  C   UNL     1       3.133  -1.053   4.621  0.00  0.00    +0.179 C 
ATOM     28  O   UNL     1       4.128  -1.564   5.511  0.00  0.00    -0.377 OA
ATOM     29  C   UNL     1       5.030  -2.495   4.908  0.00  0.00    +0.179 C 
ATOM     30  C   UNL     1       5.811  -1.792   3.792  0.00  0.00    +0.136 C 
ENDBRANCH  20  23
ENDBRANCH  17  22
ENDBRANCH   1  17
TORSDOF 4
