REMARK  Name = ZINC38688678
REMARK  9 active torsions:
REMARK  status: ('A' for Active; 'I' for Inactive)
REMARK    1  A    between atoms: C_1  and  C_2
REMARK    2  A    between atoms: C_5  and  C_7
REMARK    3  A    between atoms: C_12  and  O_21
REMARK    4  A    between atoms: C_16  and  N_20
REMARK    5  A    between atoms: C_17  and  C_18
REMARK    6  A    between atoms: O_21  and  C_22
REMARK    7  A    between atoms: C_22  and  C_24
REMARK    8  A    between atoms: C_27  and  O_31
REMARK    9  A    between atoms: O_31  and  C_32
REMARK                            x       y       z     vdW  Elec       q    Type
REMARK                         _______ _______ _______ _____ _____    ______ ____
ROOT
ATOM      1  C   UNL     1       1.648  -3.292  -0.050  0.00  0.00    +0.134 C 
ATOM      2  C   UNL     1       2.512  -3.222  -1.280  0.00  0.00    +0.011 A 
ATOM      3  C   UNL     1       2.015  -3.678  -2.489  0.00  0.00    +0.012 A 
ATOM      4  C   UNL     1       2.793  -3.622  -3.627  0.00  0.00    +0.047 A 
ATOM      5  C   UNL     1       4.081  -3.107  -3.563  0.00  0.00    +0.135 A 
ATOM      6  C   UNL     1       4.582  -2.650  -2.355  0.00  0.00    +0.093 A 
ATOM      7  C   UNL     1       3.797  -2.707  -1.210  0.00  0.00    +0.138 A 
ATOM      8  O   UNL     1       4.302  -2.255  -0.036  0.00  0.00    -0.441 OA
ATOM      9  C   UNL     1       3.746  -2.641   1.125  0.00  0.00    +0.199 C 
ATOM     10  C   UNL     1       2.492  -3.139   1.184  0.00  0.00    +0.101 C 
ENDROOT
BRANCH   1  15
ATOM     11  C   UNL     1      -0.388   1.320  -0.219  0.00  0.00    +0.086 C 
ATOM     12  C   UNL     1      -0.260  -0.181  -0.168  0.00  0.00    +0.102 A 
ATOM     13  C   UNL     1      -1.281  -1.057  -0.147  0.00  0.00    +0.044 A 
ATOM     14  C   UNL     1      -0.711  -2.350  -0.100  0.00  0.00    +0.046 A 
ATOM     15  C   UNL     1       0.625  -2.186  -0.095  0.00  0.00    +0.118 A 
ATOM     16  O   UNL     1       0.892  -0.871  -0.142  0.00  0.00    -0.464 OA
ENDBRANCH   1  15
BRANCH   9  17
ATOM     17  N   UNL     1       4.473  -2.524   2.283  0.00  0.00    -0.328 N 
ATOM     18  H   UNL     1       5.375  -2.167   2.256  0.00  0.00    +0.145 HD
ATOM     19  H   UNL     1       4.086  -2.798   3.129  0.00  0.00    +0.145 HD
ENDBRANCH   9  17
BRANCH  10  20
ATOM     20  C   UNL     1       1.957  -3.530   2.453  0.00  0.00    +0.101 C 
ATOM     21  N   UNL     1       1.532  -3.841   3.460  0.00  0.00    -0.191 NA
ENDBRANCH  10  20
BRANCH   5  22
ATOM     22  O   UNL     1       4.849  -3.053  -4.683  0.00  0.00    -0.422 OA
BRANCH  22  23
ATOM     23  C   UNL     1       4.498  -2.181  -5.649  0.00  0.00    +0.345 C 
ATOM     24  O   UNL     1       3.584  -1.402  -5.461  0.00  0.00    -0.245 OA
BRANCH  23  25
ATOM     25  C   UNL     1       5.222  -2.173  -6.933  0.00  0.00    +0.062 A 
ATOM     26  C   UNL     1       6.269  -3.072  -7.153  0.00  0.00    +0.038 A 
ATOM     27  C   UNL     1       6.944  -3.062  -8.354  0.00  0.00    +0.085 A 
ATOM     28  C   UNL     1       6.584  -2.157  -9.348  0.00  0.00    +0.157 A 
ATOM     29  C   UNL     1       5.543  -1.260  -9.133  0.00  0.00    +0.085 A 
ATOM     30  C   UNL     1       4.859  -1.270  -7.936  0.00  0.00    +0.038 A 
ATOM     31 CL   UNL     1       5.099  -0.133 -10.377  0.00  0.00    -0.080 Cl
ATOM     32 CL   UNL     1       8.245  -4.178  -8.629  0.00  0.00    -0.080 Cl
BRANCH  28  33
ATOM     33  O   UNL     1       7.251  -2.149 -10.530  0.00  0.00    -0.492 OA
ATOM     34  C   UNL     1       6.744  -2.992 -11.567  0.00  0.00    +0.277 C 
ENDBRANCH  28  33
ENDBRANCH  23  25
ENDBRANCH  22  23
ENDBRANCH   5  22
TORSDOF 7
