REMARK  Name = ZINC05852054
REMARK  5 active torsions:
REMARK  status: ('A' for Active; 'I' for Inactive)
REMARK    1  A    between atoms: C_1  and  C_2
REMARK    2  A    between atoms: C_5  and  N_8
REMARK    3  A    between atoms: N_8  and  C_9
REMARK    4  A    between atoms: C_24  and  C_29
REMARK    5  A    between atoms: C_29  and  C_31
REMARK                            x       y       z     vdW  Elec       q    Type
REMARK                         _______ _______ _______ _____ _____    ______ ____
ROOT
ATOM      1  C   UNL     1      -0.399  -4.859   1.129  0.00  0.00    +0.043 A 
ATOM      2  C   UNL     1      -0.246  -4.052   2.263  0.00  0.00    +0.026 A 
ATOM      3  C   UNL     1      -0.050  -4.602   3.494  0.00  0.00    +0.028 A 
ATOM      4  C   UNL     1       0.005  -5.993   3.655  0.00  0.00    +0.051 A 
ATOM      5  C   UNL     1      -0.146  -6.821   2.533  0.00  0.00    +0.020 A 
ATOM      6  C   UNL     1      -0.355  -6.252   1.258  0.00  0.00    +0.053 A 
ATOM      7  C   UNL     1      -0.518  -7.121   0.085  0.00  0.00    +0.196 C 
ATOM      8  O   UNL     1      -0.694  -6.634  -1.016  0.00  0.00    -0.287 OA
ATOM      9  C   UNL     1      -0.468  -8.588   0.247  0.00  0.00    +0.030 A 
ATOM     10  C   UNL     1      -0.620  -9.423  -0.858  0.00  0.00    +0.012 A 
ATOM     11  C   UNL     1      -0.572 -10.795  -0.698  0.00  0.00    +0.001 A 
ATOM     12  C   UNL     1      -0.372 -11.349   0.555  0.00  0.00    +0.001 A 
ATOM     13  C   UNL     1      -0.219 -10.538   1.663  0.00  0.00    +0.009 A 
ATOM     14  C   UNL     1      -0.265  -9.152   1.522  0.00  0.00    -0.006 A 
ATOM     15  C   UNL     1      -0.090  -8.275   2.690  0.00  0.00    +0.008 A 
ATOM     16  C   UNL     1       0.114  -8.802   3.972  0.00  0.00    +0.090 A 
ATOM     17  C   UNL     1       0.263  -7.870   5.096  0.00  0.00    +0.260 A 
ATOM     18  O   UNL     1       0.442  -8.306   6.219  0.00  0.00    -0.267 OA
ATOM     19  N   UNL     1       0.205  -6.541   4.902  0.00  0.00    -0.321 N 
ATOM     20  H   UNL     1       0.307  -5.950   5.664  0.00  0.00    +0.169 HD
ENDROOT
BRANCH  16  21
ATOM     21  C   UNL     1       0.177 -10.248   4.185  0.00  0.00    +0.166 C 
ATOM     22  O   UNL     1      -0.836 -10.870   4.429  0.00  0.00    -0.292 OA
ATOM     23  C   UNL     1       1.501 -10.964   4.103  0.00  0.00    +0.092 C 
ENDBRANCH  16  21
BRANCH   1  24
ATOM     24  N   UNL     1      -0.598  -4.281  -0.113  0.00  0.00    -0.314 N 
ATOM     25  H   UNL     1       0.160  -3.949  -0.620  0.00  0.00    +0.152 HD
BRANCH  24  30
ATOM     26  C   UNL     1      -5.838  -3.860  -2.239  0.00  0.00    +0.044 C 
ATOM     27  C   UNL     1      -4.445  -3.972  -1.674  0.00  0.00    -0.050 A 
ATOM     28  C   UNL     1      -3.374  -3.445  -2.372  0.00  0.00    +0.005 A 
ATOM     29  C   UNL     1      -2.096  -3.546  -1.857  0.00  0.00    +0.023 A 
ATOM     30  C   UNL     1      -1.888  -4.177  -0.637  0.00  0.00    +0.031 A 
ATOM     31  C   UNL     1      -2.967  -4.706   0.061  0.00  0.00    +0.023 A 
ATOM     32  C   UNL     1      -4.243  -4.597  -0.457  0.00  0.00    +0.005 A 
ENDBRANCH  24  30
ENDBRANCH   1  24
TORSDOF 3
