REMARK  Name = ZINC05024421
REMARK  3 active torsions:
REMARK  status: ('A' for Active; 'I' for Inactive)
REMARK    1  A    between atoms: C_4  and  C_7
REMARK    2  A    between atoms: N_11  and  N_12
REMARK    3  A    between atoms: C_13  and  C_14
REMARK                            x       y       z     vdW  Elec       q    Type
REMARK                         _______ _______ _______ _____ _____    ______ ____
ROOT
ATOM      1  C   UNL     1       3.672   2.182  -0.024  0.00  0.00    +0.165 C 
ATOM      2  C   UNL     1       3.966   2.773   1.373  0.00  0.00    +0.113 C 
ATOM      3  C   UNL     1       3.972   4.263   1.077  0.00  0.00    +0.175 C 
ATOM      4  N   UNL     1       4.179   5.226   1.940  0.00  0.00    -0.132 NA
ATOM      5  N   UNL     1       3.726   4.406  -0.233  0.00  0.00    -0.137 NA
ATOM      6  N   UNL     1       3.559   3.376  -0.875  0.00  0.00    -0.177 NA
ENDROOT
BRANCH   1  10
ATOM      7  C   UNL     1       0.002  -0.004   0.002  0.00  0.00    +0.000 A 
ATOM      8  C   UNL     1      -0.017   1.378   0.010  0.00  0.00    +0.000 A 
ATOM      9  C   UNL     1       1.171   2.086   0.002  0.00  0.00    +0.006 A 
ATOM     10  C   UNL     1       2.377   1.411  -0.015  0.00  0.00    -0.021 A 
ATOM     11  C   UNL     1       2.396   0.029  -0.022  0.00  0.00    +0.006 A 
ATOM     12  C   UNL     1       1.208  -0.679  -0.013  0.00  0.00    +0.000 A 
ENDBRANCH   1  10
BRANCH   4  13
ATOM     13  N   UNL     1       4.157   6.456   1.551  0.00  0.00    -0.155 NA
ATOM     14  C   UNL     1       4.365   7.424   2.417  0.00  0.00    +0.145 C 
BRANCH  14  15
ATOM     15  C   UNL     1       4.341   8.774   1.990  0.00  0.00    +0.020 A 
ATOM     16  C   UNL     1       4.540   9.895   2.772  0.00  0.00    +0.093 A 
ATOM     17  N   UNL     1       4.440  11.005   2.004  0.00  0.00    -0.360 N 
ATOM     18  H   UNL     1       4.542  11.913   2.329  0.00  0.00    +0.165 HD
ATOM     19  C   UNL     1       4.174  10.666   0.692  0.00  0.00    +0.047 A 
ATOM     20  C   UNL     1       4.105   9.265   0.618  0.00  0.00    +0.008 A 
ATOM     21  C   UNL     1       3.840   8.642  -0.597  0.00  0.00    +0.010 A 
ATOM     22  C   UNL     1       3.655   9.405  -1.730  0.00  0.00    +0.001 A 
ATOM     23  C   UNL     1       3.729  10.788  -1.661  0.00  0.00    +0.002 A 
ATOM     24  C   UNL     1       3.986  11.419  -0.462  0.00  0.00    +0.026 A 
ENDBRANCH  14  15
ENDBRANCH   4  13
TORSDOF 3
