REMARK  Name = ZINC59044748
REMARK  8 active torsions:
REMARK  status: ('A' for Active; 'I' for Inactive)
REMARK    1  A    between atoms: C_2  and  C_3
REMARK    2  A    between atoms: C_3  and  S_4
REMARK    3  A    between atoms: S_4  and  C_5
REMARK    4  A    between atoms: C_11  and  C_13
REMARK    5  A    between atoms: C_13  and  S_14
REMARK    6  A    between atoms: S_14  and  C_15
REMARK    7  A    between atoms: C_18  and  C_21
REMARK    8  A    between atoms: N_19  and  N_20
REMARK                            x       y       z     vdW  Elec       q    Type
REMARK                         _______ _______ _______ _____ _____    ______ ____
ROOT
ATOM      1  S   UNL     1       9.825  -5.299  -0.478  0.00  0.00    -0.075 S 
ENDROOT
BRANCH   1   2
ATOM      2  C   UNL     1      11.204  -6.311  -0.056  0.00  0.00    +0.209 A 
ATOM      3  N   UNL     1      11.353  -7.005   1.050  0.00  0.00    -0.121 NA
ATOM      4  N   UNL     1      12.475  -7.631   1.032  0.00  0.00    -0.127 NA
ATOM      5  C   UNL     1      13.112  -7.375  -0.087  0.00  0.00    +0.182 A 
ATOM      6  N   UNL     1      12.316  -6.526  -0.820  0.00  0.00    -0.224 N 
BRANCH   5   7
ATOM      7  C   UNL     1      14.434  -7.903  -0.486  0.00  0.00    +0.022 A 
ATOM      8  C   UNL     1      15.136  -7.313  -1.539  0.00  0.00    +0.012 A 
ATOM      9  C   UNL     1      16.369  -7.810  -1.906  0.00  0.00    +0.002 A 
ATOM     10  C   UNL     1      16.912  -8.890  -1.234  0.00  0.00    +0.015 A 
ATOM     11  C   UNL     1      16.221  -9.480  -0.189  0.00  0.00    +0.019 A 
ATOM     12  C   UNL     1      14.989  -8.989   0.192  0.00  0.00    +0.027 A 
ATOM     13 BR   UNL     1      16.972 -10.957   0.723  0.00  0.00    -0.050 Br
ENDBRANCH   5   7
BRANCH   6  14
ATOM     14  N   UNL     1      12.582  -6.005  -2.055  0.00  0.00    -0.295 N 
ATOM     15  H   UNL     1      13.072  -5.126  -1.978  0.00  0.00    +0.163 HD
ATOM     16  H   UNL     1      13.100  -6.660  -2.620  0.00  0.00    +0.163 HD
ENDBRANCH   6  14
ENDBRANCH   1   2
BRANCH   1  17
ATOM     17  C   UNL     1       8.717  -5.449   0.951  0.00  0.00    +0.173 C 
BRANCH  17  24
ATOM     18  C   UNL     1       3.071  -2.467   1.357  0.00  0.00    +0.160 A 
ATOM     19  N   UNL     1       3.945  -2.422   0.362  0.00  0.00    -0.133 NA
ATOM     20  N   UNL     1       5.032  -3.059   0.401  0.00  0.00    -0.125 NA
ATOM     21  C   UNL     1       5.368  -3.812   1.435  0.00  0.00    +0.189 A 
ATOM     22  S   UNL     1       3.937  -3.560   2.481  0.00  0.00    -0.024 S 
ATOM     23  N   UNL     1       6.511  -4.578   1.651  0.00  0.00    -0.263 N 
ATOM     24  C   UNL     1       7.481  -4.620   0.717  0.00  0.00    +0.229 C 
ATOM     25  O   UNL     1       7.359  -3.990  -0.313  0.00  0.00    -0.275 OA
ATOM     26  H   UNL     1       6.608  -5.082   2.474  0.00  0.00    +0.157 HD
BRANCH  18  27
ATOM     27  S   UNL     1       1.507  -1.674   1.529  0.00  0.00    -0.093 S 
BRANCH  27  28
ATOM     28  C   UNL     1       1.317  -0.740  -0.015  0.00  0.00    +0.103 C 
BRANCH  28  30
ATOM     29  C   UNL     1      -0.016   1.306   0.009  0.00  0.00    +0.005 C 
ATOM     30  C   UNL     1       0.002  -0.004   0.002  0.00  0.00    -0.023 C 
ENDBRANCH  28  30
ENDBRANCH  27  28
ENDBRANCH  18  27
ENDBRANCH  17  24
ENDBRANCH   1  17
TORSDOF 8
