REMARK  Name = ZINC06253043
REMARK  8 active torsions:
REMARK  status: ('A' for Active; 'I' for Inactive)
REMARK    1  A    between atoms: C_1  and  C_2
REMARK    2  A    between atoms: C_2  and  C_4
REMARK    3  A    between atoms: C_2  and  N_10
REMARK    4  A    between atoms: C_11  and  C_13
REMARK    5  A    between atoms: C_13  and  S_14
REMARK    6  A    between atoms: S_14  and  C_15
REMARK    7  A    between atoms: N_20  and  N_21
REMARK    8  A    between atoms: C_22  and  C_23
REMARK                            x       y       z     vdW  Elec       q    Type
REMARK                         _______ _______ _______ _____ _____    ______ ____
ROOT
ATOM      1  C   UNL     1       0.498  -1.742  -6.333  0.00  0.00    +0.211 A 
ATOM      2  N   UNL     1       0.048  -1.945  -7.575  0.00  0.00    -0.186 NA
ATOM      3  C   UNL     1       1.031  -2.378  -8.338  0.00  0.00    +0.232 A 
ATOM      4  N   UNL     1       2.143  -2.457  -7.577  0.00  0.00    -0.245 N 
ATOM      5  N   UNL     1       1.776  -2.036  -6.289  0.00  0.00    -0.144 NA
ATOM      6  N   UNL     1       0.939  -2.695  -9.679  0.00  0.00    -0.205 N 
ATOM      7  H   UNL     1       1.723  -3.007 -10.158  0.00  0.00    +0.177 HD
ATOM      8  H   UNL     1       3.024  -2.745  -7.864  0.00  0.00    +0.192 HD
ENDROOT
BRANCH   6   9
ATOM      9  N   UNL     1      -0.285  -2.565 -10.348  0.00  0.00    -0.187 NA
ATOM     10  C   UNL     1      -0.371  -2.863 -11.609  0.00  0.00    +0.140 C 
BRANCH  10  11
ATOM     11  C   UNL     1      -1.658  -2.727 -12.312  0.00  0.00    +0.020 A 
ATOM     12  C   UNL     1      -1.903  -3.004 -13.620  0.00  0.00    +0.093 A 
ATOM     13  N   UNL     1      -3.213  -2.754 -13.906  0.00  0.00    -0.360 N 
ATOM     14  H   UNL     1      -3.624  -2.878 -14.776  0.00  0.00    +0.165 HD
ATOM     15  C   UNL     1      -3.868  -2.302 -12.781  0.00  0.00    +0.047 A 
ATOM     16  C   UNL     1      -2.933  -2.269 -11.733  0.00  0.00    +0.008 A 
ATOM     17  C   UNL     1      -3.323  -1.852 -10.462  0.00  0.00    +0.010 A 
ATOM     18  C   UNL     1      -4.630  -1.476 -10.239  0.00  0.00    +0.001 A 
ATOM     19  C   UNL     1      -5.555  -1.512 -11.272  0.00  0.00    +0.002 A 
ATOM     20  C   UNL     1      -5.182  -1.913 -12.536  0.00  0.00    +0.026 A 
ENDBRANCH  10  11
ENDBRANCH   6   9
BRANCH   1  21
ATOM     21  S   UNL     1      -0.466  -1.164  -4.976  0.00  0.00    -0.075 S 
BRANCH  21  22
ATOM     22  C   UNL     1       0.712  -1.094  -3.598  0.00  0.00    +0.173 C 
BRANCH  22  24
ATOM     23  N   UNL     1       0.688  -0.476  -1.203  0.00  0.00    -0.308 N 
ATOM     24  C   UNL     1       0.006  -0.608  -2.358  0.00  0.00    +0.224 C 
ATOM     25  O   UNL     1      -1.175  -0.336  -2.400  0.00  0.00    -0.275 OA
ATOM     26  H   UNL     1       1.632  -0.695  -1.170  0.00  0.00    +0.149 HD
BRANCH  23  28
ATOM     27  C   UNL     1      -0.019   1.526   0.010  0.00  0.00    +0.033 C 
ATOM     28  C   UNL     1       0.002  -0.004   0.002  0.00  0.00    +0.100 C 
BRANCH  28  29
ATOM     29  C   UNL     1       0.731  -0.503   1.223  0.00  0.00    -0.027 A 
ATOM     30  C   UNL     1       2.113  -0.514   1.247  0.00  0.00    +0.005 A 
ATOM     31  C   UNL     1       2.782  -0.972   2.366  0.00  0.00    +0.000 A 
ATOM     32  C   UNL     1       2.068  -1.419   3.463  0.00  0.00    +0.000 A 
ATOM     33  C   UNL     1       0.686  -1.407   3.439  0.00  0.00    +0.000 A 
ATOM     34  C   UNL     1       0.017  -0.945   2.321  0.00  0.00    +0.005 A 
ENDBRANCH  28  29
ENDBRANCH  23  28
ENDBRANCH  22  24
ENDBRANCH  21  22
ENDBRANCH   1  21
TORSDOF 7
