REMARK  Name = ZINC06001665
REMARK  10 active torsions:
REMARK  status: ('A' for Active; 'I' for Inactive)
REMARK    1  A    between atoms: C_1  and  C_2
REMARK    2  A    between atoms: C_2  and  C_3
REMARK    3  A    between atoms: C_3  and  C_5
REMARK    4  A    between atoms: C_3  and  C_6
REMARK    5  A    between atoms: C_6  and  C_8
REMARK    6  A    between atoms: C_9  and  O_22
REMARK    7  A    between atoms: C_10  and  C_21
REMARK    8  A    between atoms: C_11  and  O_20
REMARK    9  A    between atoms: C_15  and  C_18
REMARK   10  A    between atoms: C_15  and  C_19
REMARK                            x       y       z     vdW  Elec       q    Type
REMARK                         _______ _______ _______ _____ _____    ______ ____
ROOT
ATOM      1  C   UNL     1      -0.509   2.209   3.504  0.00  0.00    +0.102 A 
ATOM      2  C   UNL     1       0.239   1.613   2.468  0.00  0.00    +0.137 A 
ATOM      3  C   UNL     1      -0.356   1.333   1.252  0.00  0.00    +0.034 A 
ATOM      4  C   UNL     1      -1.693   1.639   1.036  0.00  0.00    +0.134 A 
ATOM      5  C   UNL     1      -2.448   2.226   2.055  0.00  0.00    +0.059 A 
ATOM      6  C   UNL     1      -1.860   2.516   3.290  0.00  0.00    +0.146 A 
ATOM      7  O   UNL     1      -2.614   3.090   4.257  0.00  0.00    -0.481 OA
ATOM      8  C   UNL     1      -3.629   4.002   3.837  0.00  0.00    +0.124 C 
ATOM      9  C   UNL     1      -4.443   3.407   2.718  0.00  0.00    +0.020 C 
ATOM     10  C   UNL     1      -3.875   2.560   1.860  0.00  0.00    +0.015 C 
ATOM     11  C   UNL     1      -4.548   4.315   5.019  0.00  0.00    +0.060 C 
ATOM     12  C   UNL     1      -2.974   5.297   3.350  0.00  0.00    +0.060 C 
ATOM     13  C   UNL     1       0.454   0.696   0.152  0.00  0.00    +0.051 C 
ENDROOT
BRANCH   1  14
ATOM     14  C   UNL     1       0.119   2.505   4.790  0.00  0.00    +0.173 C 
ATOM     15  O   UNL     1       0.560   3.615   5.009  0.00  0.00    -0.292 OA
BRANCH  14  16
ATOM     16  C   UNL     1       0.220   1.433   5.844  0.00  0.00    +0.057 C 
ATOM     17  C   UNL     1      -1.056   1.427   6.689  0.00  0.00    +0.016 C 
BRANCH  16  19
ATOM     18  C   UNL     1       1.602   0.561   7.734  0.00  0.00    +0.004 C 
ATOM     19  C   UNL     1       1.426   1.714   6.743  0.00  0.00    +0.008 C 
ENDBRANCH  16  19
ENDBRANCH  14  16
ENDBRANCH   1  14
BRANCH   4  20
ATOM     20  O   UNL     1      -2.266   1.366  -0.163  0.00  0.00    -0.506 OA
ATOM     21  H   UNL     1      -2.664   0.486  -0.217  0.00  0.00    +0.292 HD
ENDBRANCH   4  20
BRANCH   2  22
ATOM     22  O   UNL     1       1.547   1.313   2.666  0.00  0.00    -0.506 OA
ATOM     23  H   UNL     1       2.154   2.027   2.427  0.00  0.00    +0.292 HD
ENDBRANCH   2  22
TORSDOF 5
