REMARK  Name = ZINC01508877
REMARK  4 active torsions:
REMARK  status: ('A' for Active; 'I' for Inactive)
REMARK    1  A    between atoms: C_6  and  S_11
REMARK    2  A    between atoms: S_11  and  N_14
REMARK    3  A    between atoms: N_14  and  N_15
REMARK    4  A    between atoms: C_16  and  C_18
REMARK                            x       y       z     vdW  Elec       q    Type
REMARK                         _______ _______ _______ _____ _____    ______ ____
ROOT
ATOM      1  S   UNL     1       1.040   7.702   0.031  0.00  0.00    +0.074 S 
ATOM      2  O   UNL     1       2.275   8.128  -0.529  0.00  0.00    -0.152 OA
ATOM      3  O   UNL     1      -0.216   8.094  -0.506  0.00  0.00    -0.152 OA
ENDROOT
BRANCH   1   9
ATOM      4  C   UNL     1      -0.013   1.076   0.008  0.00  0.00    +0.001 A 
ATOM      5  C   UNL     1      -1.235   1.746   0.017  0.00  0.00    +0.001 A 
ATOM      6  C   UNL     1      -1.288   3.106   0.030  0.00  0.00    +0.008 A 
ATOM      7  C   UNL     1      -0.096   3.849   0.023  0.00  0.00    -0.016 A 
ATOM      8  C   UNL     1      -0.111   5.254   0.030  0.00  0.00    +0.037 A 
ATOM      9  C   UNL     1       1.064   5.940   0.022  0.00  0.00    +0.107 A 
ATOM     10  C   UNL     1       2.286   5.270   0.008  0.00  0.00    +0.029 A 
ATOM     11  C   UNL     1       2.340   3.910  -0.000  0.00  0.00    +0.010 A 
ATOM     12  C   UNL     1       1.147   3.167   0.008  0.00  0.00    -0.018 A 
ATOM     13  C   UNL     1       1.163   1.762   0.000  0.00  0.00    +0.008 A 
ENDBRANCH   1   9
BRANCH   1  14
ATOM     14  N   UNL     1       1.048   8.184   1.616  0.00  0.00    -0.108 NA
ATOM     15  H   UNL     1       0.317   8.717   1.964  0.00  0.00    +0.172 HD
BRANCH  14  16
ATOM     16  N   UNL     1       2.112   7.821   2.452  0.00  0.00    -0.228 N 
ATOM     17  C   UNL     1       2.799   8.771   3.119  0.00  0.00    +0.259 C 
ATOM     18  O   UNL     1       2.496   9.941   2.993  0.00  0.00    -0.269 OA
ATOM     19  H   UNL     1       2.354   6.887   2.553  0.00  0.00    +0.171 HD
BRANCH  17  20
ATOM     20  C   UNL     1       3.921   8.388   4.001  0.00  0.00    +0.038 A 
ATOM     21  C   UNL     1       4.268   7.045   4.152  0.00  0.00    +0.014 A 
ATOM     22  C   UNL     1       5.320   6.695   4.972  0.00  0.00    +0.016 A 
ATOM     23  C   UNL     1       6.024   7.672   5.655  0.00  0.00    +0.018 A 
ATOM     24  C   UNL     1       5.681   9.006   5.515  0.00  0.00    +0.016 A 
ATOM     25  C   UNL     1       4.635   9.369   4.692  0.00  0.00    +0.014 A 
ATOM     26 BR   UNL     1       7.459   7.183   6.785  0.00  0.00    -0.050 Br
ENDBRANCH  17  20
ENDBRANCH  14  16
ENDBRANCH   1  14
TORSDOF 4
