REMARK  Name = ZINC09424897
REMARK  18 active torsions:
REMARK  status: ('A' for Active; 'I' for Inactive)
REMARK    1  A    between atoms: C_1  and  C_2
REMARK    2  A    between atoms: C_2  and  C_3
REMARK    3  A    between atoms: C_3  and  O_4
REMARK    4  A    between atoms: O_4  and  C_5
REMARK    5  A    between atoms: C_8  and  C_14
REMARK    6  A    between atoms: C_10  and  O_11
REMARK    7  A    between atoms: O_11  and  C_12
REMARK    8  A    between atoms: C_12  and  C_13
REMARK    9  A    between atoms: C_16  and  C_27
REMARK   10  A    between atoms: C_17  and  O_26
REMARK   11  A    between atoms: N_20  and  C_21
REMARK   12  A    between atoms: C_21  and  C_22
REMARK   13  A    between atoms: C_22  and  C_23
REMARK   14  A    between atoms: C_23  and  N_76
REMARK   15  A    between atoms: C_24  and  N_76
REMARK   16  A    between atoms: C_25  and  N_76
REMARK   17  A    between atoms: C_27  and  C_29
REMARK   18  A    between atoms: C_36  and  C_39
REMARK                            x       y       z     vdW  Elec       q    Type
REMARK                         _______ _______ _______ _____ _____    ______ ____
ROOT
ATOM      1  C   UNL     1      -1.440  -1.408  -0.036  0.00  0.00    +0.145 C 
ATOM      2  C   UNL     1      -2.756  -0.678   0.089  0.00  0.00    +0.071 C 
ATOM      3  C   UNL     1      -3.732  -1.604  -0.058  0.00  0.00    +0.188 C 
ATOM      4  C   UNL     1      -3.115  -2.927  -0.287  0.00  0.00    +0.282 C 
ATOM      5  O   UNL     1      -3.728  -3.962  -0.459  0.00  0.00    -0.267 OA
ATOM      6  N   UNL     1      -1.774  -2.818  -0.272  0.00  0.00    -0.284 N 
ENDROOT
BRANCH   1  10
ATOM      7  C   UNL     1       0.808  -1.015   3.581  0.00  0.00    +0.162 A 
ATOM      8  C   UNL     1      -0.331  -1.803   3.552  0.00  0.00    +0.050 A 
ATOM      9  C   UNL     1      -1.059  -1.923   2.382  0.00  0.00    +0.009 A 
ATOM     10  C   UNL     1      -0.646  -1.268   1.237  0.00  0.00    -0.019 A 
ATOM     11  C   UNL     1       0.490  -0.481   1.259  0.00  0.00    +0.055 A 
ATOM     12  C   UNL     1       1.221  -0.352   2.429  0.00  0.00    +0.162 A 
BRANCH   7  13
ATOM     13  O   UNL     1       1.522  -0.891   4.732  0.00  0.00    -0.488 OA
BRANCH  13  14
ATOM     14  C   UNL     1       1.039  -1.601   5.874  0.00  0.00    +0.229 C 
BRANCH  14  16
ATOM     15  C   UNL     1       1.448  -2.101   8.287  0.00  0.00    +0.007 C 
ATOM     16  C   UNL     1       1.965  -1.341   7.064  0.00  0.00    +0.038 C 
ENDBRANCH  14  16
ENDBRANCH  13  14
ENDBRANCH   7  13
BRANCH  12  17
ATOM     17  O   UNL     1       2.339   0.422   2.452  0.00  0.00    -0.489 OA
BRANCH  17  18
ATOM     18  C   UNL     1       2.767   0.981   1.209  0.00  0.00    +0.226 C 
ATOM     19  C   UNL     1       4.095   1.714   1.409  0.00  0.00    +0.048 C 
ENDBRANCH  17  18
ENDBRANCH  12  17
ENDBRANCH   1  10
BRANCH   3  20
ATOM     20  O   UNL     1      -5.061  -1.357  -0.006  0.00  0.00    -0.502 OA
ATOM     21  H   UNL     1      -5.564  -2.210  -0.145  0.00  0.00    +0.292 HD
ENDBRANCH   3  20
BRANCH   2  22
ATOM     22  C   UNL     1      -2.941   0.757   0.330  0.00  0.00    +0.195 C 
ATOM     23  O   UNL     1      -3.438   1.140   1.373  0.00  0.00    -0.287 OA
BRANCH  22  24
ATOM     24  C   UNL     1      -2.524   1.737  -0.692  0.00  0.00    +0.023 A 
ATOM     25  C   UNL     1      -1.896   1.307  -1.866  0.00  0.00    +0.015 A 
ATOM     26  C   UNL     1      -1.517   2.220  -2.821  0.00  0.00    +0.046 A 
ATOM     27  C   UNL     1      -1.747   3.583  -2.627  0.00  0.00    +0.124 A 
ATOM     28  C   UNL     1      -2.362   4.006  -1.452  0.00  0.00    -0.002 A 
ATOM     29  C   UNL     1      -2.748   3.103  -0.493  0.00  0.00    +0.019 A 
ATOM     30  C   UNL     1      -2.461   5.518  -1.522  0.00  0.00    +0.083 C 
ATOM     31  C   UNL     1      -1.475   5.849  -2.667  0.00  0.00    +0.175 C 
ATOM     32  O   UNL     1      -1.463   4.636  -3.439  0.00  0.00    -0.488 OA
ATOM     33  C   UNL     1      -1.991   7.020  -3.506  0.00  0.00    +0.052 C 
ENDBRANCH  22  24
ENDBRANCH   2  22
BRANCH   6  34
ATOM     34  C   UNL     1      -0.818  -3.912  -0.457  0.00  0.00    +0.107 C 
BRANCH  34  35
ATOM     35  C   UNL     1      -0.482  -4.531   0.901  0.00  0.00    +0.000 C 
BRANCH  35  36
ATOM     36  C   UNL     1       0.517  -5.673   0.708  0.00  0.00    -0.078 C 
BRANCH  36  39
ATOM     37  C   UNL     1       1.605  -7.511   1.849  0.00  0.00    -0.097 C 
ATOM     38  C   UNL     1       1.562  -5.312   2.862  0.00  0.00    -0.097 C 
ATOM     39  N   UNL     1       0.815  -6.274   2.025  0.00  0.00    +0.376 N 
ATOM     40  H   UNL     1      -0.069  -6.507   2.493  0.00  0.00    -0.083 HD
ENDBRANCH  36  39
ENDBRANCH  35  36
ENDBRANCH  34  35
ENDBRANCH   6  34
TORSDOF 13
