REMARK  Name = ZINC00827013
REMARK  6 active torsions:
REMARK  status: ('A' for Active; 'I' for Inactive)
REMARK    1  A    between atoms: C_4  and  C_7
REMARK    2  A    between atoms: C_7  and  C_8
REMARK    3  A    between atoms: C_7  and  N_63
REMARK    4  A    between atoms: C_19  and  C_21
REMARK    5  A    between atoms: C_25  and  C_34
REMARK    6  A    between atoms: C_27  and  C_30
REMARK                            x       y       z     vdW  Elec       q    Type
REMARK                         _______ _______ _______ _____ _____    ______ ____
ROOT
ATOM      1  C   UNL     1      -0.530  -0.015   2.510  0.00  0.00    -0.058 C 
ATOM      2  C   UNL     1      -1.889  -0.411   3.096  0.00  0.00    +0.089 C 
ATOM      3  N   UNL     1      -2.003  -1.877   3.062  0.00  0.00    -0.300 N 
ATOM      4  C   UNL     1      -1.730  -2.567   1.792  0.00  0.00    +0.089 C 
ATOM      5  C   UNL     1      -0.377  -2.086   1.257  0.00  0.00    -0.058 C 
ATOM      6  C   UNL     1      -2.348  -2.570   4.166  0.00  0.00    +0.267 C 
ATOM      7  O   UNL     1      -2.447  -2.000   5.235  0.00  0.00    -0.268 OA
ATOM      8  N   UNL     1      -0.402  -0.610   1.162  0.00  0.00    +0.389 N 
ATOM      9  H   UNL     1      -1.210  -0.327   0.595  0.00  0.00    -0.080 HD
ENDROOT
BRANCH   6  10
ATOM     10  C   UNL     1      -2.605  -4.024   4.076  0.00  0.00    +0.150 A 
ATOM     11  C   UNL     1      -2.829  -4.881   5.158  0.00  0.00    +0.083 A 
ATOM     12  C   UNL     1      -3.031  -6.155   4.648  0.00  0.00    +0.157 A 
ATOM     13  N   UNL     1      -3.285  -7.331   5.238  0.00  0.00    -0.227 NA
ATOM     14  C   UNL     1      -3.434  -8.430   4.517  0.00  0.00    +0.082 A 
ATOM     15  C   UNL     1      -3.325  -8.372   3.106  0.00  0.00    +0.061 A 
ATOM     16  C   UNL     1      -3.068  -7.188   2.510  0.00  0.00    +0.149 A 
ATOM     17  N   UNL     1      -2.920  -6.067   3.283  0.00  0.00    -0.209 N 
ATOM     18  N   UNL     1      -2.655  -4.731   2.959  0.00  0.00    -0.160 NA
BRANCH  14  19
ATOM     19  C   UNL     1      -3.714  -9.715   5.182  0.00  0.00    +0.038 A 
ATOM     20  C   UNL     1      -3.851  -9.984   6.521  0.00  0.00    +0.017 A 
ATOM     21  C   UNL     1      -4.117 -11.275   6.911  0.00  0.00    +0.008 A 
ATOM     22  C   UNL     1      -4.226 -12.245   5.965  0.00  0.00    +0.046 A 
ATOM     23  S   UNL     1      -3.955 -11.328   4.457  0.00  0.00    -0.095 S 
ENDBRANCH  14  19
BRANCH  16  24
ATOM     24  C   UNL     1      -2.948  -7.101   1.011  0.00  0.00    +0.434 C 
ATOM     25  F   UNL     1      -1.616  -7.308   0.637  0.00  0.00    -0.164 F 
ATOM     26  F   UNL     1      -3.755  -8.079   0.420  0.00  0.00    -0.164 F 
ATOM     27  F   UNL     1      -3.361  -5.835   0.583  0.00  0.00    -0.164 F 
ENDBRANCH  16  24
ENDBRANCH   6  10
BRANCH   8  28
ATOM     28  C   UNL     1       0.833  -0.126   0.512  0.00  0.00    -0.007 C 
BRANCH  28  32
ATOM     29  C   UNL     1       0.728   4.141   0.339  0.00  0.00    +0.000 A 
ATOM     30  C   UNL     1       1.915   3.490   0.617  0.00  0.00    +0.000 A 
ATOM     31  C   UNL     1       1.949   2.109   0.673  0.00  0.00    +0.002 A 
ATOM     32  C   UNL     1       0.796   1.379   0.451  0.00  0.00    -0.057 A 
ATOM     33  C   UNL     1      -0.390   2.030   0.167  0.00  0.00    +0.002 A 
ATOM     34  C   UNL     1      -0.425   3.411   0.116  0.00  0.00    +0.000 A 
ENDBRANCH  28  32
BRANCH  28  35
ATOM     35  C   UNL     1       0.899  -0.684  -0.886  0.00  0.00    -0.057 A 
ATOM     36  C   UNL     1      -0.252  -0.783  -1.646  0.00  0.00    +0.002 A 
ATOM     37  C   UNL     1      -0.191  -1.290  -2.930  0.00  0.00    +0.000 A 
ATOM     38  C   UNL     1       1.019  -1.708  -3.452  0.00  0.00    +0.000 A 
ATOM     39  C   UNL     1       2.169  -1.614  -2.690  0.00  0.00    +0.000 A 
ATOM     40  C   UNL     1       2.109  -1.102  -1.408  0.00  0.00    +0.002 A 
ENDBRANCH  28  35
ENDBRANCH   8  28
TORSDOF 6
