REMARK  Name = ZINC38799917
REMARK  6 active torsions:
REMARK  status: ('A' for Active; 'I' for Inactive)
REMARK    1  A    between atoms: C_2  and  C_3
REMARK    2  A    between atoms: C_3  and  N_4
REMARK    3  A    between atoms: C_5  and  C_7
REMARK    4  A    between atoms: N_19  and  N_23
REMARK    5  A    between atoms: C_20  and  N_22
REMARK    6  A    between atoms: C_24  and  C_25
REMARK                            x       y       z     vdW  Elec       q    Type
REMARK                         _______ _______ _______ _____ _____    ______ ____
ROOT
ATOM      1  C   UNL     1      -2.495  -3.311  -2.468  0.00  0.00    +0.131 C 
ATOM      2  C   UNL     1      -2.478  -2.796  -3.890  0.00  0.00    +0.095 A 
ATOM      3  C   UNL     1      -3.637  -3.254  -4.537  0.00  0.00    +0.162 A 
ATOM      4  N   UNL     1      -3.851  -2.930  -5.807  0.00  0.00    -0.227 NA
ATOM      5  C   UNL     1      -2.969  -2.173  -6.464  0.00  0.00    +0.091 A 
ATOM      6  C   UNL     1      -3.177  -1.818  -7.808  0.00  0.00    +0.030 A 
ATOM      7  C   UNL     1      -2.260  -1.045  -8.452  0.00  0.00    +0.002 A 
ATOM      8  C   UNL     1      -1.113  -0.598  -7.799  0.00  0.00    +0.002 A 
ATOM      9  C   UNL     1      -0.879  -0.921  -6.497  0.00  0.00    +0.030 A 
ATOM     10  C   UNL     1      -1.802  -1.718  -5.800  0.00  0.00    +0.090 A 
ATOM     11  N   UNL     1      -1.599  -2.053  -4.520  0.00  0.00    -0.246 NA
ATOM     12  N   UNL     1      -4.423  -4.020  -3.688  0.00  0.00    -0.219 N 
ATOM     13  C   UNL     1      -3.797  -4.121  -2.365  0.00  0.00    +0.058 C 
ENDROOT
BRANCH   1  15
ATOM     14  N   UNL     1      -1.971  -2.309  -0.267  0.00  0.00    -0.311 N 
ATOM     15  C   UNL     1      -2.512  -2.162  -1.493  0.00  0.00    +0.222 C 
ATOM     16  O   UNL     1      -3.013  -1.104  -1.811  0.00  0.00    -0.275 OA
ATOM     17  H   UNL     1      -1.570  -3.155  -0.013  0.00  0.00    +0.149 HD
BRANCH  14  18
ATOM     18  C   UNL     1      -1.987  -1.192   0.680  0.00  0.00    +0.131 C 
BRANCH  18  20
ATOM     19  C   UNL     1      -0.325  -0.918   2.448  0.00  0.00    +0.005 C 
ATOM     20  C   UNL     1      -1.324  -1.615   1.966  0.00  0.00    -0.016 C 
ENDBRANCH  18  20
ENDBRANCH  14  18
ENDBRANCH   1  15
BRANCH  13  21
ATOM     21  N   UNL     1      -4.677  -3.542  -1.341  0.00  0.00    +0.392 N 
ATOM     22  H   UNL     1      -4.942  -2.607  -1.615  0.00  0.00    -0.087 HD
ATOM     23  H   UNL     1      -5.504  -4.112  -1.246  0.00  0.00    -0.087 HD
ATOM     24  H   UNL     1      -4.189  -3.507  -0.458  0.00  0.00    -0.087 HD
ENDBRANCH  13  21
BRANCH  12  25
ATOM     25  N   UNL     1      -5.543  -4.568  -4.017  0.00  0.00    -0.188 NA
ATOM     26  C   UNL     1      -6.155  -5.366  -3.174  0.00  0.00    +0.136 C 
BRANCH  26  27
ATOM     27  C   UNL     1      -7.420  -5.873  -3.484  0.00  0.00    +0.000 C 
ATOM     28  C   UNL     1      -8.204  -6.723  -2.702  0.00  0.00    +0.004 A 
ATOM     29  C   UNL     1      -8.001  -7.311  -1.435  0.00  0.00    +0.010 A 
ATOM     30  C   UNL     1      -8.958  -8.115  -0.905  0.00  0.00    +0.001 A 
ATOM     31  C   UNL     1     -10.150  -8.380  -1.583  0.00  0.00    +0.002 A 
ATOM     32  C   UNL     1     -10.411  -7.850  -2.803  0.00  0.00    +0.026 A 
ATOM     33  C   UNL     1      -9.459  -6.999  -3.421  0.00  0.00    +0.043 A 
ATOM     34  N   UNL     1      -9.474  -6.370  -4.580  0.00  0.00    -0.380 N 
ATOM     35  C   UNL     1      -8.230  -5.610  -4.735  0.00  0.00    +0.150 C 
ATOM     36  H   UNL     1     -10.197  -6.401  -5.226  0.00  0.00    +0.160 HD
ENDBRANCH  26  27
ENDBRANCH  12  25
TORSDOF 6
