REMARK  Name = ZINC00623002
REMARK  10 active torsions:
REMARK  status: ('A' for Active; 'I' for Inactive)
REMARK    1  A    between atoms: C_1  and  C_2
REMARK    2  A    between atoms: C_6  and  C_8
REMARK    3  A    between atoms: C_8  and  O_9
REMARK    4  A    between atoms: O_9  and  C_10
REMARK    5  A    between atoms: C_11  and  O_32
REMARK    6  A    between atoms: C_13  and  C_17
REMARK    7  A    between atoms: C_20  and  C_31
REMARK    8  A    between atoms: C_26  and  N_30
REMARK    9  A    between atoms: C_27  and  C_28
REMARK   10  A    between atoms: O_32  and  C_33
REMARK                            x       y       z     vdW  Elec       q    Type
REMARK                         _______ _______ _______ _____ _____    ______ ____
ROOT
ATOM      1  C   UNL     1       1.156   3.176   0.008  0.00  0.00    +0.176 A 
ATOM      2  C   UNL     1       1.178   1.785   0.000  0.00  0.00    +0.163 A 
ATOM      3  C   UNL     1      -0.013   1.076   0.008  0.00  0.00    +0.054 A 
ATOM      4  C   UNL     1      -1.219   1.751   0.017  0.00  0.00    -0.030 A 
ATOM      5  C   UNL     1      -1.242   3.133   0.030  0.00  0.00    +0.023 A 
ATOM      6  C   UNL     1      -0.057   3.847   0.022  0.00  0.00    +0.063 A 
ATOM      7 BR   UNL     1      -0.092   5.737   0.033  0.00  0.00    -0.046 Br
ENDROOT
BRANCH   4   8
ATOM      8  C   UNL     1      -2.513   0.978   0.019  0.00  0.00    +0.101 C 
ATOM      9  C   UNL     1      -3.326   1.343  -1.196  0.00  0.00    +0.049 A 
ATOM     10  C   UNL     1      -3.117   1.008  -2.527  0.00  0.00    +0.068 A 
ATOM     11  N   UNL     1      -4.078   1.548  -3.239  0.00  0.00    -0.176 NA
ATOM     12  N   UNL     1      -4.932   2.248  -2.372  0.00  0.00    -0.246 N 
ATOM     13  H   UNL     1      -5.750   2.759  -2.637  0.00  0.00    +0.192 HD
ATOM     14  C   UNL     1      -4.455   2.111  -1.124  0.00  0.00    +0.222 A 
ATOM     15  O   UNL     1      -4.935   2.600   0.046  0.00  0.00    -0.423 OA
ATOM     16  C   UNL     1      -4.431   2.092   1.189  0.00  0.00    +0.200 C 
ATOM     17  C   UNL     1      -3.315   1.331   1.247  0.00  0.00    +0.098 C 
ATOM     18  C   UNL     1      -1.984   0.170  -3.061  0.00  0.00    +0.068 C 
BRANCH  16  19
ATOM     19  N   UNL     1      -5.090   2.363   2.362  0.00  0.00    -0.328 N 
ATOM     20  H   UNL     1      -5.894   2.906   2.353  0.00  0.00    +0.145 HD
ATOM     21  H   UNL     1      -4.752   2.011   3.201  0.00  0.00    +0.145 HD
ENDBRANCH  16  19
BRANCH  17  22
ATOM     22  C   UNL     1      -2.878   0.842   2.520  0.00  0.00    +0.101 C 
ATOM     23  N   UNL     1      -2.531   0.454   3.530  0.00  0.00    -0.191 NA
ENDBRANCH  17  22
ENDBRANCH   4   8
BRANCH   2  24
ATOM     24  O   UNL     1       2.365   1.122  -0.014  0.00  0.00    -0.491 OA
ATOM     25  C   UNL     1       2.311  -0.306  -0.020  0.00  0.00    +0.277 C 
ENDBRANCH   2  24
BRANCH   1  26
ATOM     26  O   UNL     1       2.322   3.876  -0.000  0.00  0.00    -0.483 OA
BRANCH  26  27
ATOM     27  C   UNL     1       2.866   4.217  -1.277  0.00  0.00    +0.264 C 
BRANCH  27  33
ATOM     28  C   UNL     1       5.267   8.571  -0.713  0.00  0.00    +0.044 C 
ATOM     29  C   UNL     1       5.297   7.068  -0.818  0.00  0.00    -0.050 A 
ATOM     30  C   UNL     1       6.502   6.394  -0.743  0.00  0.00    +0.003 A 
ATOM     31  C   UNL     1       6.529   5.016  -0.840  0.00  0.00    +0.001 A 
ATOM     32  C   UNL     1       5.353   4.311  -1.013  0.00  0.00    +0.007 A 
ATOM     33  C   UNL     1       4.148   4.985  -1.088  0.00  0.00    -0.010 A 
ATOM     34  C   UNL     1       4.121   6.364  -0.996  0.00  0.00    +0.010 A 
ENDBRANCH  27  33
ENDBRANCH  26  27
ENDBRANCH   1  26
TORSDOF 7
