REMARK  Name = ZINC39467524
REMARK  5 active torsions:
REMARK  status: ('A' for Active; 'I' for Inactive)
REMARK    1  A    between atoms: C_1  and  C_2
REMARK    2  A    between atoms: C_2  and  O_3
REMARK    3  A    between atoms: O_3  and  C_4
REMARK    4  A    between atoms: P_13  and  C_23
REMARK    5  A    between atoms: C_28  and  O_29
REMARK                            x       y       z     vdW  Elec       q    Type
REMARK                         _______ _______ _______ _____ _____    ______ ____
ROOT
ATOM      1  C   UNL     1      -1.498  -1.848   0.006  0.00  0.00    +0.130 C 
ATOM      2  C   UNL     1      -0.432  -2.654  -0.003  0.00  0.00    +0.023 C 
ATOM      3  C   UNL     1      -0.632  -4.145  -0.021  0.00  0.00    +0.019 C 
ATOM      4  C   UNL     1       0.597  -4.845  -0.587  0.00  0.00    -0.002 C 
ATOM      5  C   UNL     1       0.804  -4.475  -2.060  0.00  0.00    -0.020 C 
ATOM      6  C   UNL     1       2.037  -5.245  -2.549  0.00  0.00    +0.157 C 
ATOM      7  O   UNL     1       2.310  -4.899  -3.918  0.00  0.00    -0.316 OA
ATOM      8  P   UNL     1       1.077  -4.981  -4.978  0.00  0.00    +0.291 P 
ATOM      9  O   UNL     1       0.862  -6.380  -5.408  0.00  0.00    -0.269 OA
ATOM     10  N   UNL     1      -0.240  -4.427  -4.152  0.00  0.00    -0.288 NA
ATOM     11  N   UNL     1      -0.387  -4.824  -2.839  0.00  0.00    +0.398 N 
ATOM     12  C   UNL     1      -1.563  -4.102  -2.329  0.00  0.00    -0.046 C 
ATOM     13  C   UNL     1      -1.843  -4.488  -0.894  0.00  0.00    +0.005 C 
ATOM     14  C   UNL     1      -3.030  -3.684  -0.418  0.00  0.00    -0.007 C 
ATOM     15  C   UNL     1      -2.851  -2.438   0.016  0.00  0.00    +0.051 C 
ATOM     16  I   UNL     1      -4.482  -1.316   0.702  0.00  0.00    -0.040 I 
ATOM     17  H   UNL     1      -0.888  -3.843  -4.576  0.00  0.00    +0.111 HD
ATOM     18  H   UNL     1      -0.540  -5.821  -2.798  0.00  0.00    -0.055 HD
ENDROOT
BRANCH   8  19
ATOM     19  C   UNL     1       1.412  -3.926  -6.415  0.00  0.00    +0.091 A 
ATOM     20  C   UNL     1       1.012  -2.604  -6.411  0.00  0.00    +0.018 A 
ATOM     21  C   UNL     1       1.266  -1.800  -7.507  0.00  0.00    +0.001 A 
ATOM     22  C   UNL     1       1.923  -2.317  -8.609  0.00  0.00    +0.004 A 
ATOM     23  C   UNL     1       2.325  -3.638  -8.618  0.00  0.00    +0.046 A 
ATOM     24  C   UNL     1       2.076  -4.446  -7.517  0.00  0.00    +0.131 A 
BRANCH  24  25
ATOM     25  O   UNL     1       2.476  -5.744  -7.521  0.00  0.00    -0.506 OA
ATOM     26  H   UNL     1       1.818  -6.357  -7.876  0.00  0.00    +0.292 HD
ENDBRANCH  24  25
ENDBRANCH   8  19
BRANCH   1  27
ATOM     27  O   UNL     1      -1.339  -0.499   0.012  0.00  0.00    -0.492 OA
BRANCH  27  29
ATOM     28  C   UNL     1      -0.019   1.526   0.010  0.00  0.00    +0.048 C 
ATOM     29  C   UNL     1       0.002  -0.004   0.002  0.00  0.00    +0.226 C 
ENDBRANCH  27  29
ENDBRANCH   1  27
TORSDOF 4
