REMARK  Name = ZINC03036452
REMARK  6 active torsions:
REMARK  status: ('A' for Active; 'I' for Inactive)
REMARK    1  A    between atoms: C_1  and  C_2
REMARK    2  A    between atoms: C_2  and  O_3
REMARK    3  A    between atoms: O_3  and  C_4
REMARK    4  A    between atoms: C_7  and  N_10
REMARK    5  A    between atoms: C_20  and  C_21
REMARK    6  A    between atoms: C_20  and  O_35
REMARK                            x       y       z     vdW  Elec       q    Type
REMARK                         _______ _______ _______ _____ _____    ______ ____
ROOT
ATOM      1  N   UNL     1      -2.201  -5.642  -0.241  0.00  0.00    -0.214 N 
ATOM      2  C   UNL     1      -0.956  -6.131  -0.383  0.00  0.00    +0.314 C 
ATOM      3  O   UNL     1      -0.056  -5.357  -0.648  0.00  0.00    -0.252 OA
ATOM      4  N   UNL     1      -0.661  -7.430  -0.245  0.00  0.00    -0.269 N 
ATOM      5  C   UNL     1      -1.619  -8.398   0.059  0.00  0.00    +0.043 A 
ATOM      6  C   UNL     1      -1.261  -9.733   0.190  0.00  0.00    +0.024 A 
ATOM      7  C   UNL     1      -2.224 -10.677   0.491  0.00  0.00    +0.002 A 
ATOM      8  C   UNL     1      -3.543 -10.299   0.660  0.00  0.00    +0.001 A 
ATOM      9  C   UNL     1      -3.906  -8.969   0.530  0.00  0.00    +0.010 A 
ATOM     10  C   UNL     1      -2.948  -8.027   0.231  0.00  0.00    +0.033 A 
ATOM     11  C   UNL     1      -3.302  -6.565   0.087  0.00  0.00    +0.247 C 
ATOM     12  H   UNL     1       0.260  -7.711  -0.361  0.00  0.00    +0.156 HD
ENDROOT
BRANCH  11  13
ATOM     13  C   UNL     1      -3.927  -6.103   1.378  0.00  0.00    +0.272 C 
ATOM     14  O   UNL     1      -5.052  -5.652   1.380  0.00  0.00    -0.270 OA
ATOM     15  N   UNL     1      -3.235  -6.192   2.531  0.00  0.00    -0.294 N 
ATOM     16  C   UNL     1      -1.831  -6.629   2.530  0.00  0.00    +0.127 C 
ATOM     17  C   UNL     1      -0.984  -5.558   3.228  0.00  0.00    +0.125 C 
ATOM     18  N   UNL     1      -1.619  -5.219   4.510  0.00  0.00    -0.314 N 
ATOM     19  C   UNL     1      -3.022  -4.783   4.511  0.00  0.00    +0.125 C 
ATOM     20  C   UNL     1      -3.868  -5.848   3.812  0.00  0.00    +0.127 C 
ATOM     21  C   UNL     1      -0.905  -5.311   5.699  0.00  0.00    +0.099 A 
ATOM     22  C   UNL     1       0.380  -5.843   5.692  0.00  0.00    +0.042 A 
ATOM     23  C   UNL     1       1.079  -5.928   6.883  0.00  0.00    +0.005 A 
ATOM     24  C   UNL     1       0.467  -5.477   8.045  0.00  0.00    +0.018 A 
ATOM     25  C   UNL     1      -0.812  -4.960   7.978  0.00  0.00    +0.084 A 
ATOM     26  N   UNL     1      -1.453  -4.886   6.827  0.00  0.00    -0.350 N 
ATOM     27  H   UNL     1      -2.349  -4.515   6.808  0.00  0.00    +0.166 HD
ENDBRANCH  11  13
BRANCH   1  31
ATOM     28  C   UNL     1      -2.932  -1.563  -0.706  0.00  0.00    +0.121 A 
ATOM     29  C   UNL     1      -2.746  -2.094   0.562  0.00  0.00    +0.047 A 
ATOM     30  C   UNL     1      -2.504  -3.445   0.717  0.00  0.00    +0.027 A 
ATOM     31  C   UNL     1      -2.447  -4.271  -0.397  0.00  0.00    +0.042 A 
ATOM     32  C   UNL     1      -2.635  -3.740  -1.666  0.00  0.00    +0.027 A 
ATOM     33  C   UNL     1      -2.881  -2.389  -1.819  0.00  0.00    +0.047 A 
BRANCH  28  34
ATOM     34  O   UNL     1      -3.171  -0.233  -0.857  0.00  0.00    -0.492 OA
BRANCH  34  36
ATOM     35  C   UNL     1      -3.487   2.018  -0.036  0.00  0.00    +0.048 C 
ATOM     36  C   UNL     1      -3.209   0.559   0.332  0.00  0.00    +0.225 C 
ENDBRANCH  34  36
ENDBRANCH  28  34
ENDBRANCH   1  31
BRANCH  11  37
ATOM     37  O   UNL     1      -4.290  -6.455  -0.940  0.00  0.00    -0.360 OA
ATOM     38  H   UNL     1      -5.058  -7.028  -0.810  0.00  0.00    +0.213 HD
ENDBRANCH  11  37
TORSDOF 5
