REMARK  Name = ZINC36019804
REMARK  13 active torsions:
REMARK  status: ('A' for Active; 'I' for Inactive)
REMARK    1  A    between atoms: C_1  and  C_2
REMARK    2  A    between atoms: C_2  and  C_3
REMARK    3  A    between atoms: C_3  and  N_4
REMARK    4  A    between atoms: N_11  and  C_14
REMARK    5  A    between atoms: C_14  and  C_15
REMARK    6  A    between atoms: C_16  and  C_33
REMARK    7  A    between atoms: C_17  and  C_26
REMARK    8  A    between atoms: N_22  and  C_23
REMARK    9  A    between atoms: C_23  and  C_24
REMARK   10  A    between atoms: C_30  and  C_32
REMARK   11  A    between atoms: C_33  and  O_35
REMARK   12  A    between atoms: O_35  and  C_36
REMARK   13  A    between atoms: C_36  and  C_37
REMARK                            x       y       z     vdW  Elec       q    Type
REMARK                         _______ _______ _______ _____ _____    ______ ____
ROOT
ATOM      1  C   UNL     1       0.120  -6.979  -6.446  0.00  0.00    +0.011 C 
ATOM      2  C   UNL     1       0.069  -8.153  -7.111  0.00  0.00    +0.076 C 
ATOM      3  C   UNL     1       0.983  -8.327  -8.307  0.00  0.00    +0.143 C 
ATOM      4  N   UNL     1       1.859  -7.193  -8.648  0.00  0.00    -0.288 N 
ATOM      5  C   UNL     1       1.796  -6.083  -7.887  0.00  0.00    +0.307 C 
ATOM      6  O   UNL     1       2.515  -5.141  -8.160  0.00  0.00    -0.252 OA
ATOM      7  N   UNL     1       0.964  -5.981  -6.843  0.00  0.00    -0.257 N 
ATOM      8  H   UNL     1       2.466  -7.245  -9.402  0.00  0.00    +0.151 HD
ENDROOT
BRANCH   3   9
ATOM      9  C   UNL     1       0.124  -8.627  -9.509  0.00  0.00    -0.022 A 
ATOM     10  C   UNL     1      -0.517  -7.599 -10.175  0.00  0.00    +0.006 A 
ATOM     11  C   UNL     1      -1.304  -7.875 -11.277  0.00  0.00    +0.001 A 
ATOM     12  C   UNL     1      -1.451  -9.179 -11.713  0.00  0.00    +0.003 A 
ATOM     13  C   UNL     1      -0.809 -10.206 -11.048  0.00  0.00    -0.050 A 
ATOM     14  C   UNL     1      -0.018  -9.930  -9.948  0.00  0.00    +0.009 A 
ATOM     15  C   UNL     1      -0.969 -11.627 -11.523  0.00  0.00    +0.044 C 
ENDBRANCH   3   9
BRANCH   2  16
ATOM     16  C   UNL     1      -0.809  -9.185  -6.705  0.00  0.00    +0.339 C 
ATOM     17  O   UNL     1      -1.623  -8.980  -5.825  0.00  0.00    -0.245 OA
BRANCH  16  18
ATOM     18  O   UNL     1      -0.742 -10.398  -7.294  0.00  0.00    -0.462 OA
BRANCH  18  19
ATOM     19  C   UNL     1      -1.659 -11.393  -6.834  0.00  0.00    +0.229 C 
ATOM     20  C   UNL     1      -1.435 -12.691  -7.613  0.00  0.00    +0.048 C 
ENDBRANCH  18  19
ENDBRANCH  16  18
ENDBRANCH   2  16
BRANCH   1  21
ATOM     21  C   UNL     1      -0.772  -6.764  -5.251  0.00  0.00    -0.026 C 
BRANCH  21  29
ATOM     22  N   UNL     1      -5.780  -7.788  -6.955  0.00  0.00    -0.299 N 
ATOM     23  C   UNL     1      -5.838  -6.713  -6.144  0.00  0.00    +0.302 C 
ATOM     24  O   UNL     1      -6.769  -6.584  -5.372  0.00  0.00    -0.253 OA
ATOM     25  N   UNL     1      -4.865  -5.782  -6.188  0.00  0.00    -0.287 N 
ATOM     26  C   UNL     1      -4.890  -4.679  -5.206  0.00  0.00    +0.107 C 
ATOM     27  C   UNL     1      -3.477  -4.380  -4.673  0.00  0.00    +0.000 C 
ATOM     28  C   UNL     1      -2.733  -5.680  -4.460  0.00  0.00    -0.077 C 
ATOM     29  N   UNL     1      -1.956  -5.994  -5.656  0.00  0.00    +0.384 N 
ATOM     30  C   UNL     1      -2.650  -6.729  -6.642  0.00  0.00    -0.059 C 
ATOM     31  C   UNL     1      -3.829  -5.902  -7.193  0.00  0.00    +0.091 C 
ATOM     32  H   UNL     1      -5.077  -7.856  -7.620  0.00  0.00    +0.150 HD
ATOM     33  H   UNL     1      -1.642  -5.128  -6.068  0.00  0.00    -0.081 HD
BRANCH  22  34
ATOM     34  C   UNL     1      -6.778  -8.854  -6.832  0.00  0.00    +0.105 C 
BRANCH  34  36
ATOM     35  C   UNL     1      -7.528 -11.060  -7.734  0.00  0.00    +0.005 C 
ATOM     36  C   UNL     1      -6.486  -9.947  -7.862  0.00  0.00    +0.015 C 
ENDBRANCH  34  36
ENDBRANCH  22  34
ENDBRANCH  21  29
ENDBRANCH   1  21
BRANCH   7  37
ATOM     37  C   UNL     1       0.964  -4.731  -6.079  0.00  0.00    +0.141 C 
BRANCH  37  38
ATOM     38  C   UNL     1       2.056  -4.776  -5.042  0.00  0.00    -0.015 C 
ATOM     39  C   UNL     1       2.954  -3.823  -4.994  0.00  0.00    +0.005 C 
ENDBRANCH  37  38
ENDBRANCH   7  37
TORSDOF 10
