REMARK  Name = ZINC67145528
REMARK  6 active torsions:
REMARK  status: ('A' for Active; 'I' for Inactive)
REMARK    1  A    between atoms: C_1  and  C_2
REMARK    2  A    between atoms: C_2  and  C_21
REMARK    3  A    between atoms: N_5  and  C_9
REMARK    4  A    between atoms: C_9  and  C_10
REMARK    5  A    between atoms: N_12  and  C_13
REMARK    6  A    between atoms: C_18  and  O_19
REMARK                            x       y       z     vdW  Elec       q    Type
REMARK                         _______ _______ _______ _____ _____    ______ ____
ROOT
ATOM      1  C   UNL     1       0.010   1.518   0.048  0.00  0.00    +0.047 C 
ATOM      2  C   UNL     1       0.023  -0.012   0.029  0.00  0.00    +0.135 C 
ATOM      3  C   UNL     1      -1.384  -0.559   0.163  0.00  0.00    +0.251 C 
ATOM      4  O   UNL     1      -2.313  -0.383  -0.596  0.00  0.00    -0.272 OA
ATOM      5  N   UNL     1      -1.388  -1.281   1.301  0.00  0.00    -0.215 N 
ATOM      6  C   UNL     1      -0.191  -1.266   1.898  0.00  0.00    +0.310 C 
ATOM      7  O   UNL     1       0.052  -1.846   2.938  0.00  0.00    -0.252 OA
ATOM      8  N   UNL     1       0.714  -0.538   1.219  0.00  0.00    -0.281 N 
ATOM      9  H   UNL     1       1.641  -0.390   1.464  0.00  0.00    +0.152 HD
ENDROOT
BRANCH   2  10
ATOM     10  C   UNL     1       0.675  -0.519  -1.231  0.00  0.00    -0.015 A 
ATOM     11  C   UNL     1      -0.091  -0.763  -2.356  0.00  0.00    +0.009 A 
ATOM     12  C   UNL     1       0.505  -1.228  -3.512  0.00  0.00    +0.039 A 
ATOM     13  C   UNL     1       1.872  -1.450  -3.544  0.00  0.00    +0.123 A 
ATOM     14  C   UNL     1       2.638  -1.206  -2.417  0.00  0.00    +0.039 A 
ATOM     15  C   UNL     1       2.040  -0.736  -1.264  0.00  0.00    +0.009 A 
ATOM     16  F   UNL     1       2.456  -1.906  -4.674  0.00  0.00    -0.205 F 
ENDBRANCH   2  10
BRANCH   5  17
ATOM     17  C   UNL     1      -2.558  -1.993   1.820  0.00  0.00    +0.214 C 
BRANCH  17  18
ATOM     18  C   UNL     1      -2.580  -3.394   1.265  0.00  0.00    +0.235 C 
ATOM     19  O   UNL     1      -1.705  -3.761   0.510  0.00  0.00    -0.274 OA
ATOM     20  N   UNL     1      -3.573  -4.239   1.608  0.00  0.00    -0.281 N 
ATOM     21  H   UNL     1      -4.237  -3.967   2.261  0.00  0.00    +0.155 HD
BRANCH  20  22
ATOM     22  C   UNL     1      -3.646  -5.509   1.020  0.00  0.00    +0.077 A 
ATOM     23  C   UNL     1      -2.484  -6.195   0.700  0.00  0.00    +0.047 A 
ATOM     24  C   UNL     1      -2.559  -7.448   0.121  0.00  0.00    +0.043 A 
ATOM     25  C   UNL     1      -3.791  -8.020  -0.141  0.00  0.00    +0.023 A 
ATOM     26  C   UNL     1      -4.953  -7.341   0.175  0.00  0.00    +0.049 A 
ATOM     27  C   UNL     1      -4.886  -6.088   0.762  0.00  0.00    +0.138 A 
ATOM     28 CL   UNL     1      -1.103  -8.306  -0.279  0.00  0.00    -0.083 Cl
BRANCH  27  29
ATOM     29  O   UNL     1      -6.029  -5.422   1.079  0.00  0.00    -0.505 OA
ATOM     30  H   UNL     1      -6.365  -4.858   0.369  0.00  0.00    +0.292 HD
ENDBRANCH  27  29
ENDBRANCH  20  22
ENDBRANCH  17  18
ENDBRANCH   5  17
TORSDOF 5
