REMARK  Name = ZINC08961246
REMARK  5 active torsions:
REMARK  status: ('A' for Active; 'I' for Inactive)
REMARK    1  A    between atoms: C_1  and  C_2
REMARK    2  A    between atoms: C_6  and  C_8
REMARK    3  A    between atoms: C_8  and  S_9
REMARK    4  A    between atoms: S_9  and  N_12
REMARK    5  A    between atoms: N_12  and  C_13
REMARK                            x       y       z     vdW  Elec       q    Type
REMARK                         _______ _______ _______ _____ _____    ______ ____
ROOT
ATOM      1  C   UNL     1       0.180  -2.791   0.013  0.00  0.00    +0.049 A 
ATOM      2  C   UNL     1      -0.421  -1.982  -0.945  0.00  0.00    +0.028 A 
ATOM      3  C   UNL     1      -0.377  -0.608  -0.823  0.00  0.00    +0.049 A 
ATOM      4  C   UNL     1       0.266  -0.022   0.259  0.00  0.00    +0.141 A 
ATOM      5  C   UNL     1       0.846  -0.830   1.243  0.00  0.00    +0.081 A 
ATOM      6  C   UNL     1       0.813  -2.220   1.104  0.00  0.00    +0.041 A 
ATOM      7  C   UNL     1       1.469  -0.230   2.431  0.00  0.00    +0.252 C 
ATOM      8  O   UNL     1       1.318  -0.802   3.493  0.00  0.00    -0.270 OA
ATOM      9  N   UNL     1       2.184   0.888   2.434  0.00  0.00    -0.278 N 
ATOM     10  C   UNL     1       2.490   1.676   1.324  0.00  0.00    +0.076 A 
ATOM     11  C   UNL     1       3.755   2.244   1.229  0.00  0.00    +0.027 A 
ATOM     12  C   UNL     1       4.072   3.063   0.163  0.00  0.00    +0.002 A 
ATOM     13  C   UNL     1       3.130   3.322  -0.814  0.00  0.00    +0.004 A 
ATOM     14  C   UNL     1       1.876   2.748  -0.736  0.00  0.00    +0.048 A 
ATOM     15  C   UNL     1       1.555   1.909   0.324  0.00  0.00    +0.150 A 
ATOM     16  O   UNL     1       0.331   1.326   0.348  0.00  0.00    -0.453 OA
ATOM     17  H   UNL     1       2.527   1.187   3.291  0.00  0.00    +0.155 HD
ENDROOT
BRANCH   1  18
ATOM     18  N   UNL     1       0.146  -4.183  -0.127  0.00  0.00    -0.220 N 
ATOM     19  H   UNL     1      -0.452  -4.711   0.425  0.00  0.00    +0.173 HD
BRANCH  18  20
ATOM     20  S   UNL     1       1.127  -4.928  -1.233  0.00  0.00    +0.047 S 
ATOM     21  O   UNL     1       0.829  -6.312  -1.108  0.00  0.00    -0.155 OA
ATOM     22  O   UNL     1       0.883  -4.243  -2.454  0.00  0.00    -0.155 OA
BRANCH  20  23
ATOM     23  C   UNL     1       2.815  -4.598  -0.658  0.00  0.00    +0.223 C 
BRANCH  23  29
ATOM     24  C   UNL     1       5.678  -8.336  -2.352  0.00  0.00    +0.044 C 
ATOM     25  C   UNL     1       5.172  -6.922  -2.473  0.00  0.00    -0.050 A 
ATOM     26  C   UNL     1       5.614  -6.115  -3.506  0.00  0.00    +0.003 A 
ATOM     27  C   UNL     1       5.150  -4.818  -3.616  0.00  0.00    +0.001 A 
ATOM     28  C   UNL     1       4.244  -4.327  -2.695  0.00  0.00    +0.005 A 
ATOM     29  C   UNL     1       3.802  -5.133  -1.663  0.00  0.00    -0.025 A 
ATOM     30  C   UNL     1       4.271  -6.429  -1.549  0.00  0.00    +0.008 A 
ENDBRANCH  23  29
ENDBRANCH  20  23
ENDBRANCH  18  20
ENDBRANCH   1  18
TORSDOF 4
