REMARK  Name = ZINC34100051
REMARK  3 active torsions:
REMARK  status: ('A' for Active; 'I' for Inactive)
REMARK    1  A    between atoms: C_1  and  S_2
REMARK    2  A    between atoms: S_2  and  C_3
REMARK    3  A    between atoms: C_4  and  C_8
REMARK                            x       y       z     vdW  Elec       q    Type
REMARK                         _______ _______ _______ _____ _____    ______ ____
ROOT
ATOM      1  C   UNL     1       0.848  -0.411  -1.489  0.00  0.00    +0.153 A 
ATOM      2  C   UNL     1       1.130  -1.706  -1.975  0.00  0.00    +0.182 A 
ATOM      3  N   UNL     1       1.777  -1.577  -3.120  0.00  0.00    -0.122 NA
ATOM      4  N   UNL     1       1.925  -0.328  -3.392  0.00  0.00    -0.041 NA
ATOM      5  N   UNL     1       1.339   0.434  -2.374  0.00  0.00    -0.121 NA
ENDROOT
BRANCH   2   6
ATOM      6  C   UNL     1       0.766  -2.977  -1.322  0.00  0.00    +0.264 C 
ATOM      7  O   UNL     1       0.168  -2.967  -0.263  0.00  0.00    -0.269 OA
ATOM      8  N   UNL     1       1.098  -4.150  -1.897  0.00  0.00    -0.324 N 
ATOM      9  H   UNL     1       1.576  -4.158  -2.741  0.00  0.00    +0.145 HD
ATOM     10  H   UNL     1       0.859  -4.986  -1.467  0.00  0.00    +0.145 HD
ENDBRANCH   2   6
BRANCH   1  12
ATOM     11  C   UNL     1      -0.022   1.810   0.012  0.00  0.00    +0.091 C 
ATOM     12  S   UNL     1       0.002  -0.004   0.002  0.00  0.00    -0.105 S 
ENDBRANCH   1  12
TORSDOF 2
