REMARK  Name = ZINC36063983
REMARK  12 active torsions:
REMARK  status: ('A' for Active; 'I' for Inactive)
REMARK    1  A    between atoms: C_1  and  C_2
REMARK    2  A    between atoms: C_2  and  C_3
REMARK    3  A    between atoms: C_3  and  C_5
REMARK    4  A    between atoms: C_3  and  N_6
REMARK    5  A    between atoms: C_7  and  C_9
REMARK    6  A    between atoms: C_12  and  C_14
REMARK    7  A    between atoms: C_14  and  N_15
REMARK    8  A    between atoms: N_15  and  C_16
REMARK    9  A    between atoms: N_15  and  C_28
REMARK   10  A    between atoms: C_16  and  C_17
REMARK   11  A    between atoms: C_17  and  C_18
REMARK   12  A    between atoms: C_28  and  C_29
REMARK                            x       y       z     vdW  Elec       q    Type
REMARK                         _______ _______ _______ _____ _____    ______ ____
ROOT
ATOM      1  N   UNL     1      -3.660   2.620  -6.365  0.00  0.00    +0.388 N 
ATOM      2  H   UNL     1      -3.095   3.370  -6.734  0.00  0.00    -0.081 HD
ENDROOT
BRANCH   1   3
ATOM      3  C   UNL     1      -3.046   1.330  -6.705  0.00  0.00    +0.019 C 
BRANCH   3   7
ATOM      4  C   UNL     1      -1.895   1.389 -10.140  0.00  0.00    +0.163 A 
ATOM      5  C   UNL     1      -3.161   0.922 -10.314  0.00  0.00    +0.230 A 
ATOM      6  O   UNL     1      -3.721   0.847  -9.097  0.00  0.00    -0.449 OA
ATOM      7  C   UNL     1      -2.820   1.258  -8.194  0.00  0.00    +0.179 A 
ATOM      8  N   UNL     1      -1.719   1.581  -8.804  0.00  0.00    -0.210 NA
BRANCH   4  10
ATOM      9  N   UNL     1       0.356   2.002 -10.870  0.00  0.00    -0.307 N 
ATOM     10  C   UNL     1      -0.898   1.635 -11.198  0.00  0.00    +0.266 C 
ATOM     11  O   UNL     1      -1.208   1.505 -12.367  0.00  0.00    -0.268 OA
ATOM     12  H   UNL     1       0.584   2.179  -9.944  0.00  0.00    +0.149 HD
BRANCH   9  13
ATOM     13  C   UNL     1       1.377   2.136 -11.913  0.00  0.00    +0.070 C 
ATOM     14  C   UNL     1       2.007   0.769 -12.188  0.00  0.00    +0.028 C 
BRANCH  13  16
ATOM     15  C   UNL     1       1.854   4.508 -11.290  0.00  0.00    +0.005 C 
ATOM     16  C   UNL     1       2.459   3.111 -11.445  0.00  0.00    +0.018 C 
ENDBRANCH  13  16
ENDBRANCH   9  13
ENDBRANCH   4  10
ENDBRANCH   3   7
ENDBRANCH   1   3
BRANCH   1  17
ATOM     17  C   UNL     1      -5.007   2.690  -6.948  0.00  0.00    -0.073 C 
BRANCH  17  18
ATOM     18  C   UNL     1      -5.598   4.079  -6.700  0.00  0.00    +0.019 C 
BRANCH  18  19
ATOM     19  C   UNL     1      -6.980   4.151  -7.298  0.00  0.00    -0.024 A 
ATOM     20  C   UNL     1      -7.300   4.617  -8.515  0.00  0.00    +0.087 A 
ATOM     21  N   UNL     1      -8.651   4.524  -8.710  0.00  0.00    -0.360 N 
ATOM     22  H   UNL     1      -9.118   4.799  -9.514  0.00  0.00    +0.165 HD
ATOM     23  C   UNL     1      -9.249   3.983  -7.594  0.00  0.00    +0.047 A 
ATOM     24  C   UNL     1      -8.227   3.720  -6.662  0.00  0.00    +0.003 A 
ATOM     25  C   UNL     1      -8.542   3.157  -5.424  0.00  0.00    +0.010 A 
ATOM     26  C   UNL     1      -9.842   2.861  -5.124  0.00  0.00    +0.001 A 
ATOM     27  C   UNL     1     -10.852   3.115  -6.041  0.00  0.00    +0.002 A 
ATOM     28  C   UNL     1     -10.566   3.679  -7.265  0.00  0.00    +0.026 A 
ENDBRANCH  18  19
ENDBRANCH  17  18
ENDBRANCH   1  17
BRANCH   1  29
ATOM     29  C   UNL     1      -3.751   2.749  -4.904  0.00  0.00    -0.041 C 
BRANCH  29  30
ATOM     30  C   UNL     1      -2.364   2.807  -4.318  0.00  0.00    -0.046 A 
ATOM     31  C   UNL     1      -1.825   1.691  -3.707  0.00  0.00    +0.003 A 
ATOM     32  C   UNL     1      -0.552   1.744  -3.169  0.00  0.00    +0.000 A 
ATOM     33  C   UNL     1       0.181   2.914  -3.241  0.00  0.00    +0.001 A 
ATOM     34  C   UNL     1      -0.358   4.031  -3.852  0.00  0.00    +0.020 A 
ATOM     35  C   UNL     1      -1.629   3.976  -4.396  0.00  0.00    +0.042 A 
ATOM     36 CL   UNL     1      -2.303   5.377  -5.168  0.00  0.00    -0.083 Cl
ENDBRANCH  29  30
ENDBRANCH   1  29
TORSDOF 10
