REMARK  Name = ZINC03259134
REMARK  6 active torsions:
REMARK  status: ('A' for Active; 'I' for Inactive)
REMARK    1  A    between atoms: C_1  and  C_2
REMARK    2  A    between atoms: C_12  and  C_14
REMARK    3  A    between atoms: C_14  and  S_15
REMARK    4  A    between atoms: S_15  and  C_16
REMARK    5  A    between atoms: C_19  and  C_22
REMARK    6  A    between atoms: N_20  and  N_21
REMARK                            x       y       z     vdW  Elec       q    Type
REMARK                         _______ _______ _______ _____ _____    ______ ____
ROOT
ATOM      1  C   UNL     1       1.521  -1.296  -6.206  0.00  0.00    +0.209 A 
ATOM      2  N   UNL     1       2.611  -2.006  -6.024  0.00  0.00    -0.121 NA
ATOM      3  N   UNL     1       3.220  -2.175  -7.143  0.00  0.00    -0.127 NA
ATOM      4  C   UNL     1       2.561  -1.575  -8.107  0.00  0.00    +0.182 A 
ATOM      5  N   UNL     1       1.452  -0.993  -7.536  0.00  0.00    -0.224 N 
ENDROOT
BRANCH   4   6
ATOM      6  C   UNL     1       2.939  -1.531  -9.536  0.00  0.00    +0.021 A 
ATOM      7  C   UNL     1       3.875  -2.436 -10.040  0.00  0.00    +0.013 A 
ATOM      8  C   UNL     1       4.219  -2.394 -11.376  0.00  0.00    +0.021 A 
ATOM      9  C   UNL     1       3.647  -1.450 -12.212  0.00  0.00    +0.041 A 
ATOM     10  C   UNL     1       2.722  -0.547 -11.715  0.00  0.00    +0.021 A 
ATOM     11  C   UNL     1       2.365  -0.582 -10.383  0.00  0.00    +0.013 A 
ATOM     12 CL   UNL     1       4.090  -1.399 -13.889  0.00  0.00    -0.084 Cl
ENDBRANCH   4   6
BRANCH   5  13
ATOM     13  N   UNL     1       0.485  -0.265  -8.168  0.00  0.00    -0.295 N 
ATOM     14  H   UNL     1       0.762   0.701  -8.263  0.00  0.00    +0.163 HD
ATOM     15  H   UNL     1       0.259  -0.666  -9.066  0.00  0.00    +0.163 HD
ENDBRANCH   5  13
BRANCH   1  16
ATOM     16  S   UNL     1       0.366  -0.816  -4.965  0.00  0.00    -0.075 S 
BRANCH  16  17
ATOM     17  C   UNL     1       1.132  -1.578  -3.512  0.00  0.00    +0.173 C 
BRANCH  17  28
ATOM     18  C   UNL     1      -0.146  -0.057   0.481  0.00  0.00    +0.029 C 
ATOM     19  C   UNL     1      -0.059  -1.551   0.164  0.00  0.00    +0.083 C 
ATOM     20  C   UNL     1       0.763  -2.278   1.240  0.00  0.00    +0.059 C 
ATOM     21  C   UNL     1       1.938  -2.866   0.490  0.00  0.00    -0.024 A 
ATOM     22  C   UNL     1       3.007  -3.623   0.931  0.00  0.00    +0.005 A 
ATOM     23  C   UNL     1       3.970  -4.050   0.036  0.00  0.00    +0.000 A 
ATOM     24  C   UNL     1       3.861  -3.719  -1.302  0.00  0.00    +0.002 A 
ATOM     25  C   UNL     1       2.796  -2.964  -1.746  0.00  0.00    +0.024 A 
ATOM     26  C   UNL     1       1.820  -2.529  -0.848  0.00  0.00    +0.040 A 
ATOM     27  N   UNL     1       0.671  -1.764  -1.089  0.00  0.00    -0.267 N 
ATOM     28  C   UNL     1       0.293  -1.292  -2.293  0.00  0.00    +0.230 C 
ATOM     29  O   UNL     1      -0.722  -0.637  -2.397  0.00  0.00    -0.274 OA
ENDBRANCH  17  28
ENDBRANCH  16  17
ENDBRANCH   1  16
TORSDOF 5
