REMARK  Name = ZINC22126888
REMARK  3 active torsions:
REMARK  status: ('A' for Active; 'I' for Inactive)
REMARK    1  A    between atoms: C_1  and  C_2
REMARK    2  A    between atoms: C_2  and  N_3
REMARK    3  A    between atoms: C_7  and  C_15
REMARK                            x       y       z     vdW  Elec       q    Type
REMARK                         _______ _______ _______ _____ _____    ______ ____
ROOT
ATOM      1  N   UNL     1      -4.428   2.055   0.940  0.00  0.00    -0.287 N 
ATOM      2  C   UNL     1      -3.201   1.726   0.477  0.00  0.00    +0.266 A 
ATOM      3  O   UNL     1      -3.046   1.350  -0.671  0.00  0.00    -0.267 OA
ATOM      4  C   UNL     1      -2.100   1.827   1.365  0.00  0.00    +0.106 A 
ATOM      5  C   UNL     1      -0.720   1.563   1.251  0.00  0.00    +0.048 A 
ATOM      6  N   UNL     1      -0.151   1.847   2.389  0.00  0.00    -0.279 N 
ATOM      7  N   UNL     1      -1.119   2.291   3.298  0.00  0.00    -0.153 NA
ATOM      8  H   UNL     1       0.935   1.721   2.508  0.00  0.00    +0.189 HD
ATOM      9  C   UNL     1      -2.327   2.282   2.674  0.00  0.00    +0.189 A 
ATOM     10  N   UNL     1      -3.572   2.599   3.054  0.00  0.00    -0.201 NA
ATOM     11  C   UNL     1      -4.585   2.497   2.222  0.00  0.00    +0.185 A 
ATOM     12  S   UNL     1      -6.197   2.936   2.782  0.00  0.00    -0.011 SA
ATOM     13  C   UNL     1      -0.015   1.070   0.013  0.00  0.00    +0.066 C 
ENDROOT
BRANCH   1  15
ATOM     14  C   UNL     1      -5.780   3.276  -0.692  0.00  0.00    +0.027 C 
ATOM     15  C   UNL     1      -5.592   1.955   0.056  0.00  0.00    +0.124 C 
ENDBRANCH   1  15
TORSDOF 1
