REMARK  Name = ZINC40322774
REMARK  15 active torsions:
REMARK  status: ('A' for Active; 'I' for Inactive)
REMARK    1  A    between atoms: C_1  and  C_2
REMARK    2  A    between atoms: C_2  and  N_3
REMARK    3  A    between atoms: N_3  and  C_4
REMARK    4  A    between atoms: N_3  and  C_6
REMARK    5  A    between atoms: C_4  and  C_5
REMARK    6  A    between atoms: C_6  and  C_8
REMARK    7  A    between atoms: C_6  and  C_27
REMARK    8  A    between atoms: C_8  and  N_9
REMARK    9  A    between atoms: C_10  and  C_12
REMARK   10  A    between atoms: C_15  and  S_17
REMARK   11  A    between atoms: S_17  and  C_20
REMARK   12  A    between atoms: C_23  and  C_26
REMARK   13  A    between atoms: C_30  and  O_33
REMARK   14  A    between atoms: O_33  and  C_34
REMARK   15  A    between atoms: C_34  and  C_35
REMARK                            x       y       z     vdW  Elec       q    Type
REMARK                         _______ _______ _______ _____ _____    ______ ____
ROOT
ATOM      1  N   UNL     1       1.450   0.923  -1.077  0.00  0.00    -0.310 N 
ATOM      2  C   UNL     1       2.406   1.872  -1.107  0.00  0.00    +0.279 C 
ATOM      3  O   UNL     1       3.153   1.954  -2.064  0.00  0.00    -0.267 OA
ATOM      4  H   UNL     1       0.808   0.903  -0.350  0.00  0.00    +0.149 HD
ENDROOT
BRANCH   2   5
ATOM      5  C   UNL     1       2.546   2.807   0.014  0.00  0.00    +0.192 A 
ATOM      6  C   UNL     1       3.400   3.871   0.070  0.00  0.00    +0.056 A 
ATOM      7  C   UNL     1       3.199   4.484   1.317  0.00  0.00    +0.070 A 
ATOM      8  C   UNL     1       2.244   3.777   1.959  0.00  0.00    +0.246 A 
ATOM      9  O   UNL     1       1.849   2.770   1.169  0.00  0.00    -0.433 OA
BRANCH   8  10
ATOM     10  S   UNL     1       1.617   4.125   3.569  0.00  0.00    +0.058 S 
ATOM     11  O   UNL     1       1.095   2.904   4.074  0.00  0.00    -0.161 OA
ATOM     12  O   UNL     1       2.626   4.860   4.247  0.00  0.00    -0.161 OA
BRANCH  10  13
ATOM     13  C   UNL     1       0.247   5.215   3.370  0.00  0.00    +0.097 A 
ATOM     14  C   UNL     1       0.446   6.582   3.369  0.00  0.00    +0.028 A 
ATOM     15  C   UNL     1      -0.628   7.438   3.213  0.00  0.00    +0.005 A 
ATOM     16  C   UNL     1      -1.903   6.925   3.057  0.00  0.00    -0.050 A 
ATOM     17  C   UNL     1      -2.102   5.557   3.057  0.00  0.00    +0.005 A 
ATOM     18  C   UNL     1      -1.026   4.702   3.208  0.00  0.00    +0.028 A 
ATOM     19  C   UNL     1      -3.075   7.857   2.888  0.00  0.00    +0.044 C 
ENDBRANCH  10  13
ENDBRANCH   8  10
ENDBRANCH   2   5
BRANCH   1  20
ATOM     20  C   UNL     1       1.378  -0.079  -2.144  0.00  0.00    +0.094 C 
BRANCH  20  21
ATOM     21  C   UNL     1       0.140  -0.953  -1.941  0.00  0.00    -0.020 C 
BRANCH  21  22
ATOM     22  C   UNL     1       0.150  -2.079  -2.943  0.00  0.00    -0.059 A 
ATOM     23  C   UNL     1       1.347  -2.512  -3.482  0.00  0.00    +0.005 A 
ATOM     24  C   UNL     1       1.360  -3.544  -4.401  0.00  0.00    +0.046 A 
ATOM     25  C   UNL     1       0.169  -4.146  -4.782  0.00  0.00    +0.121 A 
ATOM     26  C   UNL     1      -1.031  -3.710  -4.239  0.00  0.00    +0.046 A 
ATOM     27  C   UNL     1      -1.037  -2.682  -3.316  0.00  0.00    +0.005 A 
BRANCH  25  28
ATOM     28  O   UNL     1       0.178  -5.161  -5.686  0.00  0.00    -0.492 OA
BRANCH  28  29
ATOM     29  C   UNL     1      -1.084  -5.734  -6.031  0.00  0.00    +0.225 C 
ATOM     30  C   UNL     1      -0.874  -6.852  -7.053  0.00  0.00    +0.048 C 
ENDBRANCH  28  29
ENDBRANCH  25  28
ENDBRANCH  21  22
BRANCH  21  31
ATOM     31  N   UNL     1       0.150  -1.508  -0.581  0.00  0.00    +0.385 N 
ATOM     32  H   UNL     1       0.226  -0.756   0.088  0.00  0.00    -0.081 HD
BRANCH  31  34
ATOM     33  C   UNL     1      -2.278  -1.278  -0.361  0.00  0.00    -0.017 C 
ATOM     34  C   UNL     1      -1.096  -2.249  -0.345  0.00  0.00    -0.081 C 
ENDBRANCH  31  34
BRANCH  31  35
ATOM     35  C   UNL     1       1.295  -2.415  -0.430  0.00  0.00    -0.081 C 
ATOM     36  C   UNL     1       2.516  -1.622   0.039  0.00  0.00    -0.017 C 
ENDBRANCH  31  35
ENDBRANCH  21  31
ENDBRANCH  20  21
ENDBRANCH   1  20
TORSDOF 11
