REMARK  Name = ZINC34791098
REMARK  14 active torsions:
REMARK  status: ('A' for Active; 'I' for Inactive)
REMARK    1  A    between atoms: C_1  and  C_2
REMARK    2  A    between atoms: C_2  and  N_3
REMARK    3  A    between atoms: C_6  and  C_11
REMARK    4  A    between atoms: C_14  and  C_17
REMARK    5  A    between atoms: N_23  and  C_25
REMARK    6  A    between atoms: C_25  and  C_27
REMARK    7  A    between atoms: C_25  and  C_30
REMARK    8  A    between atoms: C_27  and  C_28
REMARK    9  A    between atoms: C_27  and  C_29
REMARK   10  A    between atoms: N_32  and  C_33
REMARK   11  A    between atoms: C_33  and  C_34
REMARK   12  A    between atoms: C_34  and  C_35
REMARK   13  A    between atoms: C_35  and  C_36
REMARK   14  A    between atoms: C_35  and  C_37
REMARK                            x       y       z     vdW  Elec       q    Type
REMARK                         _______ _______ _______ _____ _____    ______ ____
ROOT
ATOM      1  N   UNL     1       0.891   0.106   1.187  0.00  0.00    -0.257 N 
ATOM      2  C   UNL     1       2.119  -0.365   0.820  0.00  0.00    +0.042 C 
ATOM      3  C   UNL     1       2.457  -1.657   1.005  0.00  0.00    +0.058 C 
ATOM      4  C   UNL     1       1.425  -2.571   1.635  0.00  0.00    +0.142 C 
ATOM      5  N   UNL     1       0.131  -1.968   1.995  0.00  0.00    -0.288 N 
ATOM      6  C   UNL     1      -0.056  -0.655   1.752  0.00  0.00    +0.307 C 
ATOM      7  O   UNL     1      -1.119  -0.147   2.050  0.00  0.00    -0.252 OA
ATOM      8  C   UNL     1       3.769  -1.892   0.546  0.00  0.00    +0.247 C 
ATOM      9  O   UNL     1       4.330  -2.971   0.590  0.00  0.00    -0.270 OA
ATOM     10  N   UNL     1       4.320  -0.768   0.053  0.00  0.00    -0.280 N 
ATOM     11  C   UNL     1       3.319   0.301   0.184  0.00  0.00    +0.160 C 
ATOM     12  H   UNL     1      -0.569  -2.502   2.402  0.00  0.00    +0.151 HD
ENDROOT
BRANCH   4  13
ATOM     13  C   UNL     1       2.027  -3.159   2.885  0.00  0.00    -0.023 A 
ATOM     14  C   UNL     1       2.055  -2.419   4.053  0.00  0.00    +0.006 A 
ATOM     15  C   UNL     1       2.607  -2.958   5.200  0.00  0.00    +0.013 A 
ATOM     16  C   UNL     1       3.131  -4.237   5.179  0.00  0.00    +0.055 A 
ATOM     17  C   UNL     1       3.103  -4.977   4.012  0.00  0.00    +0.013 A 
ATOM     18  C   UNL     1       2.547  -4.440   2.866  0.00  0.00    +0.006 A 
BRANCH  16  19
ATOM     19  C   UNL     1       3.734  -4.824   6.429  0.00  0.00    +0.417 C 
ATOM     20  F   UNL     1       2.743  -5.494   7.155  0.00  0.00    -0.166 F 
ATOM     21  F   UNL     1       4.746  -5.725   6.080  0.00  0.00    -0.166 F 
ATOM     22  F   UNL     1       4.273  -3.799   7.213  0.00  0.00    -0.166 F 
ENDBRANCH  16  19
ENDBRANCH   4  13
BRANCH   1  24
ATOM     23  C   UNL     1       1.011   2.337   2.181  0.00  0.00    +0.025 C 
ATOM     24  C   UNL     1       0.594   1.522   0.956  0.00  0.00    +0.111 C 
ENDBRANCH   1  24
BRANCH  10  25
ATOM     25  C   UNL     1       5.666  -0.634  -0.509  0.00  0.00    +0.165 C 
BRANCH  25  26
ATOM     26  C   UNL     1       5.579  -0.008  -1.877  0.00  0.00    +0.234 C 
ATOM     27  O   UNL     1       4.499   0.296  -2.337  0.00  0.00    -0.274 OA
ATOM     28  N   UNL     1       6.702   0.213  -2.590  0.00  0.00    -0.314 N 
ATOM     29  H   UNL     1       7.565  -0.030  -2.222  0.00  0.00    +0.149 HD
BRANCH  28  30
ATOM     30  C   UNL     1       6.617   0.822  -3.920  0.00  0.00    +0.104 C 
BRANCH  30  31
ATOM     31  C   UNL     1       8.023   0.962  -4.507  0.00  0.00    +0.022 C 
BRANCH  31  32
ATOM     32  C   UNL     1       7.935   1.597  -5.896  0.00  0.00    -0.016 C 
ATOM     33  C   UNL     1       7.405   3.027  -5.770  0.00  0.00    +0.007 C 
ATOM     34  C   UNL     1       9.325   1.623  -6.534  0.00  0.00    +0.007 C 
ENDBRANCH  31  32
ENDBRANCH  30  31
ENDBRANCH  28  30
ENDBRANCH  25  26
BRANCH  25  35
ATOM     35  C   UNL     1       6.514   0.253   0.404  0.00  0.00    +0.012 C 
ATOM     36  C   UNL     1       5.854   1.626   0.538  0.00  0.00    +0.009 C 
ATOM     37  C   UNL     1       6.626  -0.397   1.785  0.00  0.00    +0.009 C 
ENDBRANCH  25  35
ENDBRANCH  10  25
TORSDOF 9
