REMARK  Name = ZINC24658459
REMARK  8 active torsions:
REMARK  status: ('A' for Active; 'I' for Inactive)
REMARK    1  A    between atoms: C_1  and  C_2
REMARK    2  A    between atoms: N_4  and  C_5
REMARK    3  A    between atoms: C_7  and  C_15
REMARK    4  A    between atoms: C_9  and  N_11
REMARK    5  A    between atoms: C_12  and  C_14
REMARK    6  A    between atoms: N_17  and  C_18
REMARK    7  A    between atoms: C_18  and  C_20
REMARK    8  A    between atoms: C_18  and  C_30
REMARK                            x       y       z     vdW  Elec       q    Type
REMARK                         _______ _______ _______ _____ _____    ______ ____
ROOT
ATOM      1  C   UNL     1       2.041   6.065   1.967  0.00  0.00    +0.245 C 
ATOM      2  O   UNL     1       0.918   6.362   2.326  0.00  0.00    -0.270 OA
ATOM      3  N   UNL     1       2.304   5.888   0.657  0.00  0.00    -0.300 N 
ATOM      4  H   UNL     1       3.320   5.620   0.332  0.00  0.00    +0.150 HD
ENDROOT
BRANCH   1   7
ATOM      5  C   UNL     1       3.859   5.925   5.258  0.00  0.00    +0.036 A 
ATOM      6  C   UNL     1       2.847   6.082   4.323  0.00  0.00    +0.036 A 
ATOM      7  C   UNL     1       3.118   5.899   2.967  0.00  0.00    +0.040 A 
ATOM      8  C   UNL     1       4.405   5.553   2.557  0.00  0.00    +0.036 A 
ATOM      9  C   UNL     1       5.414   5.404   3.496  0.00  0.00    +0.036 A 
ATOM     10  C   UNL     1       5.141   5.587   4.845  0.00  0.00    +0.046 A 
BRANCH   5  14
ATOM     11  C   UNL     1       2.148   5.825   8.610  0.00  0.00    +0.109 C 
ATOM     12  C   UNL     1       2.401   5.724   7.127  0.00  0.00    +0.214 C 
ATOM     13  O   UNL     1       1.536   5.296   6.392  0.00  0.00    -0.276 OA
ATOM     14  N   UNL     1       3.588   6.109   6.619  0.00  0.00    -0.286 N 
ATOM     15  H   UNL     1       4.344   6.568   7.273  0.00  0.00    +0.155 HD
ENDBRANCH   5  14
BRANCH   9  16
ATOM     16  N   UNL     1       6.707   5.062   3.085  0.00  0.00    -0.286 N 
ATOM     17  C   UNL     1       7.177   5.505   1.902  0.00  0.00    +0.214 C 
ATOM     18  O   UNL     1       6.517   6.275   1.237  0.00  0.00    -0.276 OA
ATOM     19  C   UNL     1       8.523   5.043   1.405  0.00  0.00    +0.109 C 
ATOM     20  H   UNL     1       7.340   4.432   3.727  0.00  0.00    +0.155 HD
ENDBRANCH   9  16
ENDBRANCH   1   7
BRANCH   3  21
ATOM     21  C   UNL     1       1.237   6.053  -0.333  0.00  0.00    +0.140 C 
BRANCH  21  22
ATOM     22  C   UNL     1       1.841   6.412  -1.667  0.00  0.00    -0.022 A 
ATOM     23  C   UNL     1       3.006   5.800  -2.088  0.00  0.00    +0.006 A 
ATOM     24  C   UNL     1       3.554   6.135  -3.309  0.00  0.00    +0.004 A 
ATOM     25  C   UNL     1       2.943   7.083  -4.120  0.00  0.00    -0.044 A 
ATOM     26  C   UNL     1       1.780   7.691  -3.701  0.00  0.00    -0.044 A 
ATOM     27  C   UNL     1       1.229   7.349  -2.473  0.00  0.00    +0.009 A 
ATOM     28  C   UNL     1       1.059   8.720  -4.532  0.00  0.00    +0.035 C 
ATOM     29  C   UNL     1       1.983   9.283  -5.610  0.00  0.00    +0.005 C 
ATOM     30  C   UNL     1       2.613   8.110  -6.369  0.00  0.00    +0.005 C 
ATOM     31  C   UNL     1       3.598   7.407  -5.437  0.00  0.00    +0.035 C 
ENDBRANCH  21  22
BRANCH  21  32
ATOM     32  C   UNL     1       0.468   4.763  -0.462  0.00  0.00    +0.014 A 
ATOM     33  C   UNL     1      -0.868   4.577  -0.600  0.00  0.00    +0.013 A 
ATOM     34  C   UNL     1      -1.357   3.288  -0.707  0.00  0.00    +0.008 A 
ATOM     35  C   UNL     1      -0.488   2.249  -0.659  0.00  0.00    +0.045 A 
ATOM     36  S   UNL     1       1.078   3.086  -0.471  0.00  0.00    -0.099 S 
ENDBRANCH  21  32
ENDBRANCH   3  21
TORSDOF 6
