REMARK  Name = ZINC20709089
REMARK  5 active torsions:
REMARK  status: ('A' for Active; 'I' for Inactive)
REMARK    1  A    between atoms: C_1  and  C_2
REMARK    2  A    between atoms: C_4  and  N_28
REMARK    3  A    between atoms: C_9  and  C_18
REMARK    4  A    between atoms: C_20  and  N_25
REMARK    5  A    between atoms: C_23  and  O_24
REMARK                            x       y       z     vdW  Elec       q    Type
REMARK                         _______ _______ _______ _____ _____    ______ ____
ROOT
ATOM      1  C   UNL     1      -5.533   3.428   2.302  0.00  0.00    +0.046 C 
ATOM      2  C   UNL     1      -4.647   2.318   1.800  0.00  0.00    -0.027 A 
ATOM      3  C   UNL     1      -5.050   1.008   1.944  0.00  0.00    +0.038 A 
ATOM      4  C   UNL     1      -4.247  -0.021   1.487  0.00  0.00    +0.127 A 
ATOM      5  C   UNL     1      -3.040   0.271   0.879  0.00  0.00    +0.038 A 
ATOM      6  C   UNL     1      -2.632   1.579   0.727  0.00  0.00    -0.017 A 
ATOM      7  C   UNL     1      -3.428   2.629   1.196  0.00  0.00    +0.034 A 
ATOM      8  N   UNL     1      -3.070   3.973   1.121  0.00  0.00    -0.336 N 
ATOM      9  C   UNL     1      -1.808   4.302   0.439  0.00  0.00    +0.108 C 
ATOM     10  C   UNL     1      -0.815   3.209   0.775  0.00  0.00    +0.029 C 
ATOM     11  C   UNL     1      -1.354   1.924   0.067  0.00  0.00    +0.049 C 
ATOM     12  C   UNL     1      -0.178   1.019   0.080  0.00  0.00    -0.023 C 
ATOM     13  C   UNL     1       0.924   1.760   0.067  0.00  0.00    -0.030 C 
ATOM     14  C   UNL     1       0.555   3.246   0.089  0.00  0.00    +0.033 C 
ATOM     15  H   UNL     1      -3.690   4.775   1.548  0.00  0.00    +0.147 HD
ENDROOT
BRANCH   9  16
ATOM     16  C   UNL     1      -2.058   4.330  -1.047  0.00  0.00    +0.017 A 
ATOM     17  C   UNL     1      -3.107   3.610  -1.585  0.00  0.00    +0.041 A 
ATOM     18  C   UNL     1      -3.340   3.640  -2.948  0.00  0.00    +0.127 A 
ATOM     19  C   UNL     1      -2.517   4.381  -3.776  0.00  0.00    +0.036 A 
ATOM     20  C   UNL     1      -1.463   5.098  -3.243  0.00  0.00    +0.048 A 
ATOM     21  C   UNL     1      -1.231   5.074  -1.875  0.00  0.00    +0.122 A 
BRANCH  18  22
ATOM     22  N   UNL     1      -4.468   2.874  -3.522  0.00  0.00    +0.056 N 
ATOM     23  O   UNL     1      -4.672   2.896  -4.722  0.00  0.00    -0.126 OA
ATOM     24  O   UNL     1      -5.194   2.221  -2.793  0.00  0.00    -0.126 OA
ENDBRANCH  18  22
BRANCH  21  25
ATOM     25  O   UNL     1      -0.195   5.779  -1.348  0.00  0.00    -0.506 OA
ATOM     26  H   UNL     1       0.460   6.369  -2.006  0.00  0.00    +0.292 HD
ENDBRANCH  21  25
ENDBRANCH   9  16
BRANCH   4  27
ATOM     27  N   UNL     1      -4.678  -1.428   1.648  0.00  0.00    +0.056 N 
ATOM     28  O   UNL     1      -3.969  -2.332   1.245  0.00  0.00    -0.126 OA
ATOM     29  O   UNL     1      -5.742  -1.681   2.184  0.00  0.00    -0.126 OA
ENDBRANCH   4  27
TORSDOF 4
