REMARK  Name = ZINC13638951
REMARK  6 active torsions:
REMARK  status: ('A' for Active; 'I' for Inactive)
REMARK    1  A    between atoms: C_1  and  C_2
REMARK    2  A    between atoms: C_6  and  C_35
REMARK    3  A    between atoms: C_7  and  N_8
REMARK    4  A    between atoms: N_8  and  S_9
REMARK    5  A    between atoms: S_9  and  C_12
REMARK    6  A    between atoms: C_25  and  C_28
REMARK                            x       y       z     vdW  Elec       q    Type
REMARK                         _______ _______ _______ _____ _____    ______ ____
ROOT
ATOM      1  C   UNL     1      -1.093  -0.222   2.737  0.00  0.00    +0.109 A 
ATOM      2  C   UNL     1      -0.064  -0.976   3.271  0.00  0.00    +0.030 A 
ATOM      3  C   UNL     1       1.127  -1.093   2.582  0.00  0.00    +0.025 A 
ATOM      4  C   UNL     1       1.286  -0.455   1.357  0.00  0.00    +0.031 A 
ATOM      5  C   UNL     1       0.260   0.302   0.821  0.00  0.00    -0.018 A 
ATOM      6  C   UNL     1      -0.934   0.412   1.522  0.00  0.00    +0.034 A 
ATOM      7  C   UNL     1       0.374   1.020  -0.497  0.00  0.00    +0.049 C 
ATOM      8  C   UNL     1       0.161   2.503  -0.229  0.00  0.00    -0.023 C 
ATOM      9  C   UNL     1       1.312   3.115  -0.103  0.00  0.00    -0.030 C 
ATOM     10  C   UNL     1       2.457   2.132  -0.272  0.00  0.00    +0.033 C 
ATOM     11  C   UNL     1       1.804   0.976  -1.065  0.00  0.00    +0.029 C 
ATOM     12  C   UNL     1       2.496  -0.343  -0.775  0.00  0.00    +0.105 C 
ATOM     13  N   UNL     1       2.499  -0.588   0.671  0.00  0.00    -0.336 N 
ATOM     14  H   UNL     1       3.313  -0.835   1.137  0.00  0.00    +0.147 HD
ENDROOT
BRANCH  12  15
ATOM     15  C   UNL     1       1.762  -1.460  -1.472  0.00  0.00    -0.027 A 
ATOM     16  C   UNL     1       0.614  -1.987  -0.912  0.00  0.00    +0.006 A 
ATOM     17  C   UNL     1      -0.062  -3.007  -1.554  0.00  0.00    +0.015 A 
ATOM     18  C   UNL     1       0.416  -3.509  -2.751  0.00  0.00    +0.018 A 
ATOM     19  C   UNL     1       1.569  -2.984  -3.308  0.00  0.00    +0.015 A 
ATOM     20  C   UNL     1       2.241  -1.960  -2.669  0.00  0.00    +0.006 A 
ATOM     21 BR   UNL     1      -0.504  -4.910  -3.625  0.00  0.00    -0.050 Br
ENDBRANCH  12  15
BRANCH   1  22
ATOM     22  S   UNL     1      -2.615  -0.072   3.613  0.00  0.00    +0.072 S 
ATOM     23  O   UNL     1      -3.586   0.356   2.668  0.00  0.00    -0.150 OA
ATOM     24  O   UNL     1      -2.765  -1.263   4.373  0.00  0.00    -0.150 OA
BRANCH  22  25
ATOM     25  N   UNL     1      -2.435   1.164   4.699  0.00  0.00    -0.216 N 
ATOM     26  H   UNL     1      -2.450   0.979   5.652  0.00  0.00    +0.174 HD
BRANCH  25  33
ATOM     27  C   UNL     1       0.175   2.292   4.817  0.00  0.00    +0.046 C 
ATOM     28  C   UNL     1      -1.005   3.064   4.284  0.00  0.00    -0.028 A 
ATOM     29  C   UNL     1      -0.837   4.357   3.830  0.00  0.00    +0.005 A 
ATOM     30  C   UNL     1      -1.919   5.068   3.347  0.00  0.00    +0.001 A 
ATOM     31  C   UNL     1      -3.173   4.486   3.311  0.00  0.00    +0.005 A 
ATOM     32  C   UNL     1      -3.348   3.191   3.759  0.00  0.00    -0.028 A 
ATOM     33  C   UNL     1      -2.262   2.474   4.245  0.00  0.00    +0.054 A 
ATOM     34  C   UNL     1      -4.714   2.557   3.720  0.00  0.00    +0.046 C 
ENDBRANCH  25  33
ENDBRANCH  22  25
ENDBRANCH   1  22
TORSDOF 4
