REMARK  Name = ZINC30977828
REMARK  14 active torsions:
REMARK  status: ('A' for Active; 'I' for Inactive)
REMARK    1  A    between atoms: C_1  and  C_2
REMARK    2  A    between atoms: C_2  and  C_3
REMARK    3  A    between atoms: C_2  and  C_4
REMARK    4  A    between atoms: C_2  and  C_5
REMARK    5  A    between atoms: C_8  and  C_11
REMARK    6  A    between atoms: C_13  and  C_16
REMARK    7  A    between atoms: C_16  and  N_17
REMARK    8  A    between atoms: C_20  and  C_23
REMARK    9  A    between atoms: N_25  and  C_26
REMARK   10  A    between atoms: C_26  and  C_27
REMARK   11  A    between atoms: C_27  and  C_28
REMARK   12  A    between atoms: C_28  and  S_29
REMARK   13  A    between atoms: S_29  and  C_30
REMARK   14  A    between atoms: C_30  and  C_31
REMARK                            x       y       z     vdW  Elec       q    Type
REMARK                         _______ _______ _______ _____ _____    ______ ____
ROOT
ATOM      1  N   UNL     1       6.490   7.775   1.261  0.00  0.00    +0.386 N 
ATOM      2  C   UNL     1       5.827   8.280   0.052  0.00  0.00    -0.077 C 
ATOM      3  C   UNL     1       4.389   7.757   0.002  0.00  0.00    -0.006 C 
ATOM      4  C   UNL     1       4.409   6.226  -0.007  0.00  0.00    +0.071 C 
ATOM      5  C   UNL     1       5.148   5.726   1.238  0.00  0.00    -0.006 C 
ATOM      6  C   UNL     1       6.563   6.308   1.252  0.00  0.00    -0.077 C 
ATOM      7  H   UNL     1       5.883   8.075   2.127  0.00  0.00    -0.081 HD
ENDROOT
BRANCH   4   8
ATOM      8  C   UNL     1       2.995   5.705   0.004  0.00  0.00    +0.216 C 
ATOM      9  O   UNL     1       2.062   6.480   0.017  0.00  0.00    -0.276 OA
ATOM     10  N   UNL     1       2.767   4.376  -0.001  0.00  0.00    -0.315 N 
ATOM     11  H   UNL     1       3.612   3.673  -0.013  0.00  0.00    +0.149 HD
BRANCH  10  12
ATOM     12  C   UNL     1       1.392   3.869   0.009  0.00  0.00    +0.105 C 
BRANCH  12  13
ATOM     13  C   UNL     1       1.413   2.339   0.001  0.00  0.00    +0.029 C 
BRANCH  13  14
ATOM     14  C   UNL     1      -0.022   1.810   0.012  0.00  0.00    +0.071 C 
BRANCH  14  15
ATOM     15  S   UNL     1       0.002  -0.004   0.002  0.00  0.00    -0.153 S 
BRANCH  15  16
ATOM     16  C   UNL     1      -1.752  -0.467   0.016  0.00  0.00    +0.143 C 
BRANCH  16  17
ATOM     17  C   UNL     1      -1.875  -1.969   0.009  0.00  0.00    +0.115 A 
ATOM     18  C   UNL     1      -1.929  -2.759   1.097  0.00  0.00    +0.045 A 
ATOM     19  C   UNL     1      -2.043  -4.089   0.632  0.00  0.00    +0.041 A 
ATOM     20  C   UNL     1      -2.052  -4.032  -0.712  0.00  0.00    +0.195 A 
ATOM     21  O   UNL     1      -1.956  -2.745  -1.083  0.00  0.00    -0.467 OA
ENDBRANCH  16  17
ENDBRANCH  15  16
ENDBRANCH  14  15
ENDBRANCH  13  14
ENDBRANCH  12  13
ENDBRANCH  10  12
ENDBRANCH   4   8
BRANCH   1  22
ATOM     22  C   UNL     1       7.826   8.367   1.414  0.00  0.00    +0.022 C 
BRANCH  22  25
ATOM     23  C   UNL     1       9.354   7.080   4.402  0.00  0.00    +0.202 A 
ATOM     24  N   UNL     1       9.092   6.970   3.080  0.00  0.00    -0.193 NA
ATOM     25  C   UNL     1       8.375   8.022   2.775  0.00  0.00    +0.211 A 
ATOM     26  O   UNL     1       8.226   8.736   3.895  0.00  0.00    -0.340 OA
ATOM     27  N   UNL     1       8.786   8.182   4.818  0.00  0.00    -0.056 NA
BRANCH  23  31
ATOM     28  C   UNL     1      11.600   4.351   6.767  0.00  0.00    -0.042 A 
ATOM     29  C   UNL     1      11.058   5.483   7.349  0.00  0.00    +0.005 A 
ATOM     30  C   UNL     1      10.328   6.372   6.586  0.00  0.00    +0.012 A 
ATOM     31  C   UNL     1      10.139   6.128   5.228  0.00  0.00    +0.022 A 
ATOM     32  C   UNL     1      10.683   4.984   4.648  0.00  0.00    +0.012 A 
ATOM     33  C   UNL     1      11.415   4.104   5.419  0.00  0.00    +0.005 A 
BRANCH  28  35
ATOM     34  C   UNL     1      11.514   2.837   8.729  0.00  0.00    +0.015 C 
ATOM     35  C   UNL     1      12.396   3.384   7.605  0.00  0.00    -0.013 C 
ATOM     36  C   UNL     1      12.880   2.227   6.728  0.00  0.00    +0.015 C 
ATOM     37  C   UNL     1      13.603   4.105   8.209  0.00  0.00    +0.015 C 
ENDBRANCH  28  35
ENDBRANCH  23  31
ENDBRANCH  22  25
ENDBRANCH   1  22
TORSDOF 11
