REMARK  Name = ZINC40476293
REMARK  9 active torsions:
REMARK  status: ('A' for Active; 'I' for Inactive)
REMARK    1  A    between atoms: C_1  and  C_2
REMARK    2  A    between atoms: C_2  and  C_3
REMARK    3  A    between atoms: C_3  and  C_4
REMARK    4  A    between atoms: C_4  and  C_5
REMARK    5  A    between atoms: C_5  and  S_6
REMARK    6  A    between atoms: S_6  and  C_7
REMARK    7  A    between atoms: C_18  and  C_20
REMARK    8  A    between atoms: C_30  and  C_32
REMARK    9  A    between atoms: C_30  and  C_33
REMARK                            x       y       z     vdW  Elec       q    Type
REMARK                         _______ _______ _______ _____ _____    ______ ____
ROOT
ATOM      1  C   UNL     1      -4.527  -4.856   0.019  0.00  0.00    +0.171 A 
ATOM      2  N   UNL     1      -4.869  -6.175   0.021  0.00  0.00    -0.302 N 
ATOM      3  H   UNL     1      -4.177  -6.854   0.012  0.00  0.00    +0.171 HD
ATOM      4  C   UNL     1      -6.169  -6.538   0.036  0.00  0.00    +0.258 A 
ATOM      5  O   UNL     1      -6.486  -7.717   0.042  0.00  0.00    -0.267 OA
ATOM      6  C   UNL     1      -7.147  -5.537   0.045  0.00  0.00    +0.069 A 
ATOM      7  C   UNL     1      -6.747  -4.212   0.037  0.00  0.00    +0.135 A 
ATOM      8  N   UNL     1      -5.444  -3.910   0.033  0.00  0.00    -0.208 NA
ATOM      9  N   UNL     1      -7.698  -3.210   0.037  0.00  0.00    -0.302 N 
ATOM     10  C   UNL     1      -8.986  -3.472  -0.343  0.00  0.00    +0.017 C 
ATOM     11  C   UNL     1      -9.465  -4.734  -0.347  0.00  0.00    +0.024 C 
ATOM     12  C   UNL     1      -8.602  -5.899   0.067  0.00  0.00    +0.092 C 
ATOM     13  C   UNL     1     -10.790  -5.004  -0.732  0.00  0.00    +0.162 C 
ATOM     14  O   UNL     1     -11.185  -6.153  -0.744  0.00  0.00    -0.292 OA
ATOM     15  C   UNL     1     -11.729  -3.898  -1.129  0.00  0.00    +0.086 C 
ATOM     16  C   UNL     1     -11.314  -2.609  -0.412  0.00  0.00    -0.023 C 
ATOM     17  C   UNL     1      -9.854  -2.311  -0.762  0.00  0.00    +0.058 C 
ATOM     18  C   UNL     1     -12.202  -1.452  -0.875  0.00  0.00    +0.011 C 
ATOM     19  C   UNL     1     -11.454  -2.793   1.101  0.00  0.00    +0.011 C 
ATOM     20  H   UNL     1      -7.450  -2.312   0.308  0.00  0.00    +0.153 HD
ENDROOT
BRANCH  12  21
ATOM     21  C   UNL     1      -8.984  -6.324   1.461  0.00  0.00    -0.035 A 
ATOM     22  C   UNL     1      -8.843  -5.441   2.515  0.00  0.00    +0.007 A 
ATOM     23  C   UNL     1      -9.193  -5.829   3.795  0.00  0.00    +0.038 A 
ATOM     24  C   UNL     1      -9.685  -7.104   4.020  0.00  0.00    +0.123 A 
ATOM     25  C   UNL     1      -9.826  -7.987   2.963  0.00  0.00    +0.038 A 
ATOM     26  C   UNL     1      -9.480  -7.595   1.684  0.00  0.00    +0.007 A 
ATOM     27  F   UNL     1     -10.027  -7.485   5.270  0.00  0.00    -0.205 F 
ENDBRANCH  12  21
BRANCH   1  28
ATOM     28  S   UNL     1      -2.823  -4.407   0.005  0.00  0.00    -0.088 S 
BRANCH  28  29
ATOM     29  C   UNL     1      -2.848  -2.593   0.015  0.00  0.00    +0.077 C 
BRANCH  29  30
ATOM     30  C   UNL     1      -1.413  -2.063   0.004  0.00  0.00    +0.011 C 
BRANCH  30  31
ATOM     31  C   UNL     1      -1.433  -0.534   0.013  0.00  0.00    +0.001 C 
BRANCH  31  33
ATOM     32  C   UNL     1      -0.019   1.526   0.010  0.00  0.00    +0.004 C 
ATOM     33  C   UNL     1       0.002  -0.004   0.002  0.00  0.00    -0.003 C 
ENDBRANCH  31  33
ENDBRANCH  30  31
ENDBRANCH  29  30
ENDBRANCH  28  29
ENDBRANCH   1  28
TORSDOF 6
