REMARK  Name = ZINC38915354
REMARK  5 active torsions:
REMARK  status: ('A' for Active; 'I' for Inactive)
REMARK    1  A    between atoms: C_5  and  C_7
REMARK    2  A    between atoms: C_7  and  S_8
REMARK    3  A    between atoms: S_8  and  C_9
REMARK    4  A    between atoms: C_14  and  C_15
REMARK    5  A    between atoms: N_23  and  C_24
REMARK                            x       y       z     vdW  Elec       q    Type
REMARK                         _______ _______ _______ _____ _____    ______ ____
ROOT
ATOM      1  C   UNL     1       1.310  -4.786   3.986  0.00  0.00    +0.224 C 
ATOM      2  N   UNL     1       0.655  -5.663   4.985  0.00  0.00    -0.166 NA
ATOM      3  N   UNL     1       1.318  -6.082   5.907  0.00  0.00    -0.130 NA
ATOM      4  C   UNL     1       2.653  -5.801   6.102  0.00  0.00    +0.185 C 
ATOM      5  N   UNL     1       3.458  -6.205   7.068  0.00  0.00    -0.247 N 
ATOM      6  C   UNL     1       2.990  -7.006   8.040  0.00  0.00    +0.310 C 
ATOM      7  O   UNL     1       1.825  -7.359   8.031  0.00  0.00    -0.252 OA
ATOM      8  N   UNL     1       3.812  -7.419   9.026  0.00  0.00    -0.267 N 
ATOM      9  S   UNL     1       3.010  -4.742   4.699  0.00  0.00    -0.055 S 
ATOM     10  H   UNL     1       4.755  -7.192   8.999  0.00  0.00    +0.156 HD
ATOM     11  H   UNL     1       4.386  -5.924   7.075  0.00  0.00    +0.158 HD
ENDROOT
BRANCH   8  12
ATOM     12  C   UNL     1       3.305  -8.176  10.089  0.00  0.00    +0.070 A 
ATOM     13  C   UNL     1       2.279  -9.085   9.869  0.00  0.00    +0.026 A 
ATOM     14  C   UNL     1       1.780  -9.830  10.920  0.00  0.00    +0.002 A 
ATOM     15  C   UNL     1       2.301  -9.672  12.191  0.00  0.00    +0.003 A 
ATOM     16  C   UNL     1       3.322  -8.767  12.416  0.00  0.00    +0.040 A 
ATOM     17  C   UNL     1       3.831  -8.023  11.367  0.00  0.00    +0.145 A 
ATOM     18  F   UNL     1       4.833  -7.143  11.585  0.00  0.00    -0.204 F 
ENDBRANCH   8  12
BRANCH   1  24
ATOM     19  C   UNL     1       1.284  -4.607   1.483  0.00  0.00    +0.014 A 
ATOM     20  C   UNL     1       1.284  -5.188   0.221  0.00  0.00    +0.015 A 
ATOM     21  C   UNL     1       1.298  -6.563   0.096  0.00  0.00    +0.001 A 
ATOM     22  C   UNL     1       1.311  -7.362   1.225  0.00  0.00    +0.000 A 
ATOM     23  C   UNL     1       1.311  -6.787   2.483  0.00  0.00    +0.008 A 
ATOM     24  C   UNL     1       1.303  -5.412   2.615  0.00  0.00    +0.002 A 
BRANCH  19  25
ATOM     25  S   UNL     1       1.266  -2.852   1.648  0.00  0.00    -0.120 S 
BRANCH  25  26
ATOM     26  C   UNL     1       1.243  -2.251  -0.064  0.00  0.00    +0.112 C 
BRANCH  26  31
ATOM     27  C   UNL     1       0.007   1.316  -0.060  0.00  0.00    +0.000 A 
ATOM     28  C   UNL     1       1.196   2.022  -0.073  0.00  0.00    +0.003 A 
ATOM     29  C   UNL     1       2.401   1.346  -0.083  0.00  0.00    +0.038 A 
ATOM     30  C   UNL     1       2.417  -0.039  -0.079  0.00  0.00    +0.127 A 
ATOM     31  C   UNL     1       1.226  -0.744  -0.067  0.00  0.00    -0.002 A 
ATOM     32  C   UNL     1       0.022  -0.066  -0.057  0.00  0.00    +0.007 A 
ATOM     33  F   UNL     1       3.595  -0.701  -0.089  0.00  0.00    -0.205 F 
ENDBRANCH  26  31
ENDBRANCH  25  26
ENDBRANCH  19  25
ENDBRANCH   1  24
TORSDOF 5
