REMARK  Name = ZINC17823345
REMARK  3 active torsions:
REMARK  status: ('A' for Active; 'I' for Inactive)
REMARK    1  A    between atoms: C_1  and  C_2
REMARK    2  A    between atoms: C_5  and  C_8
REMARK    3  A    between atoms: C_17  and  N_20
REMARK                            x       y       z     vdW  Elec       q    Type
REMARK                         _______ _______ _______ _____ _____    ______ ____
ROOT
ATOM      1  C   UNL     1       6.072   1.552  -0.048  0.00  0.00    -0.002 C 
ATOM      2  C   UNL     1       6.153   2.426   1.206  0.00  0.00    +0.015 C 
ATOM      3  C   UNL     1       4.977   3.404   1.222  0.00  0.00    -0.008 C 
ATOM      4  C   UNL     1       5.034   4.292  -0.023  0.00  0.00    +0.007 C 
ATOM      5  C   UNL     1       4.953   3.418  -1.276  0.00  0.00    -0.008 C 
ATOM      6  C   UNL     1       6.130   2.439  -1.293  0.00  0.00    +0.015 C 
ATOM      7  C   UNL     1       3.639   2.635  -1.268  0.00  0.00    +0.029 C 
ATOM      8  C   UNL     1       3.582   1.747  -0.023  0.00  0.00    +0.037 C 
ATOM      9  C   UNL     1       3.663   2.621   1.230  0.00  0.00    +0.029 C 
ATOM     10  C   UNL     1       4.758   0.769  -0.039  0.00  0.00    +0.037 C 
ENDROOT
BRANCH   8  11
ATOM     11  N   UNL     1       2.323   0.998  -0.015  0.00  0.00    -0.294 N 
ATOM     12  C   UNL     1       1.147   1.655   0.000  0.00  0.00    +0.306 C 
ATOM     13  O   UNL     1       1.130   2.871   0.007  0.00  0.00    -0.252 OA
ATOM     14  N   UNL     1      -0.011   0.966   0.007  0.00  0.00    -0.248 N 
ATOM     15  C   UNL     1      -1.224   1.644   0.017  0.00  0.00    +0.165 A 
ATOM     16  N   UNL     1      -1.446   2.944   0.031  0.00  0.00    -0.233 NA
ATOM     17  C   UNL     1      -2.674   3.428   0.033  0.00  0.00    +0.120 A 
ATOM     18  C   UNL     1      -3.711   2.556   0.034  0.00  0.00    +0.068 A 
ATOM     19  S   UNL     1      -2.836   0.998   0.021  0.00  0.00    -0.060 S 
ATOM     20  H   UNL     1       2.338  -0.102  -0.021  0.00  0.00    +0.151 HD
ATOM     21  H   UNL     1       0.004  -0.134   0.006  0.00  0.00    +0.158 HD
ENDBRANCH   8  11
BRANCH   1  26
ATOM     22  C   UNL     1      10.515  -2.143  -0.108  0.00  0.00    +0.044 C 
ATOM     23  C   UNL     1       9.356  -1.179  -0.093  0.00  0.00    -0.050 A 
ATOM     24  C   UNL     1       9.591   0.183  -0.088  0.00  0.00    +0.003 A 
ATOM     25  C   UNL     1       8.528   1.067  -0.074  0.00  0.00    +0.004 A 
ATOM     26  C   UNL     1       7.231   0.588  -0.064  0.00  0.00    -0.041 A 
ATOM     27  C   UNL     1       6.997  -0.774  -0.063  0.00  0.00    +0.004 A 
ATOM     28  C   UNL     1       8.059  -1.658  -0.083  0.00  0.00    +0.003 A 
ENDBRANCH   1  26
TORSDOF 2
