REMARK  Name = ZINC38701984
REMARK  10 active torsions:
REMARK  status: ('A' for Active; 'I' for Inactive)
REMARK    1  A    between atoms: C_1  and  C_2
REMARK    2  A    between atoms: C_5  and  O_39
REMARK    3  A    between atoms: C_6  and  C_8
REMARK    4  A    between atoms: N_16  and  C_31
REMARK    5  A    between atoms: C_17  and  C_19
REMARK    6  A    between atoms: C_22  and  O_27
REMARK    7  A    between atoms: C_23  and  O_25
REMARK    8  A    between atoms: O_25  and  C_26
REMARK    9  A    between atoms: O_27  and  C_28
REMARK   10  A    between atoms: C_28  and  C_29
REMARK                            x       y       z     vdW  Elec       q    Type
REMARK                         _______ _______ _______ _____ _____    ______ ____
ROOT
ATOM      1  C   UNL     1       0.049  -2.842   2.470  0.00  0.00    +0.102 A 
ATOM      2  C   UNL     1       0.173  -4.228   2.615  0.00  0.00    +0.035 A 
ATOM      3  C   UNL     1       0.138  -4.470   3.975  0.00  0.00    +0.126 A 
ATOM      4  N   UNL     1      -0.002  -3.250   4.573  0.00  0.00    -0.272 N 
ATOM      5  H   UNL     1      -0.056  -3.102   5.530  0.00  0.00    +0.189 HD
ATOM      6  N   UNL     1      -0.045  -2.326   3.680  0.00  0.00    -0.173 NA
ATOM      7  C   UNL     1       0.264  -5.915   4.196  0.00  0.00    +0.266 C 
ATOM      8  O   UNL     1       0.268  -6.452   5.287  0.00  0.00    -0.268 OA
ATOM      9  N   UNL     1       0.374  -6.560   3.021  0.00  0.00    -0.280 N 
ATOM     10  C   UNL     1       0.327  -5.565   1.942  0.00  0.00    +0.142 C 
ENDROOT
BRANCH   1  16
ATOM     11  C   UNL     1       1.984  -1.964  -2.047  0.00  0.00    +0.044 C 
ATOM     12  C   UNL     1       0.961  -1.664  -0.982  0.00  0.00    -0.050 A 
ATOM     13  C   UNL     1       0.007  -0.686  -1.199  0.00  0.00    +0.007 A 
ATOM     14  C   UNL     1      -0.935  -0.404  -0.228  0.00  0.00    +0.046 A 
ATOM     15  C   UNL     1      -0.929  -1.101   0.970  0.00  0.00    +0.126 A 
ATOM     16  C   UNL     1       0.034  -2.091   1.191  0.00  0.00    +0.044 A 
ATOM     17  C   UNL     1       0.975  -2.371   0.203  0.00  0.00    +0.017 A 
BRANCH  15  18
ATOM     18  O   UNL     1      -1.854  -0.825   1.925  0.00  0.00    -0.506 OA
ATOM     19  H   UNL     1      -2.692  -1.293   1.808  0.00  0.00    +0.292 HD
ENDBRANCH  15  18
ENDBRANCH   1  16
BRANCH   9  20
ATOM     20  C   UNL     1       0.516  -8.008   2.847  0.00  0.00    +0.100 C 
ATOM     21  C   UNL     1      -0.686  -8.728   3.480  0.00  0.00    +0.047 C 
ATOM     22  C   UNL     1      -0.396 -10.244   3.589  0.00  0.00    +0.168 C 
ATOM     23  S   UNL     1       1.437 -10.296   3.731  0.00  0.00    -0.029 S 
ATOM     24  O   UNL     1       1.786 -10.720   5.042  0.00  0.00    -0.174 OA
ATOM     25  O   UNL     1       1.969 -10.985   2.608  0.00  0.00    -0.174 OA
ATOM     26  C   UNL     1       1.806  -8.499   3.564  0.00  0.00    +0.188 C 
ENDBRANCH   9  20
BRANCH  10  27
ATOM     27  C   UNL     1      -0.853  -5.831   1.042  0.00  0.00    -0.019 A 
ATOM     28  C   UNL     1      -2.081  -6.151   1.591  0.00  0.00    +0.009 A 
ATOM     29  C   UNL     1      -3.165  -6.396   0.770  0.00  0.00    +0.050 A 
ATOM     30  C   UNL     1      -3.023  -6.322  -0.606  0.00  0.00    +0.162 A 
ATOM     31  C   UNL     1      -1.787  -6.000  -1.159  0.00  0.00    +0.162 A 
ATOM     32  C   UNL     1      -0.705  -5.750  -0.330  0.00  0.00    +0.055 A 
BRANCH  31  33
ATOM     33  O   UNL     1      -1.643  -5.925  -2.509  0.00  0.00    -0.491 OA
ATOM     34  C   UNL     1      -0.345  -5.590  -3.005  0.00  0.00    +0.277 C 
ENDBRANCH  31  33
BRANCH  30  35
ATOM     35  O   UNL     1      -4.089  -6.563  -1.416  0.00  0.00    -0.484 OA
BRANCH  35  36
ATOM     36  C   UNL     1      -5.326  -6.888  -0.779  0.00  0.00    +0.256 C 
BRANCH  36  37
ATOM     37  C   UNL     1      -6.385  -7.121  -1.827  0.00  0.00    +0.006 C 
ATOM     38  C   UNL     1      -7.189  -8.150  -1.728  0.00  0.00    +0.007 C 
ENDBRANCH  36  37
ENDBRANCH  35  36
ENDBRANCH  30  35
ENDBRANCH  10  27
TORSDOF 8
