REMARK  Name = ZINC15968799
REMARK  6 active torsions:
REMARK  status: ('A' for Active; 'I' for Inactive)
REMARK    1  A    between atoms: C_1  and  C_2
REMARK    2  A    between atoms: C_13  and  C_16
REMARK    3  A    between atoms: C_16  and  C_17
REMARK    4  A    between atoms: C_20  and  O_23
REMARK    5  A    between atoms: N_26  and  C_29
REMARK    6  A    between atoms: C_29  and  C_30
REMARK                            x       y       z     vdW  Elec       q    Type
REMARK                         _______ _______ _______ _____ _____    ______ ____
ROOT
ATOM      1  C   UNL     1      -0.061   1.458  -0.043  0.00  0.00    +0.044 C 
ATOM      2  C   UNL     1      -0.050  -0.049  -0.040  0.00  0.00    -0.050 A 
ATOM      3  C   UNL     1      -0.172  -0.745  -1.228  0.00  0.00    +0.005 A 
ATOM      4  C   UNL     1      -0.164  -2.125  -1.230  0.00  0.00    +0.024 A 
ATOM      5  C   UNL     1      -0.029  -2.827  -0.035  0.00  0.00    +0.039 A 
ATOM      6  C   UNL     1       0.096  -2.115   1.155  0.00  0.00    +0.004 A 
ATOM      7  C   UNL     1       0.089  -0.738   1.152  0.00  0.00    +0.011 A 
ATOM      8  C   UNL     1       0.224  -3.147   2.239  0.00  0.00    +0.136 C 
ATOM      9  C   UNL     1      -0.891  -3.014   3.282  0.00  0.00    +0.122 C 
ATOM     10  C   UNL     1      -0.240  -2.229   4.455  0.00  0.00    +0.107 C 
ATOM     11  C   UNL     1       1.208  -1.959   3.995  0.00  0.00    +0.072 C 
ATOM     12  N   UNL     1       1.491  -2.998   2.979  0.00  0.00    -0.295 NA
ATOM     13  C   UNL     1      -1.018  -0.932   4.481  0.00  0.00    +0.227 C 
ATOM     14  O   UNL     1      -0.835  -0.021   5.258  0.00  0.00    -0.275 OA
ATOM     15  N   UNL     1      -1.941  -0.948   3.512  0.00  0.00    -0.237 N 
ATOM     16  C   UNL     1      -1.964  -2.079   2.771  0.00  0.00    +0.229 C 
ATOM     17  O   UNL     1      -2.713  -2.312   1.847  0.00  0.00    -0.275 OA
ATOM     18  C   UNL     1       0.156  -4.471   1.529  0.00  0.00    +0.243 C 
ATOM     19  O   UNL     1       0.222  -5.570   2.038  0.00  0.00    -0.273 OA
ATOM     20  N   UNL     1       0.008  -4.200   0.218  0.00  0.00    -0.283 N 
ATOM     21  H   UNL     1       1.753  -3.864   3.426  0.00  0.00    +0.124 HD
ATOM     22  H   UNL     1      -0.064  -4.879  -0.471  0.00  0.00    +0.155 HD
ENDROOT
BRANCH  11  23
ATOM     23  C   UNL     1       2.172  -2.067   5.178  0.00  0.00    +0.054 C 
BRANCH  23  24
ATOM     24  C   UNL     1       3.559  -1.681   4.732  0.00  0.00    -0.046 A 
ATOM     25  C   UNL     1       4.418  -2.643   4.235  0.00  0.00    +0.007 A 
ATOM     26  C   UNL     1       5.689  -2.292   3.827  0.00  0.00    +0.045 A 
ATOM     27  C   UNL     1       6.105  -0.971   3.916  0.00  0.00    +0.117 A 
ATOM     28  C   UNL     1       5.241  -0.007   4.415  0.00  0.00    +0.045 A 
ATOM     29  C   UNL     1       3.969  -0.363   4.817  0.00  0.00    +0.007 A 
BRANCH  27  30
ATOM     30  O   UNL     1       7.356  -0.623   3.515  0.00  0.00    -0.507 OA
ATOM     31  H   UNL     1       7.415  -0.371   2.583  0.00  0.00    +0.292 HD
ENDBRANCH  27  30
ENDBRANCH  23  24
ENDBRANCH  11  23
BRANCH  15  32
ATOM     32  C   UNL     1      -2.860   0.168   3.274  0.00  0.00    +0.151 C 
BRANCH  32  33
ATOM     33  C   UNL     1      -4.068   0.022   4.163  0.00  0.00    -0.026 A 
ATOM     34  C   UNL     1      -5.125  -0.776   3.765  0.00  0.00    +0.009 A 
ATOM     35  C   UNL     1      -6.235  -0.913   4.577  0.00  0.00    +0.050 A 
ATOM     36  C   UNL     1      -6.291  -0.252   5.793  0.00  0.00    +0.166 A 
ATOM     37  C   UNL     1      -5.226   0.551   6.194  0.00  0.00    +0.167 A 
ATOM     38  C   UNL     1      -4.114   0.680   5.378  0.00  0.00    +0.054 A 
ATOM     39  O   UNL     1      -5.520   1.088   7.415  0.00  0.00    -0.453 OA
ATOM     40  C   UNL     1      -6.943   0.932   7.570  0.00  0.00    +0.466 C 
ATOM     41  O   UNL     1      -7.252  -0.219   6.762  0.00  0.00    -0.453 OA
ENDBRANCH  32  33
ENDBRANCH  15  32
TORSDOF 5
