REMARK  Name = ZINC04993053
REMARK  9 active torsions:
REMARK  status: ('A' for Active; 'I' for Inactive)
REMARK    1  A    between atoms: C_1  and  C_2
REMARK    2  A    between atoms: C_2  and  N_3
REMARK    3  A    between atoms: N_3  and  C_4
REMARK    4  A    between atoms: N_3  and  C_6
REMARK    5  A    between atoms: C_4  and  C_5
REMARK    6  A    between atoms: C_9  and  C_12
REMARK    7  A    between atoms: C_15  and  C_26
REMARK    8  A    between atoms: C_21  and  N_25
REMARK    9  A    between atoms: C_22  and  C_23
REMARK                            x       y       z     vdW  Elec       q    Type
REMARK                         _______ _______ _______ _____ _____    ______ ____
ROOT
ATOM      1  C   UNL     1      -1.273  -6.168   0.986  0.00  0.00    +0.101 C 
ATOM      2  C   UNL     1      -2.684  -6.697   1.008  0.00  0.00    +0.049 A 
ATOM      3  C   UNL     1      -3.546  -6.882  -0.003  0.00  0.00    +0.041 A 
ATOM      4  N   UNL     1      -4.692  -7.377   0.519  0.00  0.00    -0.278 N 
ATOM      5  N   UNL     1      -4.521  -7.500   1.907  0.00  0.00    -0.135 NA
ATOM      6  H   UNL     1      -5.492  -7.607   0.021  0.00  0.00    +0.189 HD
ATOM      7  C   UNL     1      -3.320  -7.096   2.205  0.00  0.00    +0.245 A 
ATOM      8  O   UNL     1      -2.695  -7.029   3.411  0.00  0.00    -0.421 OA
ATOM      9  C   UNL     1      -1.362  -6.827   3.409  0.00  0.00    +0.201 C 
ATOM     10  C   UNL     1      -0.648  -6.435   2.332  0.00  0.00    +0.098 C 
ATOM     11  C   UNL     1      -3.285  -6.590  -1.458  0.00  0.00    +0.065 C 
ENDROOT
BRANCH   1  15
ATOM     12  C   UNL     1      -1.323  -1.965   0.226  0.00  0.00    +0.013 A 
ATOM     13  C   UNL     1      -0.653  -2.814  -0.634  0.00  0.00    +0.022 A 
ATOM     14  C   UNL     1      -0.637  -4.175  -0.388  0.00  0.00    +0.006 A 
ATOM     15  C   UNL     1      -1.290  -4.685   0.718  0.00  0.00    -0.034 A 
ATOM     16  C   UNL     1      -1.959  -3.835   1.579  0.00  0.00    +0.006 A 
ATOM     17  C   UNL     1      -1.972  -2.475   1.335  0.00  0.00    +0.022 A 
BRANCH  12  18
ATOM     18  N   UNL     1      -1.340  -0.589  -0.022  0.00  0.00    -0.394 NA
ATOM     19  H   UNL     1      -1.866  -0.123   0.702  0.00  0.00    +0.126 HD
BRANCH  18  21
ATOM     20  C   UNL     1       0.642  -0.208   1.365  0.00  0.00    +0.022 C 
ATOM     21  C   UNL     1       0.037  -0.077  -0.034  0.00  0.00    +0.081 C 
ENDBRANCH  18  21
BRANCH  18  22
ATOM     22  C   UNL     1      -1.968  -0.335  -1.325  0.00  0.00    +0.081 C 
ATOM     23  C   UNL     1      -3.440  -0.751  -1.272  0.00  0.00    +0.022 C 
ENDBRANCH  18  22
ENDBRANCH  12  18
ENDBRANCH   1  15
BRANCH   9  24
ATOM     24  N   UNL     1      -0.683  -7.036   4.583  0.00  0.00    -0.328 N 
ATOM     25  H   UNL     1      -1.163  -7.318   5.378  0.00  0.00    +0.145 HD
ATOM     26  H   UNL     1       0.277  -6.901   4.619  0.00  0.00    +0.145 HD
ENDBRANCH   9  24
BRANCH  10  27
ATOM     27  C   UNL     1       0.766  -6.266   2.474  0.00  0.00    +0.101 C 
ATOM     28  N   UNL     1       1.889  -6.132   2.586  0.00  0.00    -0.191 NA
ENDBRANCH  10  27
TORSDOF 6
