REMARK  Name = ZINC12403511
REMARK  12 active torsions:
REMARK  status: ('A' for Active; 'I' for Inactive)
REMARK    1  A    between atoms: C_1  and  C_2
REMARK    2  A    between atoms: C_2  and  C_4
REMARK    3  A    between atoms: C_2  and  O_23
REMARK    4  A    between atoms: N_6  and  N_7
REMARK    5  A    between atoms: C_8  and  C_10
REMARK    6  A    between atoms: C_10  and  O_11
REMARK    7  A    between atoms: O_11  and  C_12
REMARK    8  A    between atoms: C_15  and  C_19
REMARK    9  A    between atoms: C_19  and  C_20
REMARK   10  A    between atoms: C_19  and  C_21
REMARK   11  A    between atoms: C_19  and  C_22
REMARK   12  A    between atoms: O_23  and  C_24
REMARK                            x       y       z     vdW  Elec       q    Type
REMARK                         _______ _______ _______ _____ _____    ______ ____
ROOT
ATOM      1  N   UNL     1       1.155   1.713   0.515  0.00  0.00    -0.231 N 
ATOM      2  C   UNL     1       2.342   1.074   0.539  0.00  0.00    +0.267 C 
ATOM      3  O   UNL     1       2.388  -0.125   0.364  0.00  0.00    -0.271 OA
ATOM      4  H   UNL     1       1.118   2.672   0.655  0.00  0.00    +0.173 HD
ENDROOT
BRANCH   1   7
ATOM      5  C   UNL     1      -1.210   1.631   0.260  0.00  0.00    +0.270 C 
ATOM      6  O   UNL     1      -1.257   2.830   0.435  0.00  0.00    -0.270 OA
ATOM      7  N   UNL     1      -0.024   0.992   0.289  0.00  0.00    -0.231 N 
ATOM      8  H   UNL     1       0.013   0.032   0.150  0.00  0.00    +0.173 HD
BRANCH   5  10
ATOM      9  C   UNL     1      -2.720  -0.114   1.169  0.00  0.00    +0.062 C 
ATOM     10  C   UNL     1      -2.478   0.856   0.011  0.00  0.00    +0.257 C 
BRANCH  10  11
ATOM     11  O   UNL     1      -3.579   1.763  -0.089  0.00  0.00    -0.478 OA
BRANCH  11  12
ATOM     12  C   UNL     1      -4.660   1.345  -0.800  0.00  0.00    +0.140 A 
ATOM     13  C   UNL     1      -4.708   0.050  -1.294  0.00  0.00    +0.048 A 
ATOM     14  C   UNL     1      -5.809  -0.373  -2.013  0.00  0.00    +0.023 A 
ATOM     15  C   UNL     1      -6.859   0.496  -2.249  0.00  0.00    +0.043 A 
ATOM     16  C   UNL     1      -6.812   1.790  -1.761  0.00  0.00    +0.043 A 
ATOM     17  C   UNL     1      -5.714   2.217  -1.038  0.00  0.00    +0.084 A 
ATOM     18 CL   UNL     1      -5.654   3.840  -0.426  0.00  0.00    -0.080 Cl
ATOM     19 CL   UNL     1      -8.239  -0.037  -3.157  0.00  0.00    -0.083 Cl
ENDBRANCH  11  12
ENDBRANCH  10  11
ENDBRANCH   5  10
ENDBRANCH   1   7
BRANCH   2  20
ATOM     20  C   UNL     1       3.611   1.850   0.782  0.00  0.00    +0.326 C 
BRANCH  20  21
ATOM     21  O   UNL     1       4.726   0.957   0.761  0.00  0.00    -0.482 OA
BRANCH  21  22
ATOM     22  C   UNL     1       5.955   1.500   0.965  0.00  0.00    +0.135 A 
ATOM     23  C   UNL     1       6.085   2.864   1.182  0.00  0.00    +0.047 A 
ATOM     24  C   UNL     1       7.335   3.414   1.390  0.00  0.00    +0.008 A 
ATOM     25  C   UNL     1       8.457   2.606   1.383  0.00  0.00    -0.041 A 
ATOM     26  C   UNL     1       8.332   1.247   1.168  0.00  0.00    +0.023 A 
ATOM     27  C   UNL     1       7.082   0.691   0.963  0.00  0.00    +0.060 A 
ATOM     28 BR   UNL     1       6.910  -1.170   0.675  0.00  0.00    -0.047 Br
BRANCH  25  29
ATOM     29  C   UNL     1       9.819   3.209   1.611  0.00  0.00    -0.013 C 
ATOM     30  C   UNL     1       9.856   3.882   2.985  0.00  0.00    +0.015 C 
ATOM     31  C   UNL     1      10.880   2.108   1.554  0.00  0.00    +0.015 C 
ATOM     32  C   UNL     1      10.105   4.250   0.526  0.00  0.00    +0.015 C 
ENDBRANCH  25  29
ENDBRANCH  21  22
ENDBRANCH  20  21
ENDBRANCH   2  20
TORSDOF 8
