REMARK  Name = ZINC60156543
REMARK  9 active torsions:
REMARK  status: ('A' for Active; 'I' for Inactive)
REMARK    1  A    between atoms: C_1  and  C_2
REMARK    2  A    between atoms: N_5  and  C_8
REMARK    3  A    between atoms: C_8  and  C_10
REMARK    4  A    between atoms: C_8  and  C_11
REMARK    5  A    between atoms: C_11  and  N_12
REMARK    6  A    between atoms: C_13  and  C_15
REMARK    7  A    between atoms: C_20  and  N_21
REMARK    8  A    between atoms: N_21  and  S_22
REMARK    9  A    between atoms: S_22  and  C_25
REMARK                            x       y       z     vdW  Elec       q    Type
REMARK                         _______ _______ _______ _____ _____    ______ ____
ROOT
ATOM      1  C   UNL     1       1.558  -3.333  -4.743  0.00  0.00    +0.059 A 
ATOM      2  C   UNL     1       0.668  -2.306  -4.417  0.00  0.00    +0.015 A 
ATOM      3  C   UNL     1      -0.011  -1.642  -5.415  0.00  0.00    +0.001 A 
ATOM      4  C   UNL     1       0.184  -1.987  -6.743  0.00  0.00    +0.002 A 
ATOM      5  C   UNL     1       1.059  -2.998  -7.082  0.00  0.00    +0.025 A 
ATOM      6  C   UNL     1       1.757  -3.675  -6.089  0.00  0.00    +0.060 A 
ENDROOT
BRANCH   1   8
ATOM      7  N   UNL     1       2.092  -3.716  -2.388  0.00  0.00    -0.313 N 
ATOM      8  C   UNL     1       2.287  -4.048  -3.680  0.00  0.00    +0.246 C 
ATOM      9  O   UNL     1       3.064  -4.938  -3.968  0.00  0.00    -0.270 OA
ATOM     10  H   UNL     1       1.472  -3.006  -2.158  0.00  0.00    +0.149 HD
BRANCH   7  11
ATOM     11  C   UNL     1       2.817  -4.426  -1.332  0.00  0.00    +0.089 C 
BRANCH  11  12
ATOM     12  C   UNL     1       2.330  -3.941   0.035  0.00  0.00    -0.054 C 
ATOM     13  C   UNL     1       3.097  -4.673   1.139  0.00  0.00    -0.012 C 
BRANCH  12  18
ATOM     14  C   UNL     1       3.817   1.376   1.466  0.00  0.00    +0.007 C 
ATOM     15  C   UNL     1       3.644  -0.144   1.457  0.00  0.00    -0.018 C 
ATOM     16  C   UNL     1       2.153  -0.490   1.500  0.00  0.00    -0.016 C 
ATOM     17  C   UNL     1       1.984  -2.008   1.410  0.00  0.00    -0.078 C 
ATOM     18  N   UNL     1       2.564  -2.495   0.153  0.00  0.00    +0.382 N 
ATOM     19  C   UNL     1       4.008  -2.231   0.136  0.00  0.00    -0.078 C 
ATOM     20  C   UNL     1       4.255  -0.722   0.177  0.00  0.00    -0.016 C 
ATOM     21  H   UNL     1       2.127  -2.022  -0.623  0.00  0.00    -0.081 HD
ENDBRANCH  12  18
ENDBRANCH  11  12
ENDBRANCH   7  11
ENDBRANCH   1   8
BRANCH   6  22
ATOM     22  N   UNL     1       2.643  -4.690  -6.428  0.00  0.00    -0.216 N 
ATOM     23  H   UNL     1       2.730  -5.468  -5.855  0.00  0.00    +0.174 HD
BRANCH  22  24
ATOM     24  S   UNL     1       3.550  -4.572  -7.808  0.00  0.00    +0.072 S 
ATOM     25  O   UNL     1       4.433  -5.685  -7.811  0.00  0.00    -0.150 OA
ATOM     26  O   UNL     1       2.641  -4.317  -8.870  0.00  0.00    -0.150 OA
BRANCH  24  27
ATOM     27  C   UNL     1       4.554  -3.133  -7.650  0.00  0.00    +0.109 A 
ATOM     28  C   UNL     1       4.084  -1.910  -8.092  0.00  0.00    +0.031 A 
ATOM     29  C   UNL     1       4.871  -0.781  -7.968  0.00  0.00    +0.040 A 
ATOM     30  C   UNL     1       6.130  -0.874  -7.400  0.00  0.00    +0.124 A 
ATOM     31  C   UNL     1       6.600  -2.099  -6.958  0.00  0.00    +0.040 A 
ATOM     32  C   UNL     1       5.809  -3.226  -7.078  0.00  0.00    +0.031 A 
ATOM     33  F   UNL     1       6.901   0.229  -7.279  0.00  0.00    -0.205 F 
ENDBRANCH  24  27
ENDBRANCH  22  24
ENDBRANCH   6  22
TORSDOF 7
