REMARK  Name = ZINC34256973
REMARK  4 active torsions:
REMARK  status: ('A' for Active; 'I' for Inactive)
REMARK    1  A    between atoms: C_8  and  N_25
REMARK    2  A    between atoms: C_9  and  C_12
REMARK    3  A    between atoms: N_16  and  C_20
REMARK    4  A    between atoms: C_28  and  C_31
REMARK                            x       y       z     vdW  Elec       q    Type
REMARK                         _______ _______ _______ _____ _____    ______ ____
ROOT
ATOM      1  C   UNL     1       0.077   1.406   0.565  0.00  0.00    +0.005 A 
ATOM      2  C   UNL     1       1.236   2.111   0.213  0.00  0.00    +0.018 A 
ATOM      3  C   UNL     1       2.367   1.442  -0.105  0.00  0.00    +0.096 A 
ATOM      4  N   UNL     1       2.400   0.080  -0.087  0.00  0.00    -0.268 N 
ATOM      5  C   UNL     1       1.286  -0.636   0.253  0.00  0.00    +0.142 A 
ATOM      6  C   UNL     1       0.100   0.043   0.586  0.00  0.00    +0.047 A 
ATOM      7  N   UNL     1       1.299  -1.969   0.277  0.00  0.00    -0.214 NA
ATOM      8  C   UNL     1       2.388  -2.659  -0.028  0.00  0.00    +0.136 A 
ATOM      9  C   UNL     1       3.571  -1.972  -0.388  0.00  0.00    +0.081 A 
ATOM     10  C   UNL     1       3.546  -0.558  -0.410  0.00  0.00    +0.267 A 
ATOM     11  O   UNL     1       4.543   0.075  -0.714  0.00  0.00    -0.267 OA
ENDROOT
BRANCH   9  12
ATOM     12  C   UNL     1       4.750  -2.682  -0.719  0.00  0.00    +0.037 C 
ATOM     13  C   UNL     1       5.853  -2.581   0.078  0.00  0.00    +0.077 C 
ATOM     14  C   UNL     1       6.005  -1.933   1.337  0.00  0.00    +0.259 C 
ATOM     15  O   UNL     1       5.069  -1.357   1.862  0.00  0.00    -0.269 OA
ATOM     16  N   UNL     1       7.190  -1.975   1.920  0.00  0.00    -0.252 N 
ATOM     17  C   UNL     1       8.229  -2.614   1.338  0.00  0.00    +0.121 C 
ATOM     18  S   UNL     1       9.834  -2.794   1.905  0.00  0.00    -0.027 S 
ATOM     19  S   UNL     1       7.499  -3.232  -0.171  0.00  0.00    -0.061 S 
BRANCH  16  20
ATOM     20  C   UNL     1       7.381  -1.318   3.216  0.00  0.00    +0.083 C 
ATOM     21  C   UNL     1       8.518  -0.280   3.119  0.00  0.00    +0.023 C 
ATOM     22  C   UNL     1       9.244  -0.383   4.484  0.00  0.00    +0.002 C 
ATOM     23  C   UNL     1       9.204  -1.903   4.778  0.00  0.00    +0.002 C 
ATOM     24  C   UNL     1       7.817  -2.350   4.270  0.00  0.00    +0.023 C 
ENDBRANCH  16  20
ENDBRANCH   9  12
BRANCH   8  25
ATOM     25  N   UNL     1       2.369  -4.037   0.007  0.00  0.00    -0.314 N 
ATOM     26  C   UNL     1       3.509  -4.788   0.550  0.00  0.00    +0.107 C 
ATOM     27  C   UNL     1       2.998  -5.746   1.631  0.00  0.00    +0.031 C 
ATOM     28  C   UNL     1       1.888  -6.623   1.047  0.00  0.00    +0.078 C 
ATOM     29  C   UNL     1       0.723  -5.740   0.594  0.00  0.00    +0.031 C 
ATOM     30  C   UNL     1       1.206  -4.782  -0.493  0.00  0.00    +0.107 C 
BRANCH  28  31
ATOM     31  C   UNL     1       1.406  -7.590   2.098  0.00  0.00    +0.214 C 
ATOM     32  O   UNL     1       1.902  -7.578   3.205  0.00  0.00    -0.276 OA
ATOM     33  N   UNL     1       0.425  -8.467   1.808  0.00  0.00    -0.329 N 
ATOM     34  H   UNL     1       0.029  -8.476   0.922  0.00  0.00    +0.145 HD
ATOM     35  H   UNL     1       0.115  -9.089   2.484  0.00  0.00    +0.145 HD
ENDBRANCH  28  31
ENDBRANCH   8  25
TORSDOF 4
