REMARK  Name = ZINC38596442
REMARK  14 active torsions:
REMARK  status: ('A' for Active; 'I' for Inactive)
REMARK    1  A    between atoms: C_1  and  C_2
REMARK    2  A    between atoms: C_2  and  C_3
REMARK    3  A    between atoms: C_3  and  O_4
REMARK    4  A    between atoms: O_4  and  C_5
REMARK    5  A    between atoms: C_8  and  S_12
REMARK    6  A    between atoms: C_10  and  C_11
REMARK    7  A    between atoms: S_12  and  N_15
REMARK    8  A    between atoms: N_15  and  C_16
REMARK    9  A    between atoms: C_16  and  C_18
REMARK   10  A    between atoms: C_16  and  C_19
REMARK   11  A    between atoms: C_19  and  C_21
REMARK   12  A    between atoms: C_19  and  N_26
REMARK   13  A    between atoms: N_29  and  C_32
REMARK   14  A    between atoms: C_32  and  C_33
REMARK                            x       y       z     vdW  Elec       q    Type
REMARK                         _______ _______ _______ _____ _____    ______ ____
ROOT
ATOM      1  C   UNL     1      -0.051  -5.227   7.364  0.00  0.00    +0.112 C 
ENDROOT
BRANCH   1   2
ATOM      2  N   UNL     1      -1.197  -6.138   7.235  0.00  0.00    -0.297 NA
ATOM      3  C   UNL     1      -1.522  -6.378   5.822  0.00  0.00    +0.066 C 
ATOM      4  C   UNL     1      -2.679  -7.376   5.731  0.00  0.00    -0.063 C 
ATOM      5  N   UNL     1      -3.849  -6.835   6.435  0.00  0.00    +0.384 N 
ATOM      6  C   UNL     1      -3.516  -6.624   7.850  0.00  0.00    -0.063 C 
ATOM      7  C   UNL     1      -2.366  -5.620   7.959  0.00  0.00    +0.066 C 
ATOM      8  H   UNL     1      -4.116  -5.956   6.018  0.00  0.00    -0.081 HD
BRANCH   5   9
ATOM      9  C   UNL     1      -4.965  -7.785   6.332  0.00  0.00    -0.043 C 
BRANCH   9  10
ATOM     10  C   UNL     1      -6.199  -7.179   6.947  0.00  0.00    -0.064 A 
ATOM     11  C   UNL     1      -6.463  -7.363   8.292  0.00  0.00    +0.002 A 
ATOM     12  C   UNL     1      -7.596  -6.807   8.857  0.00  0.00    +0.000 A 
ATOM     13  C   UNL     1      -8.464  -6.066   8.077  0.00  0.00    +0.000 A 
ATOM     14  C   UNL     1      -8.200  -5.881   6.733  0.00  0.00    +0.000 A 
ATOM     15  C   UNL     1      -7.065  -6.433   6.169  0.00  0.00    +0.002 A 
ENDBRANCH   9  10
ENDBRANCH   5   9
ENDBRANCH   1   2
BRANCH   1  16
ATOM     16  C   UNL     1      -0.450  -3.850   6.899  0.00  0.00    +0.008 A 
ATOM     17  C   UNL     1      -0.263  -2.655   7.511  0.00  0.00    +0.013 A 
ATOM     18  C   UNL     1      -0.716  -1.506   6.890  0.00  0.00    +0.008 A 
ATOM     19  C   UNL     1      -1.334  -1.609   5.688  0.00  0.00    +0.045 A 
ATOM     20  S   UNL     1      -1.283  -3.369   5.395  0.00  0.00    -0.100 S 
ENDBRANCH   1  16
BRANCH   1  21
ATOM     21  C   UNL     1       1.107  -5.740   6.506  0.00  0.00    +0.095 C 
ATOM     22  C   UNL     1       1.512  -7.138   6.979  0.00  0.00    +0.027 C 
BRANCH  21  23
ATOM     23  N   UNL     1       2.249  -4.832   6.635  0.00  0.00    -0.185 NA
ATOM     24  H   UNL     1       2.427  -4.393   7.482  0.00  0.00    +0.148 HD
BRANCH  23  25
ATOM     25  S   UNL     1       3.237  -4.554   5.335  0.00  0.00    +0.059 S 
ATOM     26  O   UNL     1       3.575  -5.828   4.803  0.00  0.00    -0.153 OA
ATOM     27  O   UNL     1       4.220  -3.622   5.764  0.00  0.00    -0.153 OA
BRANCH  25  31
ATOM     28  C   UNL     1       0.749  -2.454   2.188  0.00  0.00    +0.123 A 
ATOM     29  C   UNL     1       1.442  -1.713   3.134  0.00  0.00    +0.048 A 
ATOM     30  C   UNL     1       2.200  -2.356   4.093  0.00  0.00    +0.032 A 
ATOM     31  C   UNL     1       2.269  -3.737   4.111  0.00  0.00    +0.106 A 
ATOM     32  C   UNL     1       1.580  -4.478   3.168  0.00  0.00    +0.035 A 
ATOM     33  C   UNL     1       0.816  -3.839   2.210  0.00  0.00    -0.007 A 
ATOM     34  C   UNL     1       0.060  -4.647   1.187  0.00  0.00    +0.047 C 
BRANCH  28  35
ATOM     35  O   UNL     1       0.003  -1.824   1.243  0.00  0.00    -0.492 OA
BRANCH  35  36
ATOM     36  C   UNL     1      -0.019  -0.395   1.280  0.00  0.00    +0.229 C 
BRANCH  36  38
ATOM     37  C   UNL     1      -0.929   1.660   0.189  0.00  0.00    +0.007 C 
ATOM     38  C   UNL     1      -0.906   0.131   0.150  0.00  0.00    +0.038 C 
ENDBRANCH  36  38
ENDBRANCH  35  36
ENDBRANCH  28  35
ENDBRANCH  25  31
ENDBRANCH  23  25
ENDBRANCH  21  23
ENDBRANCH   1  21
TORSDOF 11
