REMARK  Name = ZINC08977677
REMARK  4 active torsions:
REMARK  status: ('A' for Active; 'I' for Inactive)
REMARK    1  A    between atoms: C_6  and  C_7
REMARK    2  A    between atoms: C_13  and  C_15
REMARK    3  A    between atoms: N_20  and  S_21
REMARK    4  A    between atoms: S_21  and  C_24
REMARK                            x       y       z     vdW  Elec       q    Type
REMARK                         _______ _______ _______ _____ _____    ______ ____
ROOT
ATOM      1  C   UNL     1       2.841   0.697   2.983  0.00  0.00    +0.250 A 
ATOM      2  N   UNL     1       2.775  -0.219   2.047  0.00  0.00    -0.106 NA
ATOM      3  N   UNL     1       3.940  -0.381   1.524  0.00  0.00    -0.092 NA
ATOM      4  C   UNL     1       4.795   0.426   2.106  0.00  0.00    +0.314 A 
ATOM      5  O   UNL     1       4.120   1.129   3.035  0.00  0.00    -0.405 OA
ATOM      6  N   UNL     1       6.145   0.538   1.813  0.00  0.00    -0.237 N 
ATOM      7  C   UNL     1       6.691  -0.228   0.848  0.00  0.00    +0.239 C 
ATOM      8  O   UNL     1       6.001  -1.016   0.235  0.00  0.00    -0.274 OA
ATOM      9  H   UNL     1       6.697   1.168   2.302  0.00  0.00    +0.159 HD
ENDROOT
BRANCH   1  15
ATOM     10  C   UNL     1       0.444   0.640   3.653  0.00  0.00    +0.016 A 
ATOM     11  C   UNL     1      -0.599   1.093   4.435  0.00  0.00    +0.039 A 
ATOM     12  C   UNL     1      -0.376   2.069   5.393  0.00  0.00    +0.123 A 
ATOM     13  C   UNL     1       0.891   2.603   5.564  0.00  0.00    +0.039 A 
ATOM     14  C   UNL     1       1.940   2.162   4.784  0.00  0.00    +0.016 A 
ATOM     15  C   UNL     1       1.722   1.175   3.821  0.00  0.00    +0.039 A 
ATOM     16  F   UNL     1      -1.399   2.506   6.159  0.00  0.00    -0.205 F 
ENDBRANCH   1  15
BRANCH   7  17
ATOM     17  C   UNL     1       8.159  -0.106   0.529  0.00  0.00    +0.166 C 
ATOM     18  C   UNL     1       8.366   0.762  -0.737  0.00  0.00    +0.031 C 
ATOM     19  C   UNL     1       9.745   0.258  -1.238  0.00  0.00    +0.019 C 
ATOM     20  C   UNL     1       9.711  -1.246  -0.891  0.00  0.00    +0.110 C 
ATOM     21  N   UNL     1       8.720  -1.424   0.182  0.00  0.00    -0.165 NA
BRANCH  21  22
ATOM     22  S   UNL     1       8.304  -2.865   0.884  0.00  0.00    +0.062 S 
ATOM     23  O   UNL     1       7.074  -2.647   1.562  0.00  0.00    -0.153 OA
ATOM     24  O   UNL     1       8.454  -3.863  -0.117  0.00  0.00    -0.153 OA
BRANCH  22  25
ATOM     25  C   UNL     1       9.508  -3.209   2.123  0.00  0.00    +0.106 A 
ATOM     26  C   UNL     1      10.587  -4.024   1.831  0.00  0.00    +0.030 A 
ATOM     27  C   UNL     1      11.535  -4.289   2.800  0.00  0.00    +0.022 A 
ATOM     28  C   UNL     1      11.399  -3.749   4.067  0.00  0.00    +0.041 A 
ATOM     29  C   UNL     1      10.317  -2.939   4.360  0.00  0.00    +0.022 A 
ATOM     30  C   UNL     1       9.372  -2.669   3.388  0.00  0.00    +0.030 A 
ATOM     31 CL   UNL     1      12.586  -4.088   5.287  0.00  0.00    -0.084 Cl
ENDBRANCH  22  25
ENDBRANCH  21  22
ENDBRANCH   7  17
TORSDOF 4
