REMARK  Name = ZINC67401213
REMARK  8 active torsions:
REMARK  status: ('A' for Active; 'I' for Inactive)
REMARK    1  A    between atoms: C_1  and  C_2
REMARK    2  A    between atoms: C_2  and  C_4
REMARK    3  A    between atoms: C_2  and  N_14
REMARK    4  A    between atoms: N_10  and  C_11
REMARK    5  A    between atoms: N_10  and  C_12
REMARK    6  A    between atoms: C_17  and  C_20
REMARK    7  A    between atoms: C_20  and  C_22
REMARK    8  A    between atoms: C_20  and  O_29
REMARK                            x       y       z     vdW  Elec       q    Type
REMARK                         _______ _______ _______ _____ _____    ______ ____
ROOT
ATOM      1  N   UNL     1      -1.376  -0.512   0.012  0.00  0.00    +0.386 N 
ATOM      2  C   UNL     1      -1.355  -1.980   0.013  0.00  0.00    -0.077 C 
ATOM      3  C   UNL     1      -2.785  -2.515   0.106  0.00  0.00    -0.012 C 
ATOM      4  C   UNL     1      -3.590  -2.015  -1.097  0.00  0.00    +0.019 C 
ATOM      5  C   UNL     1      -3.543  -0.485  -1.130  0.00  0.00    -0.012 C 
ATOM      6  C   UNL     1      -2.085  -0.025  -1.177  0.00  0.00    -0.077 C 
ATOM      7  H   UNL     1      -1.848  -0.185   0.842  0.00  0.00    -0.081 HD
ENDROOT
BRANCH   1   9
ATOM      8  C   UNL     1      -0.019   1.526   0.010  0.00  0.00    -0.005 C 
ATOM      9  C   UNL     1       0.002  -0.004   0.002  0.00  0.00    -0.002 C 
BRANCH   9  10
ATOM     10  C   UNL     1       0.731  -0.503   1.223  0.00  0.00    +0.123 A 
ATOM     11  N   UNL     1       0.141  -0.463   2.405  0.00  0.00    -0.201 NA
ATOM     12  C   UNL     1       0.781  -0.903   3.486  0.00  0.00    +0.217 A 
ATOM     13  N   UNL     1       2.015  -1.384   3.375  0.00  0.00    -0.181 NA
ATOM     14  C   UNL     1       2.605  -1.423   2.185  0.00  0.00    +0.222 A 
ATOM     15  N   UNL     1       1.956  -0.985   1.108  0.00  0.00    -0.201 NA
ATOM     16  N   UNL     1       3.886  -1.921   2.064  0.00  0.00    -0.306 N 
ATOM     17  C   UNL     1       4.597  -2.407   3.249  0.00  0.00    +0.132 C 
ATOM     18  C   UNL     1       4.535  -1.963   0.752  0.00  0.00    +0.132 C 
ATOM     19  N   UNL     1       0.165  -0.860   4.719  0.00  0.00    -0.327 N 
ATOM     20  H   UNL     1      -0.736  -0.509   4.800  0.00  0.00    +0.145 HD
ATOM     21  H   UNL     1       0.632  -1.181   5.506  0.00  0.00    +0.145 HD
ENDBRANCH   9  10
ENDBRANCH   1   9
BRANCH   4  22
ATOM     22  C   UNL     1      -5.042  -2.481  -0.970  0.00  0.00    +0.147 C 
BRANCH  22  23
ATOM     23  C   UNL     1      -5.804  -2.095  -2.212  0.00  0.00    -0.019 A 
ATOM     24  C   UNL     1      -6.262  -0.800  -2.367  0.00  0.00    +0.007 A 
ATOM     25  C   UNL     1      -6.961  -0.445  -3.505  0.00  0.00    +0.020 A 
ATOM     26  C   UNL     1      -7.201  -1.386  -4.491  0.00  0.00    +0.041 A 
ATOM     27  C   UNL     1      -6.742  -2.682  -4.335  0.00  0.00    +0.020 A 
ATOM     28  C   UNL     1      -6.038  -3.034  -3.199  0.00  0.00    +0.007 A 
ATOM     29 CL   UNL     1      -8.079  -0.941  -5.921  0.00  0.00    -0.084 Cl
ENDBRANCH  22  23
BRANCH  22  30
ATOM     30  O   UNL     1      -5.643  -1.861   0.169  0.00  0.00    -0.387 OA
ATOM     31  H   UNL     1      -5.655  -0.895   0.130  0.00  0.00    +0.210 HD
ENDBRANCH  22  30
ENDBRANCH   4  22
TORSDOF 5
