REMARK  Name = ZINC08738314
REMARK  3 active torsions:
REMARK  status: ('A' for Active; 'I' for Inactive)
REMARK    1  A    between atoms: C_3  and  C_6
REMARK    2  A    between atoms: C_11  and  C_17
REMARK    3  A    between atoms: N_19  and  C_20
REMARK                            x       y       z     vdW  Elec       q    Type
REMARK                         _______ _______ _______ _____ _____    ______ ____
ROOT
ATOM      1  C   UNL     1       3.599   0.624  -0.039  0.00  0.00    +0.068 C 
ATOM      2  C   UNL     1       4.105  -0.114   1.202  0.00  0.00    +0.065 C 
ATOM      3  C   UNL     1       5.610  -0.221   1.145  0.00  0.00    +0.042 C 
ATOM      4  C   UNL     1       6.273  -0.233  -0.086  0.00  0.00    +0.026 C 
ATOM      5  C   UNL     1       7.782  -0.274  -0.136  0.00  0.00    +0.119 C 
ATOM      6  C   UNL     1       8.319  -1.007   1.093  0.00  0.00    +0.115 C 
ATOM      7  C   UNL     1       7.589  -0.524   2.319  0.00  0.00    +0.237 C 
ATOM      8  N   UNL     1       6.284  -0.291   2.278  0.00  0.00    -0.185 NA
ATOM      9  O   UNL     1       8.200  -0.347   3.354  0.00  0.00    -0.274 OA
ATOM     10  C   UNL     1       5.589  -0.198  -1.255  0.00  0.00    +0.162 C 
ATOM     11  O   UNL     1       6.269  -0.229  -2.416  0.00  0.00    -0.292 OA
ATOM     12  C   UNL     1       4.087  -0.120  -1.286  0.00  0.00    +0.091 C 
ENDROOT
BRANCH   1  15
ATOM     13  C   UNL     1      -0.017   1.339  -0.014  0.00  0.00    +0.041 A 
ATOM     14  C   UNL     1       1.331   1.767  -0.025  0.00  0.00    +0.045 A 
ATOM     15  C   UNL     1       2.092   0.658  -0.028  0.00  0.00    +0.109 A 
ATOM     16  O   UNL     1       1.282  -0.413  -0.020  0.00  0.00    -0.468 OA
ATOM     17  C   UNL     1       0.002  -0.006  -0.012  0.00  0.00    +0.195 A 
ENDBRANCH   1  15
BRANCH   5  18
ATOM     18  C   UNL     1       8.322   1.133  -0.154  0.00  0.00    +0.225 C 
ATOM     19  O   UNL     1       7.559   2.075  -0.130  0.00  0.00    -0.275 OA
ATOM     20  N   UNL     1       9.652   1.344  -0.198  0.00  0.00    -0.285 N 
ATOM     21  H   UNL     1      10.264   0.593  -0.151  0.00  0.00    +0.155 HD
BRANCH  20  22
ATOM     22  C   UNL     1      10.150   2.647  -0.313  0.00  0.00    +0.033 A 
ATOM     23  C   UNL     1      11.300   2.889  -1.054  0.00  0.00    +0.025 A 
ATOM     24  C   UNL     1      11.790   4.176  -1.165  0.00  0.00    +0.022 A 
ATOM     25  C   UNL     1      11.136   5.223  -0.539  0.00  0.00    +0.041 A 
ATOM     26  C   UNL     1       9.991   4.984   0.200  0.00  0.00    +0.022 A 
ATOM     27  C   UNL     1       9.493   3.700   0.309  0.00  0.00    +0.025 A 
ATOM     28 CL   UNL     1      11.755   6.839  -0.681  0.00  0.00    -0.084 Cl
ENDBRANCH  20  22
ENDBRANCH   5  18
TORSDOF 3
