REMARK  Name = ZINC60392159
REMARK  15 active torsions:
REMARK  status: ('A' for Active; 'I' for Inactive)
REMARK    1  A    between atoms: C_1  and  C_2
REMARK    2  A    between atoms: C_2  and  N_3
REMARK    3  A    between atoms: N_3  and  C_4
REMARK    4  A    between atoms: N_3  and  C_6
REMARK    5  A    between atoms: C_4  and  C_5
REMARK    6  A    between atoms: C_6  and  C_7
REMARK    7  A    between atoms: C_7  and  N_8
REMARK    8  A    between atoms: N_17  and  C_18
REMARK    9  A    between atoms: C_18  and  C_20
REMARK   10  A    between atoms: C_25  and  S_26
REMARK   11  A    between atoms: S_26  and  C_27
REMARK   12  A    between atoms: C_27  and  C_28
REMARK   13  A    between atoms: N_30  and  C_31
REMARK   14  A    between atoms: C_31  and  C_32
REMARK   15  A    between atoms: C_31  and  C_33
REMARK                            x       y       z     vdW  Elec       q    Type
REMARK                         _______ _______ _______ _____ _____    ______ ____
ROOT
ATOM      1  N   UNL     1      -1.455  -3.768  -1.652  0.00  0.00    -0.314 N 
ATOM      2  C   UNL     1      -1.585  -4.452  -2.857  0.00  0.00    +0.068 A 
ATOM      3  C   UNL     1      -1.515  -4.054  -4.184  0.00  0.00    +0.028 A 
ATOM      4  C   UNL     1      -1.689  -4.982  -5.191  0.00  0.00    +0.002 A 
ATOM      5  C   UNL     1      -1.934  -6.309  -4.882  0.00  0.00    +0.002 A 
ATOM      6  C   UNL     1      -2.006  -6.716  -3.565  0.00  0.00    +0.028 A 
ATOM      7  C   UNL     1      -1.832  -5.791  -2.545  0.00  0.00    +0.066 A 
ATOM      8  N   UNL     1      -1.847  -5.894  -1.158  0.00  0.00    -0.326 N 
ATOM      9  C   UNL     1      -1.611  -4.659  -0.636  0.00  0.00    +0.201 A 
ATOM     10  N   UNL     1      -1.547  -4.370   0.657  0.00  0.00    -0.142 NA
ATOM     11  H   UNL     1      -1.996  -6.706  -0.650  0.00  0.00    +0.169 HD
ENDROOT
BRANCH  10  12
ATOM     12  C   UNL     1      -1.597  -5.352   1.566  0.00  0.00    +0.271 C 
ATOM     13  O   UNL     1      -1.608  -6.517   1.205  0.00  0.00    -0.268 OA
BRANCH  12  14
ATOM     14  C   UNL     1      -1.641  -5.025   3.006  0.00  0.00    +0.052 A 
ATOM     15  C   UNL     1      -1.635  -3.693   3.424  0.00  0.00    +0.014 A 
ATOM     16  C   UNL     1      -1.675  -3.393   4.768  0.00  0.00    +0.001 A 
ATOM     17  C   UNL     1      -1.722  -4.408   5.711  0.00  0.00    +0.001 A 
ATOM     18  C   UNL     1      -1.729  -5.729   5.314  0.00  0.00    +0.015 A 
ATOM     19  C   UNL     1      -1.694  -6.051   3.962  0.00  0.00    +0.020 A 
BRANCH  19  20
ATOM     20  S   UNL     1      -1.709  -7.737   3.451  0.00  0.00    -0.115 S 
BRANCH  20  21
ATOM     21  C   UNL     1      -1.781  -8.666   5.008  0.00  0.00    +0.170 C 
BRANCH  21  22
ATOM     22  C   UNL     1      -1.800 -10.143   4.710  0.00  0.00    +0.223 C 
ATOM     23  O   UNL     1      -1.768 -10.531   3.562  0.00  0.00    -0.275 OA
ATOM     24  N   UNL     1      -1.852 -11.033   5.721  0.00  0.00    -0.312 N 
ATOM     25  H   UNL     1      -1.878 -10.723   6.640  0.00  0.00    +0.149 HD
BRANCH  24  26
ATOM     26  C   UNL     1      -1.871 -12.470   5.432  0.00  0.00    +0.067 C 
ATOM     27  C   UNL     1      -1.317 -13.239   6.633  0.00  0.00    +0.027 C 
ATOM     28  C   UNL     1      -3.308 -12.916   5.159  0.00  0.00    +0.027 C 
ENDBRANCH  24  26
ENDBRANCH  21  22
ENDBRANCH  20  21
ENDBRANCH  19  20
ENDBRANCH  12  14
ENDBRANCH  10  12
BRANCH   1  29
ATOM     29  C   UNL     1      -1.189  -2.335  -1.504  0.00  0.00    +0.106 C 
BRANCH  29  30
ATOM     30  C   UNL     1       0.322  -2.098  -1.463  0.00  0.00    -0.057 C 
BRANCH  30  31
ATOM     31  N   UNL     1       0.589  -0.661  -1.314  0.00  0.00    +0.380 N 
ATOM     32  H   UNL     1       0.121  -0.154  -2.051  0.00  0.00    -0.082 HD
BRANCH  31  34
ATOM     33  C   UNL     1       0.237   1.317   0.087  0.00  0.00    -0.017 C 
ATOM     34  C   UNL     1       0.088  -0.203  -0.011  0.00  0.00    -0.082 C 
ENDBRANCH  31  34
BRANCH  31  35
ATOM     35  C   UNL     1       2.035  -0.420  -1.395  0.00  0.00    -0.082 C 
ATOM     36  C   UNL     1       2.532  -0.764  -2.801  0.00  0.00    -0.017 C 
ENDBRANCH  31  35
ENDBRANCH  30  31
ENDBRANCH  29  30
ENDBRANCH   1  29
TORSDOF 11
