REMARK  Name = ZINC31921961
REMARK  6 active torsions:
REMARK  status: ('A' for Active; 'I' for Inactive)
REMARK    1  A    between atoms: C_1  and  C_2
REMARK    2  A    between atoms: C_9  and  C_15
REMARK    3  A    between atoms: C_10  and  C_11
REMARK    4  A    between atoms: C_11  and  C_12
REMARK    5  A    between atoms: C_12  and  N_14
REMARK    6  A    between atoms: C_19  and  N_21
REMARK                            x       y       z     vdW  Elec       q    Type
REMARK                         _______ _______ _______ _____ _____    ______ ____
ROOT
ATOM      1  C   UNL     1       1.506  11.029   0.489  0.00  0.00    +0.044 C 
ATOM      2  C   UNL     1       0.814   9.738   0.138  0.00  0.00    -0.046 A 
ATOM      3  C   UNL     1      -0.218   9.727  -0.816  0.00  0.00    +0.021 A 
ATOM      4  C   UNL     1      -0.840   8.572  -1.132  0.00  0.00    +0.093 A 
ATOM      5  N   UNL     1      -0.478   7.399  -0.533  0.00  0.00    -0.303 N 
ATOM      6  C   UNL     1       0.526   7.378   0.401  0.00  0.00    +0.139 A 
ATOM      7  C   UNL     1       1.185   8.577   0.742  0.00  0.00    +0.050 A 
ATOM      8  N   UNL     1       0.673   6.132   0.825  0.00  0.00    -0.228 NA
ATOM      9  C   UNL     1      -0.203   5.343   0.183  0.00  0.00    +0.093 A 
ATOM     10  C   UNL     1      -0.933   6.118  -0.667  0.00  0.00    +0.057 A 
ENDROOT
BRANCH   9  11
ATOM     11  C   UNL     1      -0.355   3.879   0.371  0.00  0.00    +0.004 A 
ATOM     12  C   UNL     1      -0.542   3.047  -0.731  0.00  0.00    +0.010 A 
ATOM     13  C   UNL     1      -0.678   1.686  -0.550  0.00  0.00    +0.003 A 
ATOM     14  C   UNL     1      -0.639   1.148   0.723  0.00  0.00    +0.033 A 
ATOM     15  C   UNL     1      -0.453   1.968   1.821  0.00  0.00    +0.127 A 
ATOM     16  C   UNL     1      -0.311   3.331   1.651  0.00  0.00    +0.042 A 
BRANCH  15  17
ATOM     17  N   UNL     1      -0.407   1.384   3.180  0.00  0.00    +0.056 N 
ATOM     18  O   UNL     1      -0.533   0.182   3.331  0.00  0.00    -0.126 OA
ATOM     19  O   UNL     1      -0.244   2.106   4.148  0.00  0.00    -0.126 OA
ENDBRANCH  15  17
ENDBRANCH   9  11
BRANCH  10  20
ATOM     20  C   UNL     1      -2.035   5.650  -1.583  0.00  0.00    +0.114 C 
BRANCH  20  21
ATOM     21  C   UNL     1      -1.472   5.394  -2.957  0.00  0.00    +0.052 C 
ATOM     22  S   UNL     1       0.084   5.631  -3.240  0.00  0.00    -0.040 S 
BRANCH  21  23
ATOM     23  N   UNL     1      -2.280   4.965  -3.947  0.00  0.00    -0.355 N 
ATOM     24  H   UNL     1      -1.869   4.778  -4.950  0.00  0.00    +0.143 HD
ATOM     25  H   UNL     1      -3.350   4.802  -3.752  0.00  0.00    +0.143 HD
ENDBRANCH  21  23
ENDBRANCH  20  21
ENDBRANCH  10  20
TORSDOF 5
