REMARK  Name = ZINC60240414
REMARK  10 active torsions:
REMARK  status: ('A' for Active; 'I' for Inactive)
REMARK    1  A    between atoms: C_1  and  C_2
REMARK    2  A    between atoms: C_2  and  C_3
REMARK    3  A    between atoms: C_2  and  C_4
REMARK    4  A    between atoms: C_4  and  C_6
REMARK    5  A    between atoms: C_4  and  N_22
REMARK    6  A    between atoms: N_8  and  C_9
REMARK    7  A    between atoms: C_9  and  C_10
REMARK    8  A    between atoms: N_13  and  C_16
REMARK    9  A    between atoms: C_16  and  C_17
REMARK   10  A    between atoms: C_23  and  C_25
REMARK                            x       y       z     vdW  Elec       q    Type
REMARK                         _______ _______ _______ _____ _____    ______ ____
ROOT
ATOM      1  C   UNL     1      -2.074  -0.231  -1.335  0.00  0.00    +0.234 C 
ATOM      2  O   UNL     1      -2.511  -1.081  -2.081  0.00  0.00    -0.274 OA
ATOM      3  N   UNL     1      -2.204   1.073  -1.649  0.00  0.00    -0.314 N 
ATOM      4  H   UNL     1      -1.924   1.754  -1.018  0.00  0.00    +0.149 HD
ENDROOT
BRANCH   1   5
ATOM      5  C   UNL     1      -1.387  -0.633  -0.055  0.00  0.00    +0.162 C 
BRANCH   5   6
ATOM      6  N   UNL     1      -1.705  -2.030   0.252  0.00  0.00    -0.300 N 
ATOM      7  C   UNL     1      -1.652  -2.468   1.525  0.00  0.00    +0.250 C 
ATOM      8  O   UNL     1      -1.341  -1.705   2.419  0.00  0.00    -0.270 OA
ATOM      9  H   UNL     1      -1.953  -2.639  -0.461  0.00  0.00    +0.150 HD
BRANCH   7  10
ATOM     10  C   UNL     1      -1.972  -3.875   1.835  0.00  0.00    +0.107 A 
ATOM     11  C   UNL     1      -0.962  -4.842   1.837  0.00  0.00    +0.138 A 
ATOM     12  C   UNL     1      -1.271  -6.158   2.129  0.00  0.00    +0.039 A 
ATOM     13  C   UNL     1      -2.574  -6.519   2.417  0.00  0.00    +0.006 A 
ATOM     14  C   UNL     1      -3.579  -5.569   2.416  0.00  0.00    +0.039 A 
ATOM     15  C   UNL     1      -3.287  -4.248   2.133  0.00  0.00    +0.138 A 
ATOM     16  F   UNL     1      -4.270  -3.320   2.138  0.00  0.00    -0.205 F 
ATOM     17  F   UNL     1       0.312  -4.492   1.555  0.00  0.00    -0.205 F 
ENDBRANCH   7  10
ENDBRANCH   5   6
BRANCH   5  19
ATOM     18  C   UNL     1       0.819  -0.803   1.106  0.00  0.00    +0.009 C 
ATOM     19  C   UNL     1       0.127  -0.479  -0.219  0.00  0.00    +0.012 C 
ATOM     20  C   UNL     1       0.623  -1.439  -1.302  0.00  0.00    +0.009 C 
ENDBRANCH   5  19
ENDBRANCH   1   5
BRANCH   3  21
ATOM     21  C   UNL     1      -2.768   1.462  -2.944  0.00  0.00    +0.107 C 
BRANCH  21  22
ATOM     22  C   UNL     1      -2.804   2.988  -3.047  0.00  0.00    +0.003 C 
ATOM     23  C   UNL     1      -3.778   3.549  -2.006  0.00  0.00    -0.014 C 
ATOM     24  C   UNL     1      -3.869   5.068  -2.168  0.00  0.00    -0.078 C 
ATOM     25  N   UNL     1      -4.351   5.392  -3.516  0.00  0.00    +0.383 N 
ATOM     26  C   UNL     1      -3.386   4.921  -4.516  0.00  0.00    -0.078 C 
ATOM     27  C   UNL     1      -3.276   3.396  -4.445  0.00  0.00    -0.014 C 
ATOM     28  H   UNL     1      -5.241   4.944  -3.671  0.00  0.00    -0.081 HD
BRANCH  25  29
ATOM     29  C   UNL     1      -4.511   6.847  -3.640  0.00  0.00    -0.036 C 
BRANCH  29  30
ATOM     30  C   UNL     1      -5.121   7.173  -4.979  0.00  0.00    -0.027 A 
ATOM     31  C   UNL     1      -6.428   7.293  -5.315  0.00  0.00    +0.009 A 
ATOM     32  C   UNL     1      -6.759   7.603  -6.621  0.00  0.00    +0.008 A 
ATOM     33  C   UNL     1      -5.766   7.777  -7.527  0.00  0.00    +0.045 A 
ATOM     34  S   UNL     1      -4.308   7.509  -6.532  0.00  0.00    -0.103 S 
ENDBRANCH  29  30
ENDBRANCH  25  29
ENDBRANCH  21  22
ENDBRANCH   3  21
TORSDOF 8
