REMARK  Name = ZINC04294225
REMARK  7 active torsions:
REMARK  status: ('A' for Active; 'I' for Inactive)
REMARK    1  A    between atoms: C_1  and  C_2
REMARK    2  A    between atoms: C_3  and  C_23
REMARK    3  A    between atoms: C_4  and  C_16
REMARK    4  A    between atoms: C_10  and  C_12
REMARK    5  A    between atoms: C_12  and  C_13
REMARK    6  A    between atoms: C_13  and  C_14
REMARK    7  A    between atoms: C_14  and  O_15
REMARK                            x       y       z     vdW  Elec       q    Type
REMARK                         _______ _______ _______ _____ _____    ______ ____
ROOT
ATOM      1  C   UNL     1      -0.717   1.621  -0.386  0.00  0.00    +0.066 C 
ATOM      2  C   UNL     1      -0.422   0.156  -0.196  0.00  0.00    +0.052 C 
ATOM      3  C   UNL     1      -1.460  -0.732  -0.176  0.00  0.00    +0.062 C 
ATOM      4  C   UNL     1      -1.115  -2.199   0.018  0.00  0.00    +0.165 C 
ATOM      5  N   UNL     1       0.311  -2.511   0.165  0.00  0.00    -0.207 N 
ATOM      6  C   UNL     1       1.224  -1.485   0.119  0.00  0.00    +0.237 C 
ATOM      7  N   UNL     1       0.837  -0.234  -0.059  0.00  0.00    -0.218 NA
ATOM      8  N   UNL     1       2.442  -2.037   0.277  0.00  0.00    -0.201 NA
ATOM      9  C   UNL     1       2.340  -3.332   0.417  0.00  0.00    +0.115 C 
ATOM     10  N   UNL     1       1.036  -3.689   0.355  0.00  0.00    -0.248 N 
ATOM     11  H   UNL     1       0.675  -4.587   0.430  0.00  0.00    +0.171 HD
ENDROOT
BRANCH   4  12
ATOM     12  C   UNL     1      -1.829  -2.690   1.250  0.00  0.00    -0.002 A 
ATOM     13  C   UNL     1      -2.217  -1.794   2.228  0.00  0.00    +0.007 A 
ATOM     14  C   UNL     1      -2.872  -2.245   3.359  0.00  0.00    +0.000 A 
ATOM     15  C   UNL     1      -3.139  -3.593   3.512  0.00  0.00    +0.001 A 
ATOM     16  C   UNL     1      -2.752  -4.490   2.535  0.00  0.00    +0.020 A 
ATOM     17  C   UNL     1      -2.101  -4.038   1.401  0.00  0.00    +0.046 A 
ATOM     18 CL   UNL     1      -1.619  -5.164   0.170  0.00  0.00    -0.083 Cl
ENDBRANCH   4  12
BRANCH   3  19
ATOM     19  C   UNL     1      -2.793  -0.306  -0.328  0.00  0.00    +0.241 C 
ATOM     20  O   UNL     1      -3.051   0.884  -0.375  0.00  0.00    -0.271 OA
ATOM     21  N   UNL     1      -3.784  -1.214  -0.423  0.00  0.00    -0.325 N 
ATOM     22  H   UNL     1      -3.589  -2.158  -0.314  0.00  0.00    +0.145 HD
ATOM     23  H   UNL     1      -4.693  -0.924  -0.599  0.00  0.00    +0.145 HD
ENDBRANCH   3  19
BRANCH   9  24
ATOM     24  C   UNL     1       3.494  -4.281   0.614  0.00  0.00    +0.075 C 
BRANCH  24  25
ATOM     25  C   UNL     1       4.805  -3.493   0.627  0.00  0.00    +0.035 C 
BRANCH  25  26
ATOM     26  C   UNL     1       5.977  -4.457   0.827  0.00  0.00    +0.156 C 
BRANCH  26  27
ATOM     27  O   UNL     1       7.202  -3.721   0.839  0.00  0.00    -0.395 OA
ATOM     28  H   UNL     1       7.989  -4.269   0.962  0.00  0.00    +0.209 HD
ENDBRANCH  26  27
ENDBRANCH  25  26
ENDBRANCH  24  25
ENDBRANCH   9  24
TORSDOF 6
