REMARK  Name = ZINC45526075
REMARK  7 active torsions:
REMARK  status: ('A' for Active; 'I' for Inactive)
REMARK    1  A    between atoms: C_6  and  C_7
REMARK    2  A    between atoms: C_10  and  S_13
REMARK    3  A    between atoms: N_11  and  N_12
REMARK    4  A    between atoms: S_13  and  C_14
REMARK    5  A    between atoms: C_14  and  C_15
REMARK    6  A    between atoms: C_15  and  C_16
REMARK    7  A    between atoms: N_18  and  C_19
REMARK                            x       y       z     vdW  Elec       q    Type
REMARK                         _______ _______ _______ _____ _____    ______ ____
ROOT
ATOM      1  C   UNL     1      -1.267  -0.763   0.006  0.00  0.00    +0.182 A 
ATOM      2  N   UNL     1      -2.457  -0.290   0.296  0.00  0.00    -0.127 NA
ATOM      3  N   UNL     1      -3.334  -1.225   0.205  0.00  0.00    -0.121 NA
ATOM      4  C   UNL     1      -2.758  -2.352  -0.149  0.00  0.00    +0.209 A 
ATOM      5  N   UNL     1      -1.424  -2.097  -0.293  0.00  0.00    -0.224 N 
ENDROOT
BRANCH   1  11
ATOM      6  C   UNL     1      -0.017   1.392   0.012  0.00  0.00    +0.014 A 
ATOM      7  C   UNL     1       1.169   2.095   0.003  0.00  0.00    +0.039 A 
ATOM      8  C   UNL     1       2.378   1.419  -0.021  0.00  0.00    +0.123 A 
ATOM      9  C   UNL     1       2.403   0.034  -0.037  0.00  0.00    +0.039 A 
ATOM     10  C   UNL     1       1.223  -0.680  -0.029  0.00  0.00    +0.014 A 
ATOM     11  C   UNL     1       0.002  -0.004  -0.004  0.00  0.00    +0.021 A 
ATOM     12  F   UNL     1       3.538   2.113  -0.030  0.00  0.00    -0.205 F 
ENDBRANCH   1  11
BRANCH   5  13
ATOM     13  N   UNL     1      -0.448  -2.981  -0.657  0.00  0.00    -0.295 N 
ATOM     14  H   UNL     1      -0.052  -3.435   0.153  0.00  0.00    +0.163 HD
ATOM     15  H   UNL     1      -0.802  -3.660  -1.314  0.00  0.00    +0.163 HD
ENDBRANCH   5  13
BRANCH   4  16
ATOM     16  S   UNL     1      -3.558  -3.902  -0.398  0.00  0.00    -0.084 S 
BRANCH  16  17
ATOM     17  C   UNL     1      -5.305  -3.554  -0.055  0.00  0.00    +0.086 C 
BRANCH  17  18
ATOM     18  C   UNL     1      -6.125  -4.833  -0.237  0.00  0.00    +0.107 C 
BRANCH  18  19
ATOM     19  C   UNL     1      -7.576  -4.543   0.048  0.00  0.00    +0.218 C 
ATOM     20  O   UNL     1      -7.921  -3.425   0.366  0.00  0.00    -0.275 OA
ATOM     21  N   UNL     1      -8.491  -5.528  -0.049  0.00  0.00    -0.285 N 
ATOM     22  H   UNL     1      -8.228  -6.406  -0.367  0.00  0.00    +0.155 HD
BRANCH  21  23
ATOM     23  C   UNL     1      -9.823  -5.284   0.309  0.00  0.00    +0.034 A 
ATOM     24  C   UNL     1     -10.575  -6.283   0.913  0.00  0.00    +0.026 A 
ATOM     25  C   UNL     1     -11.888  -6.041   1.265  0.00  0.00    +0.040 A 
ATOM     26  C   UNL     1     -12.455  -4.803   1.016  0.00  0.00    +0.124 A 
ATOM     27  C   UNL     1     -11.707  -3.805   0.414  0.00  0.00    +0.040 A 
ATOM     28  C   UNL     1     -10.392  -4.041   0.066  0.00  0.00    +0.026 A 
ATOM     29  F   UNL     1     -13.740  -4.568   1.361  0.00  0.00    -0.205 F 
ENDBRANCH  21  23
ENDBRANCH  18  19
ENDBRANCH  17  18
ENDBRANCH  16  17
ENDBRANCH   4  16
TORSDOF 7
