REMARK  Name = ZINC37303552
REMARK  4 active torsions:
REMARK  status: ('A' for Active; 'I' for Inactive)
REMARK    1  A    between atoms: C_1  and  O_2
REMARK    2  A    between atoms: O_2  and  C_3
REMARK    3  A    between atoms: C_9  and  N_11
REMARK    4  A    between atoms: N_11  and  C_12
REMARK                            x       y       z     vdW  Elec       q    Type
REMARK                         _______ _______ _______ _____ _____    ______ ____
ROOT
ATOM      1  C   UNL     1       0.539  -3.864  -0.632  0.00  0.00    +0.065 A 
ATOM      2  C   UNL     1       1.842  -4.039  -1.075  0.00  0.00    +0.049 A 
ATOM      3  C   UNL     1       2.139  -5.070  -1.955  0.00  0.00    +0.039 A 
ATOM      4  C   UNL     1       1.133  -5.923  -2.389  0.00  0.00    -0.023 A 
ATOM      5  C   UNL     1      -0.164  -5.747  -1.948  0.00  0.00    +0.045 A 
ATOM      6  C   UNL     1      -0.464  -4.725  -1.066  0.00  0.00    +0.144 A 
ATOM      7  F   UNL     1      -1.732  -4.558  -0.631  0.00  0.00    -0.204 F 
ATOM      8  C   UNL     1       1.461  -7.042  -3.344  0.00  0.00    +0.046 C 
ATOM      9  C   UNL     1       2.572  -6.595  -4.294  0.00  0.00    +0.101 C 
ATOM     10  C   UNL     1       3.699  -5.978  -3.510  0.00  0.00    +0.218 C 
ATOM     11  O   UNL     1       4.844  -6.138  -3.879  0.00  0.00    -0.275 OA
ATOM     12  N   UNL     1       3.452  -5.251  -2.405  0.00  0.00    -0.285 N 
ATOM     13  H   UNL     1       4.188  -4.850  -1.917  0.00  0.00    +0.155 HD
ENDROOT
BRANCH   1  14
ATOM     14  N   UNL     1       0.235  -2.827   0.256  0.00  0.00    -0.336 N 
ATOM     15  H   UNL     1      -0.676  -2.707   0.568  0.00  0.00    +0.147 HD
BRANCH  14  21
ATOM     16  C   UNL     1       0.673  -0.582   1.123  0.00  0.00    +0.138 C 
ATOM     17  C   UNL     1      -0.329  -0.810   2.256  0.00  0.00    +0.033 C 
ATOM     18  C   UNL     1       0.390  -1.429   3.457  0.00  0.00    +0.003 C 
ATOM     19  C   UNL     1       1.008  -2.767   3.046  0.00  0.00    +0.002 C 
ATOM     20  C   UNL     1       2.010  -2.540   1.913  0.00  0.00    +0.025 C 
ATOM     21  C   UNL     1       1.291  -1.921   0.713  0.00  0.00    +0.099 C 
BRANCH  16  23
ATOM     22  C   UNL     1      -0.017   1.425   0.010  0.00  0.00    +0.194 C 
ATOM     23  O   UNL     1       0.002  -0.004   0.002  0.00  0.00    -0.378 OA
ENDBRANCH  16  23
ENDBRANCH  14  21
ENDBRANCH   1  14
TORSDOF 3
