REMARK  Name = ZINC64402182
REMARK  4 active torsions:
REMARK  status: ('A' for Active; 'I' for Inactive)
REMARK    1  A    between atoms: C_6  and  C_11
REMARK    2  A    between atoms: N_13  and  C_14
REMARK    3  A    between atoms: C_20  and  C_22
REMARK    4  A    between atoms: N_24  and  C_27
REMARK                            x       y       z     vdW  Elec       q    Type
REMARK                         _______ _______ _______ _____ _____    ______ ____
ROOT
ATOM      1  C   UNL     1       4.171  -4.586  -2.972  0.00  0.00    +0.076 C 
ATOM      2  C   UNL     1       3.176  -4.332  -4.107  0.00  0.00    +0.041 C 
ATOM      3  C   UNL     1       3.581  -5.160  -5.330  0.00  0.00    +0.110 C 
ATOM      4  N   UNL     1       3.695  -6.569  -4.931  0.00  0.00    -0.296 N 
ATOM      5  C   UNL     1       4.556  -6.914  -3.791  0.00  0.00    +0.110 C 
ATOM      6  C   UNL     1       4.139  -6.066  -2.585  0.00  0.00    +0.041 C 
ATOM      7  C   UNL     1       3.021  -7.528  -5.597  0.00  0.00    +0.263 C 
ATOM      8  O   UNL     1       3.193  -8.700  -5.316  0.00  0.00    -0.269 OA
ENDROOT
BRANCH   7   9
ATOM      9  C   UNL     1       2.084  -7.160  -6.657  0.00  0.00    +0.121 C 
ATOM     10  C   UNL     1       2.386  -6.972  -7.960  0.00  0.00    +0.124 C 
ATOM     11  N   UNL     1       1.234  -6.638  -8.629  0.00  0.00    -0.225 N 
ATOM     12  N   UNL     1       0.200  -6.618  -7.738  0.00  0.00    -0.156 NA
ATOM     13  N   UNL     1       0.697  -6.944  -6.507  0.00  0.00    -0.259 N 
ATOM     14  H   UNL     1      -0.527  -7.261  -8.012  0.00  0.00    +0.168 HD
ATOM     15  H   UNL     1       0.191  -7.011  -5.682  0.00  0.00    +0.168 HD
BRANCH  11  16
ATOM     16  C   UNL     1       1.136  -6.365  -9.996  0.00  0.00    +0.051 A 
ATOM     17  C   UNL     1       2.267  -6.425 -10.800  0.00  0.00    +0.026 A 
ATOM     18  C   UNL     1       2.167  -6.155 -12.151  0.00  0.00    +0.022 A 
ATOM     19  C   UNL     1       0.942  -5.825 -12.703  0.00  0.00    +0.041 A 
ATOM     20  C   UNL     1      -0.186  -5.764 -11.904  0.00  0.00    +0.022 A 
ATOM     21  C   UNL     1      -0.093  -6.038 -10.554  0.00  0.00    +0.026 A 
ATOM     22 CL   UNL     1       0.821  -5.485 -14.401  0.00  0.00    -0.084 Cl
ENDBRANCH  11  16
ENDBRANCH   7   9
BRANCH   1  25
ATOM     23  C   UNL     1       4.229  -2.493  -1.724  0.00  0.00    +0.240 C 
ATOM     24  O   UNL     1       4.912  -2.019  -2.608  0.00  0.00    -0.273 OA
ATOM     25  N   UNL     1       3.806  -3.770  -1.811  0.00  0.00    -0.310 N 
ATOM     26  H   UNL     1       3.260  -4.149  -1.105  0.00  0.00    +0.149 HD
BRANCH  23  32
ATOM     27  C   UNL     1       1.026   2.025  -0.678  0.00  0.00    +0.001 A 
ATOM     28  C   UNL     1       2.272   2.659  -0.783  0.00  0.00    +0.002 A 
ATOM     29  C   UNL     1       3.438   1.979  -0.784  0.00  0.00    +0.026 A 
ATOM     30  C   UNL     1       3.444   0.561  -0.678  0.00  0.00    +0.043 A 
ATOM     31  N   UNL     1       4.424  -0.309  -0.657  0.00  0.00    -0.370 N 
ATOM     32  C   UNL     1       3.853  -1.654  -0.530  0.00  0.00    +0.190 C 
ATOM     33  C   UNL     1       2.353  -1.465  -0.475  0.00  0.00    +0.016 C 
ATOM     34  C   UNL     1       2.140  -0.132  -0.566  0.00  0.00    -0.004 A 
ATOM     35  C   UNL     1       0.919   0.681  -0.571  0.00  0.00    +0.010 A 
ATOM     36  H   UNL     1       5.369  -0.098  -0.717  0.00  0.00    +0.161 HD
ENDBRANCH  23  32
ENDBRANCH   1  25
TORSDOF 4
