REMARK  Name = ZINC02542243
REMARK  5 active torsions:
REMARK  status: ('A' for Active; 'I' for Inactive)
REMARK    1  A    between atoms: C_1  and  C_2
REMARK    2  A    between atoms: C_5  and  C_8
REMARK    3  A    between atoms: C_14  and  O_19
REMARK    4  A    between atoms: O_19  and  C_20
REMARK    5  A    between atoms: C_27  and  C_29
REMARK                            x       y       z     vdW  Elec       q    Type
REMARK                         _______ _______ _______ _____ _____    ______ ____
ROOT
ATOM      1  C   UNL     1       0.059  -4.275  -0.021  0.00  0.00    +0.234 C 
ATOM      2  C   UNL     1      -1.345  -4.790   0.097  0.00  0.00    +0.027 C 
ATOM      3  C   UNL     1      -1.890  -5.029   1.308  0.00  0.00    +0.083 C 
ATOM      4  C   UNL     1      -1.044  -4.773   2.502  0.00  0.00    +0.046 A 
ATOM      5  C   UNL     1      -1.595  -4.671   3.771  0.00  0.00    +0.059 A 
ATOM      6  C   UNL     1      -0.769  -4.430   4.858  0.00  0.00    +0.121 A 
ATOM      7  C   UNL     1       0.600  -4.291   4.674  0.00  0.00    +0.049 A 
ATOM      8  C   UNL     1       1.152  -4.393   3.411  0.00  0.00    +0.050 A 
ATOM      9  C   UNL     1       0.337  -4.634   2.319  0.00  0.00    +0.131 A 
ATOM     10  O   UNL     1       0.853  -4.744   1.071  0.00  0.00    -0.479 OA
ATOM     11  N   UNL     1      -3.159  -5.487   1.436  0.00  0.00    -0.213 NA
ATOM     12  C   UNL     1      -3.959  -5.745   0.427  0.00  0.00    +0.237 C 
ATOM     13  N   UNL     1      -5.230  -6.202   0.378  0.00  0.00    -0.205 NA
ATOM     14  C   UNL     1      -5.625  -6.310  -0.861  0.00  0.00    +0.203 C 
ATOM     15  N   UNL     1      -4.619  -5.924  -1.694  0.00  0.00    -0.251 N 
ATOM     16  N   UNL     1      -3.547  -5.558  -0.877  0.00  0.00    -0.208 N 
ATOM     17  C   UNL     1      -2.190  -5.058  -1.129  0.00  0.00    +0.159 C 
ATOM     18  H   UNL     1      -4.642  -5.907  -2.664  0.00  0.00    +0.171 HD
ENDROOT
BRANCH   1  23
ATOM     19  C   UNL     1      -0.018   1.503   0.010  0.00  0.00    +0.044 C 
ATOM     20  C   UNL     1       0.002  -0.004   0.002  0.00  0.00    -0.050 A 
ATOM     21  C   UNL     1       0.006  -0.689  -1.199  0.00  0.00    +0.004 A 
ATOM     22  C   UNL     1       0.025  -2.071  -1.206  0.00  0.00    +0.008 A 
ATOM     23  C   UNL     1       0.040  -2.768  -0.013  0.00  0.00    -0.003 A 
ATOM     24  C   UNL     1       0.037  -2.084   1.188  0.00  0.00    +0.008 A 
ATOM     25  C   UNL     1       0.023  -0.702   1.195  0.00  0.00    +0.004 A 
ENDBRANCH   1  23
BRANCH  17  26
ATOM     26  C   UNL     1      -1.469  -6.065  -1.986  0.00  0.00    -0.021 A 
ATOM     27  C   UNL     1      -1.536  -7.411  -1.676  0.00  0.00    +0.008 A 
ATOM     28  C   UNL     1      -0.875  -8.336  -2.462  0.00  0.00    +0.038 A 
ATOM     29  C   UNL     1      -0.146  -7.914  -3.561  0.00  0.00    +0.123 A 
ATOM     30  C   UNL     1      -0.080  -6.566  -3.871  0.00  0.00    +0.038 A 
ATOM     31  C   UNL     1      -0.746  -5.644  -3.087  0.00  0.00    +0.008 A 
ATOM     32  F   UNL     1       0.500  -8.817  -4.330  0.00  0.00    -0.205 F 
ENDBRANCH  17  26
BRANCH   6  33
ATOM     33  O   UNL     1      -1.300  -4.328   6.106  0.00  0.00    -0.495 OA
ATOM     34  C   UNL     1      -0.391  -4.079   7.179  0.00  0.00    +0.277 C 
ENDBRANCH   6  33
TORSDOF 3
