REMARK  Name = ZINC11757328
REMARK  4 active torsions:
REMARK  status: ('A' for Active; 'I' for Inactive)
REMARK    1  A    between atoms: C_4  and  C_7
REMARK    2  A    between atoms: C_7  and  O_8
REMARK    3  A    between atoms: O_8  and  C_9
REMARK    4  A    between atoms: C_12  and  C_15
REMARK                            x       y       z     vdW  Elec       q    Type
REMARK                         _______ _______ _______ _____ _____    ______ ____
ROOT
ATOM      1  C   UNL     1       5.287  -1.588  -1.586  0.00  0.00    +0.121 A 
ATOM      2  C   UNL     1       6.038  -2.002  -0.493  0.00  0.00    +0.046 A 
ATOM      3  C   UNL     1       7.226  -2.673  -0.686  0.00  0.00    +0.013 A 
ATOM      4  C   UNL     1       7.679  -2.927  -1.981  0.00  0.00    +0.001 A 
ATOM      5  C   UNL     1       6.926  -2.505  -3.075  0.00  0.00    +0.013 A 
ATOM      6  C   UNL     1       5.735  -1.839  -2.876  0.00  0.00    +0.046 A 
ENDROOT
BRANCH   4   7
ATOM      7  C   UNL     1       8.960  -3.643  -2.192  0.00  0.00    +0.073 A 
ATOM      8  C   UNL     1       9.704  -4.060  -1.082  0.00  0.00    +0.029 A 
ATOM      9  C   UNL     1      10.885  -4.722  -1.273  0.00  0.00    +0.017 A 
ATOM     10  C   UNL     1      11.309  -4.960  -2.586  0.00  0.00    +0.060 A 
ATOM     11  C   UNL     1      12.476  -5.614  -3.176  0.00  0.00    +0.147 A 
ATOM     12  N   UNL     1      12.352  -5.545  -4.475  0.00  0.00    -0.157 NA
ATOM     13  N   UNL     1      11.167  -4.882  -4.808  0.00  0.00    -0.258 N 
ATOM     14  H   UNL     1      10.847  -4.703  -5.738  0.00  0.00    +0.191 HD
ATOM     15  C   UNL     1      10.515  -4.516  -3.662  0.00  0.00    +0.158 A 
ATOM     16  N   UNL     1       9.373  -3.882  -3.426  0.00  0.00    -0.228 NA
ATOM     17  N   UNL     1      13.532  -6.206  -2.477  0.00  0.00    -0.341 N 
ATOM     18  H   UNL     1      13.533  -6.206  -1.507  0.00  0.00    +0.144 HD
ATOM     19  H   UNL     1      14.265  -6.616  -2.963  0.00  0.00    +0.144 HD
ENDBRANCH   4   7
BRANCH   1  20
ATOM     20  O   UNL     1       4.113  -0.932  -1.392  0.00  0.00    -0.487 OA
BRANCH  20  21
ATOM     21  C   UNL     1       3.711  -0.707  -0.039  0.00  0.00    +0.264 C 
BRANCH  21  25
ATOM     22  C   UNL     1      -0.017   1.378   0.010  0.00  0.00    +0.000 A 
ATOM     23  C   UNL     1       1.171   2.086   0.002  0.00  0.00    +0.000 A 
ATOM     24  C   UNL     1       2.377   1.411  -0.014  0.00  0.00    +0.007 A 
ATOM     25  C   UNL     1       2.396   0.029  -0.022  0.00  0.00    -0.010 A 
ATOM     26  C   UNL     1       1.208  -0.679  -0.014  0.00  0.00    +0.007 A 
ATOM     27  C   UNL     1       0.002  -0.004   0.002  0.00  0.00    +0.000 A 
ENDBRANCH  21  25
ENDBRANCH  20  21
ENDBRANCH   1  20
TORSDOF 4
