REMARK  Name = ZINC36092254
REMARK  7 active torsions:
REMARK  status: ('A' for Active; 'I' for Inactive)
REMARK    1  A    between atoms: C_3  and  O_31
REMARK    2  A    between atoms: C_6  and  C_7
REMARK    3  A    between atoms: C_7  and  O_8
REMARK    4  A    between atoms: O_8  and  C_9
REMARK    5  A    between atoms: C_12  and  N_15
REMARK    6  A    between atoms: O_31  and  C_32
REMARK    7  A    between atoms: C_35  and  N_39
REMARK                            x       y       z     vdW  Elec       q    Type
REMARK                         _______ _______ _______ _____ _____    ______ ____
ROOT
ATOM      1  O   UNL     1      -1.758  -0.953  -1.246  0.00  0.00    -0.487 OA
ENDROOT
BRANCH   1   2
ATOM      2  C   UNL     1      -2.931  -1.621  -1.400  0.00  0.00    +0.121 A 
ATOM      3  C   UNL     1      -3.673  -1.987  -0.287  0.00  0.00    +0.047 A 
ATOM      4  C   UNL     1      -4.865  -2.666  -0.443  0.00  0.00    +0.027 A 
ATOM      5  C   UNL     1      -5.321  -2.983  -1.716  0.00  0.00    +0.044 A 
ATOM      6  C   UNL     1      -4.579  -2.617  -2.830  0.00  0.00    +0.027 A 
ATOM      7  C   UNL     1      -3.389  -1.933  -2.672  0.00  0.00    +0.047 A 
BRANCH   5   8
ATOM      8  N   UNL     1      -6.533  -3.673  -1.875  0.00  0.00    -0.210 N 
ATOM      9  C   UNL     1      -7.716  -3.144  -1.544  0.00  0.00    +0.231 C 
ATOM     10  O   UNL     1      -7.882  -2.037  -1.079  0.00  0.00    -0.274 OA
ATOM     11  C   UNL     1      -8.813  -4.141  -1.839  0.00  0.00    +0.095 C 
ATOM     12  C   UNL     1      -9.389  -4.652  -0.481  0.00  0.00    +0.025 C 
ATOM     13  C   UNL     1      -9.728  -6.141  -0.856  0.00  0.00    +0.016 C 
ATOM     14  C   UNL     1      -8.252  -6.462  -1.294  0.00  0.00    +0.025 C 
ATOM     15  C   UNL     1      -8.040  -5.365  -2.413  0.00  0.00    +0.095 C 
ATOM     16  C   UNL     1      -6.598  -4.912  -2.377  0.00  0.00    +0.231 C 
ATOM     17  O   UNL     1      -5.649  -5.570  -2.743  0.00  0.00    -0.274 OA
ATOM     18  C   UNL     1      -7.494  -5.920  -0.077  0.00  0.00    -0.027 C 
ATOM     19  C   UNL     1      -8.150  -4.855   0.399  0.00  0.00    -0.027 C 
ENDBRANCH   5   8
ENDBRANCH   1   2
BRANCH   1  20
ATOM     20  C   UNL     1      -1.347  -0.664   0.092  0.00  0.00    +0.264 C 
BRANCH  20  26
ATOM     21  C   UNL     1      -0.022   1.457   0.011  0.00  0.00    +0.010 A 
ATOM     22  C   UNL     1       1.180   2.138  -0.013  0.00  0.00    +0.046 A 
ATOM     23  C   UNL     1       2.375   1.434   0.020  0.00  0.00    +0.129 A 
ATOM     24  C   UNL     1       2.360   0.048   0.076  0.00  0.00    +0.046 A 
ATOM     25  C   UNL     1       1.155  -0.628   0.099  0.00  0.00    +0.010 A 
ATOM     26  C   UNL     1      -0.035   0.075   0.067  0.00  0.00    -0.010 A 
BRANCH  23  27
ATOM     27  O   UNL     1       3.559   2.101  -0.004  0.00  0.00    -0.455 OA
BRANCH  27  28
ATOM     28  C   UNL     1       3.887   2.855   1.078  0.00  0.00    +0.147 A 
ATOM     29  C   UNL     1       3.091   2.826   2.213  0.00  0.00    +0.050 A 
ATOM     30  C   UNL     1       3.427   3.594   3.312  0.00  0.00    +0.036 A 
ATOM     31  C   UNL     1       4.556   4.392   3.280  0.00  0.00    +0.128 A 
ATOM     32  C   UNL     1       5.352   4.423   2.150  0.00  0.00    +0.056 A 
ATOM     33  C   UNL     1       5.024   3.652   1.051  0.00  0.00    +0.085 A 
ATOM     34 CL   UNL     1       6.028   3.686  -0.365  0.00  0.00    -0.080 Cl
BRANCH  31  35
ATOM     35  N   UNL     1       4.913   5.214   4.458  0.00  0.00    +0.056 N 
ATOM     36  O   UNL     1       4.218   5.187   5.447  0.00  0.00    -0.126 OA
ATOM     37  O   UNL     1       5.900   5.911   4.432  0.00  0.00    -0.126 OA
ENDBRANCH  31  35
ENDBRANCH  27  28
ENDBRANCH  23  27
ENDBRANCH  20  26
ENDBRANCH   1  20
TORSDOF 7
