REMARK  Name = ZINC27315572
REMARK  11 active torsions:
REMARK  status: ('A' for Active; 'I' for Inactive)
REMARK    1  A    between atoms: C_1  and  C_2
REMARK    2  A    between atoms: C_2  and  C_4
REMARK    3  A    between atoms: C_2  and  C_38
REMARK    4  A    between atoms: C_4  and  C_6
REMARK    5  A    between atoms: C_4  and  N_37
REMARK    6  A    between atoms: C_6  and  C_8
REMARK    7  A    between atoms: C_15  and  C_19
REMARK    8  A    between atoms: C_16  and  C_17
REMARK    9  A    between atoms: C_16  and  C_18
REMARK   10  A    between atoms: C_19  and  S_20
REMARK   11  A    between atoms: S_20  and  N_23
REMARK                            x       y       z     vdW  Elec       q    Type
REMARK                         _______ _______ _______ _____ _____    ______ ____
ROOT
ATOM      1  C   UNL     1      -1.150   3.502   0.114  0.00  0.00    +0.062 C 
ATOM      2  C   UNL     1      -0.357   2.697  -0.970  0.00  0.00    +0.015 C 
ATOM      3  C   UNL     1      -0.895   1.242  -0.816  0.00  0.00    -0.004 C 
ATOM      4  C   UNL     1      -0.307   0.750   0.542  0.00  0.00    +0.005 C 
ATOM      5  C   UNL     1      -1.080   1.548   1.617  0.00  0.00    +0.010 C 
ATOM      6  C   UNL     1      -2.066   2.446   0.805  0.00  0.00    +0.006 C 
ATOM      7  C   UNL     1      -2.388   1.504  -0.408  0.00  0.00    -0.024 C 
ATOM      8  C   UNL     1      -3.164   2.229  -1.508  0.00  0.00    +0.012 C 
ATOM      9  C   UNL     1      -3.095   0.221   0.035  0.00  0.00    +0.012 C 
ENDROOT
BRANCH   1  10
ATOM     10  C   UNL     1      -0.197   4.106   1.113  0.00  0.00    +0.124 C 
ATOM     11  O   UNL     1      -0.361   3.917   2.295  0.00  0.00    -0.299 OA
BRANCH  10  12
ATOM     12  C   UNL     1       0.961   4.946   0.638  0.00  0.00    +0.005 C 
BRANCH  12  13
ATOM     13  N   UNL     1       1.919   5.124   1.737  0.00  0.00    +0.385 N 
ATOM     14  H   UNL     1       2.289   4.141   2.064  0.00  0.00    -0.089 HD
ATOM     15  H   UNL     1       1.422   5.628   2.579  0.00  0.00    -0.089 HD
ATOM     16  H   UNL     1       2.764   5.738   1.391  0.00  0.00    -0.089 HD
ENDBRANCH  12  13
BRANCH  12  18
ATOM     17  C   UNL     1      -0.111   7.075   1.388  0.00  0.00    +0.016 C 
ATOM     18  C   UNL     1       0.446   6.313   0.184  0.00  0.00    +0.064 C 
BRANCH  18  19
ATOM     19  C   UNL     1       1.578   7.099  -0.427  0.00  0.00    +0.212 C 
ATOM     20  O   UNL     1       2.687   6.612  -0.492  0.00  0.00    -0.276 OA
ATOM     21  N   UNL     1       1.358   8.341  -0.901  0.00  0.00    -0.329 N 
ATOM     22  H   UNL     1       2.184   8.914  -1.347  0.00  0.00    +0.145 HD
ATOM     23  H   UNL     1       0.352   8.782  -0.842  0.00  0.00    +0.145 HD
ENDBRANCH  18  19
ENDBRANCH  12  18
ENDBRANCH  10  12
ENDBRANCH   1  10
BRANCH   6  24
ATOM     24  C   UNL     1      -3.269   2.988   1.579  0.00  0.00    +0.193 C 
BRANCH  24  25
ATOM     25  S   UNL     1      -2.692   3.875   3.052  0.00  0.00    +0.032 S 
ATOM     26  O   UNL     1      -1.901   3.016   3.862  0.00  0.00    -0.158 OA
ATOM     27  O   UNL     1      -2.221   5.167   2.692  0.00  0.00    -0.158 OA
BRANCH  25  28
ATOM     28  N   UNL     1      -4.059   4.156   3.943  0.00  0.00    -0.181 NA
ATOM     29  C   UNL     1      -4.837   5.388   3.750  0.00  0.00    +0.110 C 
ATOM     30  C   UNL     1      -6.296   5.002   3.460  0.00  0.00    +0.028 C 
ATOM     31  C   UNL     1      -6.808   4.090   4.572  0.00  0.00    -0.001 C 
ATOM     32  C   UNL     1      -6.765   4.830   5.921  0.00  0.00    +0.016 C 
ATOM     33  C   UNL     1      -8.014   4.278   6.641  0.00  0.00    +0.036 C 
ATOM     34  C   UNL     1      -8.958   3.859   5.533  0.00  0.00    -0.044 A 
ATOM     35  C   UNL     1      -8.261   3.749   4.342  0.00  0.00    -0.038 A 
ATOM     36  C   UNL     1      -8.927   3.372   3.188  0.00  0.00    +0.004 A 
ATOM     37  C   UNL     1     -10.282   3.108   3.221  0.00  0.00    +0.000 A 
ATOM     38  C   UNL     1     -10.978   3.220   4.410  0.00  0.00    +0.000 A 
ATOM     39  C   UNL     1     -10.316   3.595   5.563  0.00  0.00    +0.004 A 
ATOM     40  C   UNL     1      -5.971   2.816   4.650  0.00  0.00    +0.028 C 
ATOM     41  C   UNL     1      -4.512   3.182   4.944  0.00  0.00    +0.110 C 
ENDBRANCH  25  28
ENDBRANCH  24  25
ENDBRANCH   6  24
TORSDOF 8
