REMARK  Name = ZINC00485832
REMARK  2 active torsions:
REMARK  status: ('A' for Active; 'I' for Inactive)
REMARK    1  A    between atoms: C_4  and  N_7
REMARK    2  A    between atoms: C_15  and  C_21
REMARK                            x       y       z     vdW  Elec       q    Type
REMARK                         _______ _______ _______ _____ _____    ______ ____
ROOT
ATOM      1  N   UNL     1      -0.547   5.468   0.412  0.00  0.00    -0.268 N 
ATOM      2  C   UNL     1      -1.272   4.400  -0.318  0.00  0.00    +0.153 C 
ATOM      3  C   UNL     1      -0.485   3.161  -0.021  0.00  0.00    +0.116 C 
ATOM      4  C   UNL     1      -1.045   1.783  -0.038  0.00  0.00    +0.008 C 
ATOM      5  C   UNL     1       0.038   1.001   0.045  0.00  0.00    +0.004 C 
ATOM      6  C   UNL     1       1.265   1.919   0.035  0.00  0.00    +0.157 C 
ATOM      7  O   UNL     1       0.758   3.030  -0.789  0.00  0.00    -0.359 OA
ATOM      8  C   UNL     1       1.329   2.606   1.438  0.00  0.00    +0.150 C 
ATOM      9  C   UNL     1       0.044   3.454   1.431  0.00  0.00    +0.129 C 
ATOM     10  C   UNL     1       0.267   4.939   1.378  0.00  0.00    +0.227 C 
ATOM     11  O   UNL     1       1.045   5.558   2.074  0.00  0.00    -0.275 OA
ENDROOT
BRANCH   1  15
ATOM     12  C   UNL     1      -0.957   9.545  -0.344  0.00  0.00    +0.000 A 
ATOM     13  C   UNL     1      -0.098   9.110   0.648  0.00  0.00    +0.002 A 
ATOM     14  C   UNL     1       0.041   7.759   0.901  0.00  0.00    +0.023 A 
ATOM     15  C   UNL     1      -0.685   6.837   0.158  0.00  0.00    +0.036 A 
ATOM     16  C   UNL     1      -1.544   7.277  -0.841  0.00  0.00    +0.023 A 
ATOM     17  C   UNL     1      -1.681   8.629  -1.086  0.00  0.00    +0.002 A 
ENDBRANCH   1  15
BRANCH   8  18
ATOM     18  C   UNL     1       2.551   3.480   1.554  0.00  0.00    +0.363 C 
ATOM     19  O   UNL     1       3.020   3.998   0.569  0.00  0.00    -0.246 OA
ATOM     20  O   UNL     1       3.119   3.683   2.754  0.00  0.00    -0.246 OA
ENDBRANCH   8  18
TORSDOF 2
