REMARK  Name = ZINC43726300
REMARK  8 active torsions:
REMARK  status: ('A' for Active; 'I' for Inactive)
REMARK    1  A    between atoms: C_1  and  C_2
REMARK    2  A    between atoms: C_7  and  O_36
REMARK    3  A    between atoms: C_11  and  C_35
REMARK    4  A    between atoms: C_12  and  O_34
REMARK    5  A    between atoms: C_16  and  C_32
REMARK    6  A    between atoms: C_16  and  C_33
REMARK    7  A    between atoms: C_26  and  C_28
REMARK    8  A    between atoms: C_26  and  C_29
REMARK                            x       y       z     vdW  Elec       q    Type
REMARK                         _______ _______ _______ _____ _____    ______ ____
ROOT
ATOM      1  C   UNL     1      -0.224   1.611  -0.077  0.00  0.00    +0.016 C 
ATOM      2  C   UNL     1      -0.219   0.090  -0.137  0.00  0.00    +0.059 C 
ATOM      3  C   UNL     1       0.408  -0.449  -1.448  0.00  0.00    +0.031 C 
ATOM      4  C   UNL     1       1.556   0.314  -2.059  0.00  0.00    +0.038 C 
ATOM      5  C   UNL     1       2.653   0.742  -1.108  0.00  0.00    +0.120 C 
ATOM      6  C   UNL     1       2.638   0.051   0.215  0.00  0.00    +0.044 C 
ATOM      7  C   UNL     1       3.909  -0.035   1.068  0.00  0.00    +0.004 C 
ATOM      8  C   UNL     1       4.321   1.420   1.369  0.00  0.00    +0.121 C 
ATOM      9  C   UNL     1       5.445   1.469   2.399  0.00  0.00    +0.032 C 
ATOM     10  C   UNL     1       4.945   0.883   3.717  0.00  0.00    +0.009 C 
ATOM     11  C   UNL     1       4.535  -0.578   3.513  0.00  0.00    -0.031 C 
ATOM     12  C   UNL     1       3.535  -0.724   2.383  0.00  0.00    +0.006 C 
ATOM     13  C   UNL     1       3.150  -2.200   2.186  0.00  0.00    +0.037 C 
ATOM     14  C   UNL     1       2.568  -2.329   0.797  0.00  0.00    +0.138 C 
ATOM     15  C   UNL     1       1.733  -1.162   0.364  0.00  0.00    +0.087 C 
ATOM     16  C   UNL     1       0.980  -1.759  -0.863  0.00  0.00    +0.142 C 
ATOM     17  O   UNL     1       1.951  -2.493  -1.610  0.00  0.00    -0.345 OA
ATOM     18  C   UNL     1       2.040  -3.795  -0.958  0.00  0.00    +0.165 C 
ATOM     19  O   UNL     1       1.897  -3.558   0.473  0.00  0.00    -0.345 OA
ATOM     20  C   UNL     1       0.907  -4.698  -1.452  0.00  0.00    +0.074 C 
ATOM     21  C   UNL     1       3.381  -4.461  -1.266  0.00  0.00    +0.074 C 
ATOM     22  C   UNL     1       0.547  -0.542   1.045  0.00  0.00    +0.148 C 
ATOM     23  O   UNL     1       0.264  -0.545   2.223  0.00  0.00    -0.296 OA
ATOM     24  C   UNL     1       5.785  -1.434   3.325  0.00  0.00    +0.011 C 
ATOM     25  C   UNL     1       3.851  -1.039   4.819  0.00  0.00    +0.011 C 
ATOM     26  C   UNL     1       5.071  -0.703   0.348  0.00  0.00    +0.014 C 
ENDROOT
BRANCH   8  27
ATOM     27  O   UNL     1       4.768   2.043   0.164  0.00  0.00    -0.391 OA
ATOM     28  H   UNL     1       5.044   2.963   0.275  0.00  0.00    +0.210 HD
ENDBRANCH   8  27
BRANCH   5  29
ATOM     29  O   UNL     1       3.887   0.529  -1.792  0.00  0.00    -0.391 OA
ATOM     30  H   UNL     1       3.973   1.031  -2.614  0.00  0.00    +0.210 HD
ENDBRANCH   5  29
TORSDOF 2
