REMARK  Name = ZINC59019311
REMARK  12 active torsions:
REMARK  status: ('A' for Active; 'I' for Inactive)
REMARK    1  A    between atoms: C_1  and  C_2
REMARK    2  A    between atoms: C_2  and  N_3
REMARK    3  A    between atoms: N_3  and  C_4
REMARK    4  A    between atoms: C_4  and  C_5
REMARK    5  A    between atoms: C_6  and  C_8
REMARK    6  A    between atoms: C_8  and  S_9
REMARK    7  A    between atoms: S_9  and  C_10
REMARK    8  A    between atoms: N_15  and  N_16
REMARK    9  A    between atoms: C_17  and  C_18
REMARK   10  A    between atoms: C_23  and  O_24
REMARK   11  A    between atoms: O_24  and  C_25
REMARK   12  A    between atoms: C_25  and  C_26
REMARK                            x       y       z     vdW  Elec       q    Type
REMARK                         _______ _______ _______ _____ _____    ______ ____
ROOT
ATOM      1  C   UNL     1      -5.605  -2.097   2.754  0.00  0.00    +0.211 A 
ATOM      2  N   UNL     1      -6.420  -2.401   3.769  0.00  0.00    -0.186 NA
ATOM      3  C   UNL     1      -7.575  -2.825   3.299  0.00  0.00    +0.232 A 
ATOM      4  N   UNL     1      -7.511  -2.796   1.951  0.00  0.00    -0.245 N 
ATOM      5  N   UNL     1      -6.232  -2.318   1.623  0.00  0.00    -0.144 NA
ATOM      6  N   UNL     1      -8.661  -3.228   4.053  0.00  0.00    -0.205 N 
ATOM      7  H   UNL     1      -9.473  -3.526   3.614  0.00  0.00    +0.177 HD
ATOM      8  H   UNL     1      -8.212  -3.052   1.331  0.00  0.00    +0.192 HD
ENDROOT
BRANCH   6   9
ATOM      9  N   UNL     1      -8.589  -3.207   5.452  0.00  0.00    -0.187 NA
ATOM     10  C   UNL     1      -9.609  -3.585   6.161  0.00  0.00    +0.142 C 
BRANCH  10  11
ATOM     11  C   UNL     1      -9.534  -3.563   7.632  0.00  0.00    +0.036 A 
ATOM     12  C   UNL     1     -10.627  -3.975   8.398  0.00  0.00    +0.013 A 
ATOM     13  C   UNL     1     -10.550  -3.951   9.775  0.00  0.00    +0.001 A 
ATOM     14  C   UNL     1      -9.393  -3.521  10.402  0.00  0.00    +0.004 A 
ATOM     15  C   UNL     1      -8.304  -3.111   9.655  0.00  0.00    +0.046 A 
ATOM     16  C   UNL     1      -8.363  -3.133   8.271  0.00  0.00    +0.130 A 
BRANCH  16  17
ATOM     17  O   UNL     1      -7.292  -2.736   7.537  0.00  0.00    -0.487 OA
BRANCH  17  18
ATOM     18  C   UNL     1      -6.133  -2.311   8.257  0.00  0.00    +0.264 C 
BRANCH  18  19
ATOM     19  C   UNL     1      -5.055  -1.910   7.283  0.00  0.00    -0.009 A 
ATOM     20  C   UNL     1      -4.150  -2.851   6.828  0.00  0.00    +0.007 A 
ATOM     21  C   UNL     1      -3.161  -2.483   5.934  0.00  0.00    +0.001 A 
ATOM     22  C   UNL     1      -3.077  -1.175   5.496  0.00  0.00    +0.015 A 
ATOM     23  C   UNL     1      -3.982  -0.234   5.950  0.00  0.00    +0.018 A 
ATOM     24  C   UNL     1      -4.975  -0.603   6.840  0.00  0.00    +0.022 A 
ATOM     25 BR   UNL     1      -3.867   1.556   5.351  0.00  0.00    -0.050 Br
ENDBRANCH  18  19
ENDBRANCH  17  18
ENDBRANCH  16  17
ENDBRANCH  10  11
ENDBRANCH   6   9
BRANCH   1  26
ATOM     26  S   UNL     1      -3.958  -1.491   2.909  0.00  0.00    -0.075 S 
BRANCH  26  27
ATOM     27  C   UNL     1      -3.407  -1.272   1.195  0.00  0.00    +0.173 C 
BRANCH  27  29
ATOM     28  N   UNL     1      -1.372  -0.511   0.012  0.00  0.00    -0.301 N 
ATOM     29  C   UNL     1      -1.993  -0.751   1.184  0.00  0.00    +0.226 C 
ATOM     30  O   UNL     1      -1.415  -0.546   2.230  0.00  0.00    -0.275 OA
BRANCH  28  32
ATOM     31  C   UNL     1      -0.019   1.526   0.010  0.00  0.00    +0.024 C 
ATOM     32  C   UNL     1       0.002  -0.004   0.002  0.00  0.00    +0.104 C 
ENDBRANCH  28  32
BRANCH  28  33
ATOM     33  C   UNL     1      -2.072  -0.758  -1.251  0.00  0.00    +0.104 C 
ATOM     34  C   UNL     1      -1.816  -2.197  -1.703  0.00  0.00    +0.024 C 
ENDBRANCH  28  33
ENDBRANCH  27  29
ENDBRANCH  26  27
ENDBRANCH   1  26
TORSDOF 10
