REMARK  Name = ZINC38745455
REMARK  6 active torsions:
REMARK  status: ('A' for Active; 'I' for Inactive)
REMARK    1  A    between atoms: C_8  and  C_12
REMARK    2  A    between atoms: N_14  and  C_15
REMARK    3  A    between atoms: C_17  and  C_30
REMARK    4  A    between atoms: C_18  and  S_21
REMARK    5  A    between atoms: S_21  and  C_22
REMARK    6  A    between atoms: C_22  and  C_23
REMARK                            x       y       z     vdW  Elec       q    Type
REMARK                         _______ _______ _______ _____ _____    ______ ____
ROOT
ATOM      1  C   UNL     1       3.951  -6.210   0.525  0.00  0.00    +0.258 C 
ATOM      2  C   UNL     1       4.867  -6.643   1.656  0.00  0.00    +0.106 C 
ATOM      3  C   UNL     1       5.894  -7.278   1.014  0.00  0.00    +0.136 C 
ATOM      4  N   UNL     1       5.684  -7.262  -0.326  0.00  0.00    -0.144 NA
ATOM      5  N   UNL     1       4.642  -6.699  -0.679  0.00  0.00    -0.158 NA
ENDROOT
BRANCH   1   8
ATOM      6  C   UNL     1       2.620  -4.182   0.288  0.00  0.00    +0.253 C 
ATOM      7  O   UNL     1       1.637  -4.881   0.132  0.00  0.00    -0.270 OA
ATOM      8  N   UNL     1       3.825  -4.750   0.492  0.00  0.00    -0.284 N 
ATOM      9  H   UNL     1       4.609  -4.193   0.617  0.00  0.00    +0.151 HD
BRANCH   6  17
ATOM     10  C   UNL     1      -0.016   1.361   0.009  0.00  0.00    +0.001 A 
ATOM     11  C   UNL     1       1.169   2.083   0.002  0.00  0.00    +0.004 A 
ATOM     12  C   UNL     1       2.386   1.435  -0.026  0.00  0.00    +0.047 A 
ATOM     13  C   UNL     1       2.430   0.048  -0.040  0.00  0.00    +0.139 A 
ATOM     14  C   UNL     1       1.229  -0.684  -0.003  0.00  0.00    +0.018 A 
ATOM     15  C   UNL     1       0.002  -0.004   0.002  0.00  0.00    +0.011 A 
ATOM     16  C   UNL     1       1.266  -2.102   0.048  0.00  0.00    +0.031 A 
ATOM     17  C   UNL     1       2.494  -2.716   0.256  0.00  0.00    +0.122 A 
ATOM     18  C   UNL     1       3.666  -1.841   0.442  0.00  0.00    +0.350 A 
ATOM     19  O   UNL     1       4.642  -2.222   1.060  0.00  0.00    -0.244 OA
ATOM     20  O   UNL     1       3.619  -0.600  -0.096  0.00  0.00    -0.422 OA
ENDBRANCH   6  17
ENDBRANCH   1   8
BRANCH   2  21
ATOM     21  C   UNL     1       4.695  -6.437   3.063  0.00  0.00    +0.101 C 
ATOM     22  N   UNL     1       4.559  -6.272   4.179  0.00  0.00    -0.191 NA
ENDBRANCH   2  21
BRANCH   3  23
ATOM     23  S   UNL     1       7.286  -8.008   1.810  0.00  0.00    -0.098 S 
BRANCH  23  24
ATOM     24  C   UNL     1       8.273  -8.676   0.443  0.00  0.00    +0.112 C 
BRANCH  24  25
ATOM     25  C   UNL     1       9.510  -9.338   0.993  0.00  0.00    -0.019 A 
ATOM     26  C   UNL     1      10.667  -8.602   1.169  0.00  0.00    +0.006 A 
ATOM     27  C   UNL     1      11.802  -9.208   1.674  0.00  0.00    +0.000 A 
ATOM     28  C   UNL     1      11.781 -10.551   2.002  0.00  0.00    +0.001 A 
ATOM     29  C   UNL     1      10.625 -11.288   1.825  0.00  0.00    +0.020 A 
ATOM     30  C   UNL     1       9.487 -10.680   1.326  0.00  0.00    +0.045 A 
ATOM     31 CL   UNL     1       8.033 -11.604   1.110  0.00  0.00    -0.083 Cl
ENDBRANCH  24  25
ENDBRANCH  23  24
ENDBRANCH   3  23
TORSDOF 6
