REMARK  Name = ZINC15080896
REMARK  2 active torsions:
REMARK  status: ('A' for Active; 'I' for Inactive)
REMARK    1  A    between atoms: C_4  and  N_7
REMARK    2  A    between atoms: N_17  and  C_22
REMARK                            x       y       z     vdW  Elec       q    Type
REMARK                         _______ _______ _______ _____ _____    ______ ____
ROOT
ATOM      1  N   UNL     1       2.955   2.813  -1.362  0.00  0.00    -0.268 NA
ATOM      2  C   UNL     1       1.837   3.132  -0.456  0.00  0.00    +0.200 C 
ATOM      3  N   UNL     1       1.228   1.886   0.001  0.00  0.00    -0.250 N 
ATOM      4  C   UNL     1       2.078   0.786   0.487  0.00  0.00    +0.210 C 
ATOM      5  C   UNL     1       1.325  -0.355  -0.303  0.00  0.00    +0.205 C 
ATOM      6  N   UNL     1       0.002  -0.004   0.002  0.00  0.00    -0.277 N 
ATOM      7  C   UNL     1      -0.017   1.382   0.010  0.00  0.00    +0.306 C 
ATOM      8  O   UNL     1      -1.030   2.054   0.018  0.00  0.00    -0.253 OA
ATOM      9  N   UNL     1       2.334  -1.333  -0.268  0.00  0.00    -0.260 N 
ATOM     10  C   UNL     1       3.513  -0.626  -0.467  0.00  0.00    +0.309 C 
ATOM     11  O   UNL     1       4.580  -1.133  -0.754  0.00  0.00    -0.252 OA
ATOM     12  N   UNL     1       3.318   0.697  -0.301  0.00  0.00    -0.250 N 
ATOM     13  C   UNL     1       3.967   1.897  -0.813  0.00  0.00    +0.200 C 
ATOM     14  H   UNL     1      -0.750  -0.789   0.173  0.00  0.00    +0.152 HD
ENDROOT
BRANCH   1  18
ATOM     15  C   UNL     1       3.709   6.960  -2.045  0.00  0.00    +0.000 C 
ATOM     16  C   UNL     1       3.196   6.115  -3.213  0.00  0.00    +0.002 C 
ATOM     17  C   UNL     1       2.546   4.840  -2.674  0.00  0.00    +0.019 C 
ATOM     18  C   UNL     1       3.579   4.038  -1.880  0.00  0.00    +0.060 C 
ATOM     19  C   UNL     1       4.093   4.882  -0.712  0.00  0.00    +0.019 C 
ATOM     20  C   UNL     1       4.742   6.157  -1.251  0.00  0.00    +0.002 C 
ENDBRANCH   1  18
BRANCH   9  21
ATOM     21  C   UNL     1       2.178  -2.776  -0.067  0.00  0.00    +0.079 C 
ATOM     22  C   UNL     1       2.951  -3.203   1.183  0.00  0.00    +0.022 C 
ATOM     23  C   UNL     1       2.788  -4.710   1.393  0.00  0.00    +0.002 C 
ATOM     24  C   UNL     1       3.335  -5.457   0.175  0.00  0.00    +0.000 C 
ATOM     25  C   UNL     1       2.562  -5.030  -1.074  0.00  0.00    +0.002 C 
ATOM     26  C   UNL     1       2.725  -3.523  -1.285  0.00  0.00    +0.022 C 
ENDBRANCH   9  21
TORSDOF 2
