REMARK  Name = ZINC39681350
REMARK  11 active torsions:
REMARK  status: ('A' for Active; 'I' for Inactive)
REMARK    1  A    between atoms: C_1  and  C_2
REMARK    2  A    between atoms: C_4  and  C_11
REMARK    3  A    between atoms: N_5  and  C_7
REMARK    4  A    between atoms: C_7  and  C_8
REMARK    5  A    between atoms: C_7  and  C_9
REMARK    6  A    between atoms: C_7  and  C_10
REMARK    7  A    between atoms: C_15  and  C_24
REMARK    8  A    between atoms: N_26  and  C_27
REMARK    9  A    between atoms: C_27  and  C_28
REMARK   10  A    between atoms: C_28  and  O_29
REMARK   11  A    between atoms: O_29  and  C_30
REMARK                            x       y       z     vdW  Elec       q    Type
REMARK                         _______ _______ _______ _____ _____    ______ ____
ROOT
ATOM      1  C   UNL     1      -0.357  -2.721  -2.200  0.00  0.00    +0.265 C 
ATOM      2  O   UNL     1      -0.709  -2.759  -3.364  0.00  0.00    -0.268 OA
ATOM      3  N   UNL     1      -0.083  -3.864  -1.542  0.00  0.00    -0.295 N 
ATOM      4  C   UNL     1       0.226  -4.031  -0.102  0.00  0.00    +0.121 C 
ATOM      5  C   UNL     1      -0.503  -5.331   0.306  0.00  0.00    +0.100 C 
ATOM      6  C   UNL     1      -0.661  -6.120  -1.005  0.00  0.00    -0.004 C 
ATOM      7  C   UNL     1      -0.028  -5.239  -2.093  0.00  0.00    +0.115 C 
ATOM      8  C   UNL     1       0.072  -7.454  -0.911  0.00  0.00    -0.010 C 
ATOM      9  C   UNL     1      -0.149  -8.245  -2.203  0.00  0.00    -0.082 C 
ATOM     10  N   UNL     1      -1.586  -8.466  -2.405  0.00  0.00    +0.379 N 
ATOM     11  C   UNL     1      -2.270  -7.181  -2.587  0.00  0.00    -0.082 C 
ATOM     12  C   UNL     1      -2.139  -6.345  -1.311  0.00  0.00    -0.010 C 
ATOM     13  H   UNL     1      -1.725  -9.039  -3.224  0.00  0.00    -0.086 HD
ATOM     14  H   UNL     1      -1.968  -8.938  -1.599  0.00  0.00    -0.086 HD
ENDROOT
BRANCH   1  18
ATOM     15  C   UNL     1       0.639   0.923   1.184  0.00  0.00    +0.067 C 
ATOM     16  C   UNL     1       0.197   0.174  -0.047  0.00  0.00    +0.061 A 
ATOM     17  C   UNL     1       0.297  -1.204  -0.252  0.00  0.00    +0.057 A 
ATOM     18  C   UNL     1      -0.232  -1.426  -1.511  0.00  0.00    +0.124 A 
ATOM     19  N   UNL     1      -0.612  -0.204  -1.988  0.00  0.00    -0.254 N 
ATOM     20  N   UNL     1      -0.354   0.700  -1.112  0.00  0.00    -0.175 NA
BRANCH  19  21
ATOM     21  C   UNL     1      -1.226   0.039  -3.295  0.00  0.00    +0.056 C 
ATOM     22  C   UNL     1      -2.470  -0.839  -3.445  0.00  0.00    +0.036 C 
ATOM     23  C   UNL     1      -1.625   1.512  -3.405  0.00  0.00    +0.036 C 
ATOM     24  C   UNL     1      -0.225  -0.302  -4.400  0.00  0.00    +0.036 C 
ENDBRANCH  19  21
ENDBRANCH   1  18
BRANCH   5  25
ATOM     25  C   UNL     1      -1.853  -5.012   0.895  0.00  0.00    +0.218 C 
ATOM     26  O   UNL     1      -2.469  -4.040   0.510  0.00  0.00    -0.275 OA
ATOM     27  N   UNL     1      -2.376  -5.806   1.850  0.00  0.00    -0.312 N 
ATOM     28  H   UNL     1      -1.852  -6.537   2.213  0.00  0.00    +0.149 HD
BRANCH  27  29
ATOM     29  C   UNL     1      -3.736  -5.567   2.338  0.00  0.00    +0.145 C 
BRANCH  29  30
ATOM     30  C   UNL     1      -4.039  -6.522   3.494  0.00  0.00    +0.248 C 
BRANCH  30  31
ATOM     31  O   UNL     1      -3.169  -6.234   4.590  0.00  0.00    -0.489 OA
BRANCH  31  32
ATOM     32  C   UNL     1      -3.241  -7.058   5.669  0.00  0.00    +0.139 A 
ATOM     33  C   UNL     1      -4.199  -8.061   5.714  0.00  0.00    +0.047 A 
ATOM     34  C   UNL     1      -4.270  -8.898   6.810  0.00  0.00    +0.004 A 
ATOM     35  C   UNL     1      -3.388  -8.738   7.863  0.00  0.00    +0.002 A 
ATOM     36  C   UNL     1      -2.433  -7.739   7.822  0.00  0.00    +0.023 A 
ATOM     37  C   UNL     1      -2.353  -6.902   6.724  0.00  0.00    +0.083 A 
ATOM     38 CL   UNL     1      -1.149  -5.653   6.669  0.00  0.00    -0.080 Cl
ENDBRANCH  31  32
ENDBRANCH  30  31
ENDBRANCH  29  30
ENDBRANCH  27  29
ENDBRANCH   5  25
TORSDOF 7
