REMARK  Name = ZINC21076993
REMARK  13 active torsions:
REMARK  status: ('A' for Active; 'I' for Inactive)
REMARK    1  A    between atoms: C_1  and  C_2
REMARK    2  A    between atoms: C_2  and  N_3
REMARK    3  A    between atoms: N_3  and  S_4
REMARK    4  A    between atoms: S_4  and  C_7
REMARK    5  A    between atoms: C_10  and  N_13
REMARK    6  A    between atoms: C_14  and  C_16
REMARK    7  A    between atoms: C_16  and  S_17
REMARK    8  A    between atoms: S_17  and  C_18
REMARK    9  A    between atoms: N_23  and  N_24
REMARK   10  A    between atoms: C_25  and  C_26
REMARK   11  A    between atoms: C_29  and  O_32
REMARK   12  A    between atoms: O_32  and  C_33
REMARK   13  A    between atoms: C_33  and  C_34
REMARK                            x       y       z     vdW  Elec       q    Type
REMARK                         _______ _______ _______ _____ _____    ______ ____
ROOT
ATOM      1  S   UNL     1      -2.929   6.204   7.274  0.00  0.00    -0.075 S 
ENDROOT
BRANCH   1   2
ATOM      2  C   UNL     1      -3.826   6.481   8.766  0.00  0.00    +0.211 A 
ATOM      3  N   UNL     1      -3.733   7.584   9.565  0.00  0.00    -0.186 NA
ATOM      4  C   UNL     1      -4.587   7.415  10.620  0.00  0.00    +0.232 A 
ATOM      5  N   UNL     1      -5.181   6.255  10.478  0.00  0.00    -0.245 N 
ATOM      6  N   UNL     1      -4.704   5.666   9.300  0.00  0.00    -0.144 NA
ATOM      7  N   UNL     1      -4.788   8.313  11.658  0.00  0.00    -0.205 N 
ATOM      8  H   UNL     1      -4.234   9.263  11.679  0.00  0.00    +0.177 HD
ATOM      9  H   UNL     1      -5.912   5.917  11.226  0.00  0.00    +0.192 HD
BRANCH   7  10
ATOM     10  N   UNL     1      -5.698   8.010  12.680  0.00  0.00    -0.188 NA
ATOM     11  C   UNL     1      -5.887   8.850  13.651  0.00  0.00    +0.138 C 
BRANCH  11  12
ATOM     12  C   UNL     1      -6.844   8.531  14.726  0.00  0.00    -0.005 A 
ATOM     13  C   UNL     1      -7.554   7.328  14.698  0.00  0.00    +0.013 A 
ATOM     14  C   UNL     1      -8.445   7.032  15.707  0.00  0.00    +0.046 A 
ATOM     15  C   UNL     1      -8.645   7.933  16.746  0.00  0.00    +0.121 A 
ATOM     16  C   UNL     1      -7.945   9.132  16.775  0.00  0.00    +0.046 A 
ATOM     17  C   UNL     1      -7.049   9.434  15.773  0.00  0.00    +0.013 A 
BRANCH  15  18
ATOM     18  O   UNL     1      -9.528   7.639  17.736  0.00  0.00    -0.492 OA
BRANCH  18  19
ATOM     19  C   UNL     1     -10.213   6.388  17.644  0.00  0.00    +0.225 C 
ATOM     20  C   UNL     1     -11.157   6.236  18.839  0.00  0.00    +0.048 C 
ENDBRANCH  18  19
ENDBRANCH  15  18
ENDBRANCH  11  12
ENDBRANCH   7  10
ENDBRANCH   1   2
BRANCH   1  21
ATOM     21  C   UNL     1      -3.504   4.578   6.712  0.00  0.00    +0.173 C 
BRANCH  21  23
ATOM     22  N   UNL     1      -3.077   3.043   4.819  0.00  0.00    -0.285 N 
ATOM     23  C   UNL     1      -2.806   4.216   5.426  0.00  0.00    +0.227 C 
ATOM     24  O   UNL     1      -2.000   4.979   4.938  0.00  0.00    -0.275 OA
ATOM     25  H   UNL     1      -3.870   2.390   5.214  0.00  0.00    +0.155 HD
BRANCH  22  29
ATOM     26  C   UNL     1      -0.914   1.891   1.451  0.00  0.00    +0.105 A 
ATOM     27  C   UNL     1      -2.247   1.541   1.568  0.00  0.00    +0.030 A 
ATOM     28  C   UNL     1      -2.965   1.917   2.686  0.00  0.00    +0.025 A 
ATOM     29  C   UNL     1      -2.351   2.656   3.688  0.00  0.00    +0.034 A 
ATOM     30  C   UNL     1      -1.014   3.011   3.565  0.00  0.00    +0.025 A 
ATOM     31  C   UNL     1      -0.299   2.627   2.447  0.00  0.00    +0.030 A 
BRANCH  26  32
ATOM     32  S   UNL     1       0.001   1.403   0.026  0.00  0.00    +0.058 S 
ATOM     33  O   UNL     1       1.076   2.324  -0.101  0.00  0.00    -0.153 OA
ATOM     34  O   UNL     1      -0.946   1.190  -1.011  0.00  0.00    -0.153 OA
BRANCH  32  35
ATOM     35  N   UNL     1       0.678  -0.071   0.360  0.00  0.00    -0.190 NA
ATOM     36  H   UNL     1       1.754  -0.131   0.580  0.00  0.00    +0.148 HD
BRANCH  35  38
ATOM     37  C   UNL     1       0.663  -2.513   0.490  0.00  0.00    +0.022 C 
ATOM     38  C   UNL     1      -0.180  -1.239   0.574  0.00  0.00    +0.102 C 
ENDBRANCH  35  38
ENDBRANCH  32  35
ENDBRANCH  26  32
ENDBRANCH  22  29
ENDBRANCH  21  23
ENDBRANCH   1  21
TORSDOF 11
