REMARK  Name = ZINC19293007
REMARK  3 active torsions:
REMARK  status: ('A' for Active; 'I' for Inactive)
REMARK    1  A    between atoms: C_6  and  C_7
REMARK    2  A    between atoms: C_7  and  C_8
REMARK    3  A    between atoms: C_14  and  C_16
REMARK                            x       y       z     vdW  Elec       q    Type
REMARK                         _______ _______ _______ _____ _____    ______ ____
ROOT
ATOM      1  C   UNL     1      -1.758  -1.041  -1.398  0.00  0.00    +0.015 A 
ATOM      2  C   UNL     1      -1.474  -2.077  -2.225  0.00  0.00    +0.124 A 
ATOM      3  N   UNL     1      -1.998  -2.038  -3.437  0.00  0.00    -0.233 NA
ATOM      4  C   UNL     1      -2.760  -1.036  -3.816  0.00  0.00    +0.165 A 
ATOM      5  S   UNL     1      -2.803  -0.049  -2.453  0.00  0.00    -0.057 S 
ATOM      6  N   UNL     1      -3.384  -0.842  -5.042  0.00  0.00    -0.261 N 
ATOM      7  C   UNL     1      -3.239  -1.754  -6.024  0.00  0.00    +0.255 C 
ATOM      8  O   UNL     1      -2.488  -2.698  -5.870  0.00  0.00    -0.270 OA
ATOM      9  H   UNL     1      -3.924  -0.050  -5.191  0.00  0.00    +0.157 HD
ENDROOT
BRANCH   7  10
ATOM     10  C   UNL     1      -3.989  -1.607  -7.280  0.00  0.00    +0.101 A 
ATOM     11  C   UNL     1      -3.941  -2.598  -8.256  0.00  0.00    +0.023 A 
ATOM     12  C   UNL     1      -4.665  -2.429  -9.439  0.00  0.00    -0.027 A 
ATOM     13  C   UNL     1      -5.407  -1.307  -9.630  0.00  0.00    +0.022 A 
ATOM     14  N   UNL     1      -5.455  -0.338  -8.677  0.00  0.00    -0.325 N 
ATOM     15  H   UNL     1      -5.992   0.455  -8.835  0.00  0.00    +0.169 HD
ATOM     16  C   UNL     1      -4.781  -0.454  -7.520  0.00  0.00    +0.261 A 
ATOM     17  O   UNL     1      -4.846   0.429  -6.683  0.00  0.00    -0.267 OA
ATOM     18  C   UNL     1      -6.092  -1.362 -10.981  0.00  0.00    +0.054 C 
ATOM     19  C   UNL     1      -5.334  -2.449 -11.772  0.00  0.00    +0.011 C 
ATOM     20  C   UNL     1      -4.781  -3.343 -10.642  0.00  0.00    +0.037 C 
ENDBRANCH   7  10
BRANCH   1  21
ATOM     21  C   UNL     1      -1.319  -0.797   0.022  0.00  0.00    +0.079 C 
BRANCH  21  27
ATOM     22  C   UNL     1      -0.059   1.365   0.038  0.00  0.00    +0.005 A 
ATOM     23  C   UNL     1       1.123   2.083   0.039  0.00  0.00    +0.022 A 
ATOM     24  C   UNL     1       2.336   1.417   0.024  0.00  0.00    +0.059 A 
ATOM     25  C   UNL     1       2.365   0.033   0.008  0.00  0.00    +0.060 A 
ATOM     26  C   UNL     1       1.181  -0.683   0.007  0.00  0.00    +0.025 A 
ATOM     27  C   UNL     1      -0.030  -0.016   0.022  0.00  0.00    -0.041 A 
ATOM     28 CL   UNL     1       3.886  -0.803  -0.012  0.00  0.00    -0.082 Cl
ATOM     29 CL   UNL     1       3.820   2.318   0.023  0.00  0.00    -0.082 Cl
ENDBRANCH  21  27
ENDBRANCH   1  21
TORSDOF 3
