REMARK  Name = ZINC06134283
REMARK  12 active torsions:
REMARK  status: ('A' for Active; 'I' for Inactive)
REMARK    1  A    between atoms: C_1  and  C_2
REMARK    2  A    between atoms: C_2  and  C_3
REMARK    3  A    between atoms: C_2  and  C_4
REMARK    4  A    between atoms: C_4  and  C_5
REMARK    5  A    between atoms: C_5  and  N_6
REMARK    6  A    between atoms: C_7  and  C_9
REMARK    7  A    between atoms: C_9  and  C_11
REMARK    8  A    between atoms: C_9  and  N_16
REMARK    9  A    between atoms: N_16  and  C_17
REMARK   10  A    between atoms: C_25  and  C_27
REMARK   11  A    between atoms: C_28  and  N_35
REMARK   12  A    between atoms: C_29  and  C_32
REMARK                            x       y       z     vdW  Elec       q    Type
REMARK                         _______ _______ _______ _____ _____    ______ ____
ROOT
ATOM      1  N   UNL     1      -2.389   3.688   0.318  0.00  0.00    -0.248 N 
ATOM      2  C   UNL     1      -2.385   5.011   0.059  0.00  0.00    +0.262 C 
ATOM      3  O   UNL     1      -3.422   5.577  -0.232  0.00  0.00    -0.269 OA
ENDROOT
BRANCH   1   4
ATOM      4  C   UNL     1      -1.218   3.056   0.751  0.00  0.00    +0.039 A 
ATOM      5  C   UNL     1      -0.319   2.546  -0.177  0.00  0.00    +0.026 A 
ATOM      6  C   UNL     1       0.833   1.917   0.252  0.00  0.00    +0.041 A 
ATOM      7  C   UNL     1       1.099   1.805   1.606  0.00  0.00    +0.142 A 
ATOM      8  C   UNL     1       0.207   2.318   2.534  0.00  0.00    +0.078 A 
ATOM      9  C   UNL     1      -0.950   2.943   2.108  0.00  0.00    +0.046 A 
ATOM     10 CL   UNL     1       0.543   2.176   4.231  0.00  0.00    -0.081 Cl
ATOM     11  F   UNL     1       2.230   1.195   2.023  0.00  0.00    -0.204 F 
ENDBRANCH   1   4
BRANCH   2  12
ATOM     12  C   UNL     1      -1.133   5.766   0.128  0.00  0.00    +0.116 A 
ATOM     13  C   UNL     1      -0.907   7.126  -0.091  0.00  0.00    +0.076 A 
ATOM     14  C   UNL     1       0.433   7.478   0.073  0.00  0.00    +0.155 A 
ATOM     15  N   UNL     1       1.308   6.549   0.389  0.00  0.00    -0.203 NA
ATOM     16  S   UNL     1       0.511   5.195   0.506  0.00  0.00    +0.019 S 
BRANCH  14  17
ATOM     17  C   UNL     1       0.864   8.876  -0.113  0.00  0.00    +0.262 C 
ATOM     18  O   UNL     1       0.050   9.730  -0.406  0.00  0.00    -0.269 OA
ATOM     19  N   UNL     1       2.162   9.207   0.042  0.00  0.00    -0.324 N 
ATOM     20  H   UNL     1       2.812   8.526   0.275  0.00  0.00    +0.145 HD
ATOM     21  H   UNL     1       2.446  10.126  -0.081  0.00  0.00    +0.145 HD
ENDBRANCH  14  17
BRANCH  13  22
ATOM     22  N   UNL     1      -1.905   8.029  -0.431  0.00  0.00    -0.355 N 
ATOM     23  H   UNL     1      -2.821   7.725  -0.528  0.00  0.00    +0.142 HD
ATOM     24  H   UNL     1      -1.687   8.964  -0.571  0.00  0.00    +0.142 HD
ENDBRANCH  13  22
ENDBRANCH   2  12
BRANCH   1  25
ATOM     25  C   UNL     1      -3.620   2.912   0.146  0.00  0.00    +0.233 C 
BRANCH  25  26
ATOM     26  C   UNL     1      -3.912   2.147   1.411  0.00  0.00    +0.135 A 
ATOM     27  C   UNL     1      -5.127   1.970   1.960  0.00  0.00    +0.047 A 
ATOM     28  C   UNL     1      -4.940   1.198   3.130  0.00  0.00    +0.041 A 
ATOM     29  C   UNL     1      -3.621   0.950   3.226  0.00  0.00    +0.195 A 
ATOM     30  O   UNL     1      -3.004   1.522   2.179  0.00  0.00    -0.465 OA
ENDBRANCH  25  26
BRANCH  25  32
ATOM     31  N   UNL     1      -4.446   1.097  -1.318  0.00  0.00    -0.313 N 
ATOM     32  C   UNL     1      -3.448   1.945  -0.997  0.00  0.00    +0.242 C 
ATOM     33  O   UNL     1      -2.412   1.929  -1.628  0.00  0.00    -0.273 OA
ATOM     34  H   UNL     1      -5.274   1.109  -0.814  0.00  0.00    +0.149 HD
BRANCH  31  35
ATOM     35  C   UNL     1      -4.279   0.157  -2.429  0.00  0.00    +0.104 C 
BRANCH  35  36
ATOM     36  C   UNL     1      -5.548  -0.683  -2.581  0.00  0.00    +0.022 C 
BRANCH  36  38
ATOM     37  C   UNL     1      -6.591  -2.589  -3.816  0.00  0.00    +0.007 C 
ATOM     38  C   UNL     1      -5.374  -1.665  -3.742  0.00  0.00    -0.016 C 
ATOM     39  C   UNL     1      -5.244  -0.887  -5.053  0.00  0.00    +0.007 C 
ENDBRANCH  36  38
ENDBRANCH  35  36
ENDBRANCH  31  35
ENDBRANCH  25  32
ENDBRANCH   1  25
TORSDOF 10
