REMARK  Name = ZINC33139365
REMARK  9 active torsions:
REMARK  status: ('A' for Active; 'I' for Inactive)
REMARK    1  A    between atoms: C_1  and  C_2
REMARK    2  A    between atoms: C_2  and  C_3
REMARK    3  A    between atoms: C_6  and  N_9
REMARK    4  A    between atoms: C_10  and  C_18
REMARK    5  A    between atoms: C_18  and  N_19
REMARK    6  A    between atoms: N_22  and  S_25
REMARK    7  A    between atoms: S_25  and  C_28
REMARK    8  A    between atoms: C_31  and  C_34
REMARK    9  A    between atoms: C_34  and  C_35
REMARK                            x       y       z     vdW  Elec       q    Type
REMARK                         _______ _______ _______ _____ _____    ______ ____
ROOT
ATOM      1  N   UNL     1       1.259   1.782  -0.000  0.00  0.00    -0.281 N 
ATOM      2  C   UNL     1      -0.016   1.297   0.009  0.00  0.00    +0.108 A 
ATOM      3  N   UNL     1       0.002  -0.004   0.002  0.00  0.00    -0.341 N 
ATOM      4  C   UNL     1       1.287  -0.441  -0.013  0.00  0.00    +0.084 A 
ATOM      5  C   UNL     1       2.113   0.698  -0.014  0.00  0.00    +0.163 A 
ATOM      6  N   UNL     1       3.429   0.569  -0.028  0.00  0.00    -0.236 NA
ATOM      7  C   UNL     1       4.007  -0.615  -0.040  0.00  0.00    +0.113 A 
ATOM      8  C   UNL     1       3.259  -1.782  -0.039  0.00  0.00    +0.022 A 
ATOM      9  C   UNL     1       1.879  -1.707  -0.025  0.00  0.00    +0.031 A 
ATOM     10  H   UNL     1      -0.943  -0.567   0.008  0.00  0.00    +0.167 HD
ENDROOT
BRANCH   1  14
ATOM     11  C   UNL     1       2.371   5.799   0.009  0.00  0.00    -0.047 A 
ATOM     12  C   UNL     1       2.685   4.994   1.088  0.00  0.00    +0.005 A 
ATOM     13  C   UNL     1       2.317   3.662   1.088  0.00  0.00    +0.026 A 
ATOM     14  C   UNL     1       1.632   3.133   0.003  0.00  0.00    +0.050 A 
ATOM     15  C   UNL     1       1.323   3.943  -1.082  0.00  0.00    +0.026 A 
ATOM     16  C   UNL     1       1.688   5.275  -1.073  0.00  0.00    +0.005 A 
BRANCH  11  18
ATOM     17  C   UNL     1       4.164   7.397  -0.610  0.00  0.00    +0.009 C 
ATOM     18  C   UNL     1       2.773   7.252   0.012  0.00  0.00    +0.032 C 
ENDBRANCH  11  18
ENDBRANCH   1  14
BRANCH   2  19
ATOM     19  C   UNL     1      -1.262   2.144   0.020  0.00  0.00    +0.157 C 
BRANCH  19  20
ATOM     20  N   UNL     1      -1.660   2.412   1.408  0.00  0.00    -0.293 NA
ATOM     21  C   UNL     1      -2.064   1.174   2.089  0.00  0.00    +0.102 C 
ATOM     22  C   UNL     1      -2.296   1.464   3.575  0.00  0.00    +0.125 C 
ATOM     23  N   UNL     1      -3.251   2.577   3.690  0.00  0.00    -0.174 NA
ATOM     24  C   UNL     1      -2.983   3.805   2.926  0.00  0.00    +0.125 C 
ATOM     25  C   UNL     1      -2.724   3.423   1.465  0.00  0.00    +0.102 C 
BRANCH  23  26
ATOM     26  S   UNL     1      -4.591   2.451   4.654  0.00  0.00    +0.061 S 
ATOM     27  O   UNL     1      -4.294   1.467   5.636  0.00  0.00    -0.153 OA
ATOM     28  O   UNL     1      -4.973   3.777   4.995  0.00  0.00    -0.153 OA
BRANCH  26  29
ATOM     29  C   UNL     1      -5.888   1.794   3.660  0.00  0.00    +0.105 A 
ATOM     30  C   UNL     1      -6.727   2.646   2.966  0.00  0.00    +0.029 A 
ATOM     31  C   UNL     1      -7.742   2.130   2.182  0.00  0.00    +0.005 A 
ATOM     32  C   UNL     1      -7.924   0.762   2.099  0.00  0.00    -0.048 A 
ATOM     33  C   UNL     1      -7.088  -0.090   2.797  0.00  0.00    +0.005 A 
ATOM     34  C   UNL     1      -6.071   0.426   3.577  0.00  0.00    +0.029 A 
BRANCH  32  35
ATOM     35  C   UNL     1      -9.033   0.200   1.247  0.00  0.00    +0.032 C 
ATOM     36  C   UNL     1     -10.302   0.060   2.090  0.00  0.00    +0.009 C 
ENDBRANCH  32  35
ENDBRANCH  26  29
ENDBRANCH  23  26
ENDBRANCH  19  20
ENDBRANCH   2  19
TORSDOF 7
