REMARK  Name = ZINC03908705
REMARK  10 active torsions:
REMARK  status: ('A' for Active; 'I' for Inactive)
REMARK    1  A    between atoms: C_1  and  C_2
REMARK    2  A    between atoms: C_2  and  O_3
REMARK    3  A    between atoms: O_3  and  C_4
REMARK    4  A    between atoms: C_9  and  C_10
REMARK    5  A    between atoms: C_10  and  C_11
REMARK    6  A    between atoms: C_10  and  C_19
REMARK    7  A    between atoms: C_12  and  C_18
REMARK    8  A    between atoms: C_16  and  O_17
REMARK    9  A    between atoms: C_20  and  C_26
REMARK   10  A    between atoms: C_24  and  O_25
REMARK                            x       y       z     vdW  Elec       q    Type
REMARK                         _______ _______ _______ _____ _____    ______ ____
ROOT
ATOM      1  C   UNL     1      -3.955  -1.484   0.041  0.00  0.00    +0.096 C 
ENDROOT
BRANCH   1   2
ATOM      2  C   UNL     1      -4.283  -1.823  -1.391  0.00  0.00    +0.048 A 
ATOM      3  C   UNL     1      -4.285  -0.931  -2.468  0.00  0.00    +0.068 A 
ATOM      4  N   UNL     1      -4.619  -1.592  -3.547  0.00  0.00    -0.176 NA
ATOM      5  N   UNL     1      -4.842  -2.929  -3.193  0.00  0.00    -0.247 N 
ATOM      6  H   UNL     1      -5.102  -3.643  -3.797  0.00  0.00    +0.192 HD
ATOM      7  C   UNL     1      -4.625  -3.050  -1.865  0.00  0.00    +0.213 A 
ATOM      8  C   UNL     1      -3.960   0.538  -2.398  0.00  0.00    +0.068 C 
BRANCH   7   9
ATOM      9  O   UNL     1      -4.731  -4.190  -1.136  0.00  0.00    -0.492 OA
ATOM     10  H   UNL     1      -5.593  -4.307  -0.712  0.00  0.00    +0.294 HD
ENDBRANCH   7   9
ENDBRANCH   1   2
BRANCH   1  11
ATOM     11  C   UNL     1      -5.060  -1.976   0.940  0.00  0.00    +0.048 A 
ATOM     12  C   UNL     1      -6.381  -1.976   0.650  0.00  0.00    +0.041 A 
ATOM     13  N   UNL     1      -7.036  -2.495   1.710  0.00  0.00    -0.278 N 
ATOM     14  N   UNL     1      -6.088  -2.828   2.686  0.00  0.00    -0.136 NA
ATOM     15  H   UNL     1      -7.996  -2.617   1.783  0.00  0.00    +0.189 HD
ATOM     16  C   UNL     1      -4.900  -2.522   2.222  0.00  0.00    +0.236 A 
ATOM     17  C   UNL     1      -7.010  -1.482  -0.627  0.00  0.00    +0.065 C 
BRANCH  16  18
ATOM     18  O   UNL     1      -3.719  -2.700   2.873  0.00  0.00    -0.491 OA
ATOM     19  H   UNL     1      -3.487  -1.977   3.472  0.00  0.00    +0.294 HD
ENDBRANCH  16  18
ENDBRANCH   1  11
BRANCH   1  25
ATOM     20  C   UNL     1      -1.534  -1.377   0.685  0.00  0.00    +0.125 A 
ATOM     21  C   UNL     1      -0.343  -1.991   1.047  0.00  0.00    +0.046 A 
ATOM     22  C   UNL     1      -0.279  -3.367   1.147  0.00  0.00    +0.004 A 
ATOM     23  C   UNL     1      -1.401  -4.133   0.886  0.00  0.00    +0.001 A 
ATOM     24  C   UNL     1      -2.588  -3.524   0.524  0.00  0.00    +0.008 A 
ATOM     25  C   UNL     1      -2.659  -2.148   0.429  0.00  0.00    +0.006 A 
BRANCH  20  26
ATOM     26  O   UNL     1      -1.599  -0.024   0.586  0.00  0.00    -0.492 OA
BRANCH  26  28
ATOM     27  C   UNL     1      -0.669   2.204   0.703  0.00  0.00    +0.048 C 
ATOM     28  C   UNL     1      -0.402   0.706   0.864  0.00  0.00    +0.225 C 
ENDBRANCH  26  28
ENDBRANCH  20  26
ENDBRANCH   1  25
TORSDOF 7
