REMARK  Name = ZINC34734881
REMARK  10 active torsions:
REMARK  status: ('A' for Active; 'I' for Inactive)
REMARK    1  A    between atoms: C_1  and  C_2
REMARK    2  A    between atoms: C_2  and  C_3
REMARK    3  A    between atoms: C_3  and  C_4
REMARK    4  A    between atoms: C_4  and  N_5
REMARK    5  A    between atoms: N_18  and  C_21
REMARK    6  A    between atoms: C_21  and  C_22
REMARK    7  A    between atoms: C_25  and  C_29
REMARK    8  A    between atoms: C_27  and  C_28
REMARK    9  A    between atoms: C_32  and  C_34
REMARK   10  A    between atoms: C_32  and  C_35
REMARK                            x       y       z     vdW  Elec       q    Type
REMARK                         _______ _______ _______ _____ _____    ______ ____
ROOT
ATOM      1  N   UNL     1      -2.751  -2.684   0.000  0.00  0.00    -0.280 N 
ATOM      2  C   UNL     1      -3.323  -3.013   1.173  0.00  0.00    +0.264 A 
ATOM      3  O   UNL     1      -2.675  -2.990   2.205  0.00  0.00    -0.267 OA
ATOM      4  C   UNL     1      -4.704  -3.391   1.192  0.00  0.00    +0.076 A 
ATOM      5  C   UNL     1      -5.523  -3.784   2.336  0.00  0.00    -0.018 A 
ATOM      6  C   UNL     1      -6.814  -4.097   2.090  0.00  0.00    +0.021 A 
ATOM      7  S   UNL     1      -7.011  -3.889   0.343  0.00  0.00    -0.071 S 
ATOM      8  C   UNL     1      -5.356  -3.382  -0.053  0.00  0.00    +0.118 A 
ATOM      9  N   UNL     1      -4.731  -3.047  -1.176  0.00  0.00    -0.208 NA
ATOM     10  C   UNL     1      -3.461  -2.698  -1.163  0.00  0.00    +0.202 A 
ATOM     11  N   UNL     1      -2.843  -2.350  -2.339  0.00  0.00    -0.304 N 
ATOM     12  C   UNL     1      -2.160  -3.360  -3.162  0.00  0.00    +0.089 C 
ATOM     13  C   UNL     1      -2.659  -3.229  -4.605  0.00  0.00    -0.059 C 
ATOM     14  N   UNL     1      -2.472  -1.846  -5.062  0.00  0.00    +0.384 N 
ATOM     15  C   UNL     1      -3.312  -0.939  -4.270  0.00  0.00    -0.059 C 
ATOM     16  C   UNL     1      -2.849  -0.958  -2.813  0.00  0.00    +0.089 C 
ATOM     17  C   UNL     1      -7.830  -4.526   3.102  0.00  0.00    +0.203 C 
ATOM     18  O   UNL     1      -7.134  -4.856   4.314  0.00  0.00    -0.368 OA
ATOM     19  C   UNL     1      -6.190  -3.860   4.718  0.00  0.00    +0.068 C 
ATOM     20  C   UNL     1      -4.991  -3.852   3.765  0.00  0.00    +0.071 C 
ATOM     21  C   UNL     1      -6.863  -2.486   4.698  0.00  0.00    +0.041 C 
ATOM     22  C   UNL     1      -5.708  -4.164   6.138  0.00  0.00    +0.041 C 
ATOM     23  H   UNL     1      -1.503  -1.586  -4.955  0.00  0.00    -0.081 HD
ENDROOT
BRANCH   1  24
ATOM     24  C   UNL     1      -1.338  -2.297  -0.025  0.00  0.00    +0.128 C 
BRANCH  24  25
ATOM     25  C   UNL     1      -1.211  -0.809   0.306  0.00  0.00    +0.021 C 
BRANCH  25  27
ATOM     26  C   UNL     1       0.392   1.083   0.610  0.00  0.00    +0.004 C 
ATOM     27  C   UNL     1       0.265  -0.405   0.279  0.00  0.00    -0.002 C 
ENDBRANCH  25  27
ENDBRANCH  24  25
ENDBRANCH   1  24
BRANCH  14  28
ATOM     28  C   UNL     1      -2.848  -1.746  -6.479  0.00  0.00    -0.043 C 
BRANCH  28  29
ATOM     29  C   UNL     1      -2.541  -0.359  -6.983  0.00  0.00    -0.061 A 
ATOM     30  C   UNL     1      -3.552   0.579  -7.085  0.00  0.00    +0.002 A 
ATOM     31  C   UNL     1      -3.270   1.850  -7.548  0.00  0.00    +0.003 A 
ATOM     32  C   UNL     1      -1.978   2.185  -7.908  0.00  0.00    -0.050 A 
ATOM     33  C   UNL     1      -0.967   1.247  -7.805  0.00  0.00    +0.007 A 
ATOM     34  C   UNL     1      -1.248  -0.024  -7.338  0.00  0.00    -0.049 A 
ATOM     35  C   UNL     1      -0.145  -1.044  -7.221  0.00  0.00    +0.044 C 
ATOM     36  C   UNL     1      -1.671   3.571  -8.413  0.00  0.00    +0.044 C 
ENDBRANCH  28  29
ENDBRANCH  14  28
TORSDOF 5
