REMARK  Name = ZINC41760352
REMARK  6 active torsions:
REMARK  status: ('A' for Active; 'I' for Inactive)
REMARK    1  A    between atoms: C_1  and  C_2
REMARK    2  A    between atoms: C_2  and  C_3
REMARK    3  A    between atoms: C_2  and  C_11
REMARK    4  A    between atoms: C_2  and  N_14
REMARK    5  A    between atoms: N_14  and  C_15
REMARK    6  A    between atoms: C_15  and  C_16
REMARK                            x       y       z     vdW  Elec       q    Type
REMARK                         _______ _______ _______ _____ _____    ______ ____
ROOT
ATOM      1  C   UNL     1      -0.019   1.526   0.010  0.00  0.00    +0.045 C 
ATOM      2  C   UNL     1       0.002  -0.004   0.002  0.00  0.00    +0.144 C 
ENDROOT
BRANCH   2   3
ATOM      3  C   UNL     1       0.731  -0.503   1.223  0.00  0.00    -0.015 A 
ATOM      4  C   UNL     1       1.868  -1.277   1.081  0.00  0.00    +0.007 A 
ATOM      5  C   UNL     1       2.537  -1.736   2.199  0.00  0.00    +0.022 A 
ATOM      6  C   UNL     1       2.070  -1.421   3.463  0.00  0.00    +0.059 A 
ATOM      7  C   UNL     1       0.931  -0.645   3.605  0.00  0.00    +0.060 A 
ATOM      8  C   UNL     1       0.266  -0.182   2.484  0.00  0.00    +0.027 A 
ATOM      9 CL   UNL     1       0.344  -0.249   5.190  0.00  0.00    -0.082 Cl
ATOM     10 CL   UNL     1       2.909  -1.997   4.869  0.00  0.00    -0.082 Cl
ENDBRANCH   2   3
BRANCH   2  11
ATOM     11  C   UNL     1      -1.412  -0.526   0.013  0.00  0.00    +0.380 C 
ATOM     12  O   UNL     1      -1.810  -1.227  -0.902  0.00  0.00    -0.244 OA
ATOM     13  O   UNL     1      -2.158  -0.246   0.936  0.00  0.00    -0.244 OA
ENDBRANCH   2  11
BRANCH   2  14
ATOM     14  N   UNL     1       0.690  -0.478  -1.207  0.00  0.00    -0.290 NA
ATOM     15  H   UNL     1       1.658  -0.195  -1.206  0.00  0.00    +0.124 HD
BRANCH  14  16
ATOM     16  C   UNL     1       0.006  -0.009  -2.419  0.00  0.00    +0.178 C 
BRANCH  16  17
ATOM     17  C   UNL     1       0.738  -0.514  -3.636  0.00  0.00    +0.224 C 
ATOM     18  O   UNL     1       1.732  -1.196  -3.506  0.00  0.00    -0.275 OA
ATOM     19  N   UNL     1       0.288  -0.207  -4.869  0.00  0.00    -0.328 N 
ATOM     20  H   UNL     1      -0.506   0.339  -4.973  0.00  0.00    +0.145 HD
ATOM     21  H   UNL     1       0.760  -0.531  -5.652  0.00  0.00    +0.145 HD
ENDBRANCH  16  17
ENDBRANCH  14  16
ENDBRANCH   2  14
TORSDOF 5
