REMARK  Name = ZINC63527212
REMARK  8 active torsions:
REMARK  status: ('A' for Active; 'I' for Inactive)
REMARK    1  A    between atoms: C_1  and  C_2
REMARK    2  A    between atoms: C_10  and  N_18
REMARK    3  A    between atoms: C_12  and  C_14
REMARK    4  A    between atoms: C_14  and  O_16
REMARK    5  A    between atoms: O_16  and  C_17
REMARK    6  A    between atoms: C_19  and  C_21
REMARK    7  A    between atoms: C_21  and  S_22
REMARK    8  A    between atoms: S_22  and  C_23
REMARK                            x       y       z     vdW  Elec       q    Type
REMARK                         _______ _______ _______ _____ _____    ______ ____
ROOT
ATOM      1  N   UNL     1      -0.735  -4.555   3.478  0.00  0.00    -0.301 N 
ATOM      2  C   UNL     1      -0.588  -5.452   4.473  0.00  0.00    +0.224 C 
ATOM      3  O   UNL     1       0.327  -6.248   4.442  0.00  0.00    -0.275 OA
ATOM      4  H   UNL     1      -1.466  -3.918   3.502  0.00  0.00    +0.150 HD
ENDROOT
BRANCH   1  13
ATOM      5  C   UNL     1      -0.019   1.526   0.010  0.00  0.00    +0.008 C 
ATOM      6  C   UNL     1       0.002  -0.004   0.002  0.00  0.00    -0.009 C 
ATOM      7  C   UNL     1      -1.434  -0.539   0.023  0.00  0.00    +0.008 C 
ATOM      8  C   UNL     1      -1.419  -2.047  -0.224  0.00  0.00    +0.033 C 
ATOM      9  C   UNL     1      -0.449  -2.705   0.755  0.00  0.00    -0.044 C 
ATOM     10  C   UNL     1       0.475  -1.992   1.389  0.00  0.00    -0.012 C 
ATOM     11  C   UNL     1       0.734  -0.516   1.248  0.00  0.00    +0.045 C 
ATOM     12  S   UNL     1       1.357  -3.103   2.460  0.00  0.00    -0.106 S 
ATOM     13  C   UNL     1       0.211  -4.541   2.359  0.00  0.00    +0.153 C 
ATOM     14  C   UNL     1      -0.490  -4.188   1.024  0.00  0.00    +0.155 C 
BRANCH  14  15
ATOM     15  C   UNL     1       0.200  -4.913  -0.102  0.00  0.00    +0.317 C 
ATOM     16  O   UNL     1       0.673  -4.289  -1.022  0.00  0.00    -0.250 OA
BRANCH  15  17
ATOM     17  O   UNL     1       0.289  -6.253  -0.083  0.00  0.00    -0.467 OA
ATOM     18  C   UNL     1       0.957  -6.874  -1.183  0.00  0.00    +0.280 C 
ENDBRANCH  15  17
ENDBRANCH  14  15
ENDBRANCH   1  13
BRANCH   2  19
ATOM     19  C   UNL     1      -1.561  -5.467   5.623  0.00  0.00    +0.173 C 
BRANCH  19  20
ATOM     20  S   UNL     1      -1.099  -6.778   6.789  0.00  0.00    -0.078 S 
BRANCH  20  21
ATOM     21  C   UNL     1      -2.315  -6.666   8.059  0.00  0.00    +0.170 A 
ATOM     22  N   UNL     1      -2.260  -7.522   9.118  0.00  0.00    -0.302 N 
ATOM     23  H   UNL     1      -1.553  -8.184   9.175  0.00  0.00    +0.171 HD
ATOM     24  C   UNL     1      -3.195  -7.440  10.085  0.00  0.00    +0.255 A 
ATOM     25  O   UNL     1      -3.166  -8.201  11.039  0.00  0.00    -0.267 OA
ATOM     26  C   UNL     1      -4.208  -6.463   9.982  0.00  0.00    +0.038 A 
ATOM     27  C   UNL     1      -4.210  -5.631   8.909  0.00  0.00    +0.052 A 
ATOM     28  N   UNL     1      -3.260  -5.754   7.974  0.00  0.00    -0.228 NA
ATOM     29  C   UNL     1      -5.239  -4.547   8.723  0.00  0.00    +0.056 C 
ATOM     30  C   UNL     1      -6.458  -4.806   9.606  0.00  0.00    +0.006 C 
ATOM     31  C   UNL     1      -5.973  -5.057  11.039  0.00  0.00    +0.005 C 
ATOM     32  C   UNL     1      -5.243  -6.398  11.072  0.00  0.00    +0.042 C 
ENDBRANCH  20  21
ENDBRANCH  19  20
ENDBRANCH   2  19
TORSDOF 6
