REMARK  Name = ZINC18254825
REMARK  5 active torsions:
REMARK  status: ('A' for Active; 'I' for Inactive)
REMARK    1  A    between atoms: C_2  and  C_3
REMARK    2  A    between atoms: C_3  and  O_4
REMARK    3  A    between atoms: O_4  and  C_5
REMARK    4  A    between atoms: C_8  and  C_12
REMARK    5  A    between atoms: N_18  and  C_19
REMARK                            x       y       z     vdW  Elec       q    Type
REMARK                         _______ _______ _______ _____ _____    ______ ____
ROOT
ATOM      1  C   UNL     1       5.580  -5.896   0.649  0.00  0.00    +0.028 C 
ATOM      2  C   UNL     1       5.725  -6.616   1.791  0.00  0.00    +0.078 C 
ATOM      3  C   UNL     1       4.756  -6.848   2.880  0.00  0.00    +0.256 C 
ATOM      4  O   UNL     1       3.637  -6.370   2.849  0.00  0.00    -0.269 OA
ATOM      5  N   UNL     1       5.159  -7.598   3.891  0.00  0.00    -0.260 N 
ATOM      6  C   UNL     1       6.431  -8.130   3.908  0.00  0.00    +0.166 C 
ATOM      7  N   UNL     1       6.986  -8.889   4.825  0.00  0.00    -0.224 NA
ATOM      8  S   UNL     1       7.136  -7.543   2.376  0.00  0.00    -0.049 S 
ATOM      9  H   UNL     1       4.554  -7.776   4.628  0.00  0.00    +0.157 HD
ENDROOT
BRANCH   7  10
ATOM     10  C   UNL     1       8.309  -9.226   4.725  0.00  0.00    +0.086 A 
ATOM     11  C   UNL     1       9.267  -8.241   4.476  0.00  0.00    +0.029 A 
ATOM     12  C   UNL     1      10.599  -8.587   4.376  0.00  0.00    +0.004 A 
ATOM     13  C   UNL     1      10.988  -9.907   4.522  0.00  0.00    +0.021 A 
ATOM     14  C   UNL     1      10.044 -10.890   4.770  0.00  0.00    +0.061 A 
ATOM     15  C   UNL     1       8.708 -10.557   4.878  0.00  0.00    +0.085 A 
ATOM     16 CL   UNL     1       7.527 -11.789   5.196  0.00  0.00    -0.080 Cl
ATOM     17 CL   UNL     1      10.543 -12.543   4.951  0.00  0.00    -0.082 Cl
ENDBRANCH   7  10
BRANCH   1  21
ATOM     18  C   UNL     1       2.148  -3.468   0.092  0.00  0.00    +0.135 A 
ATOM     19  C   UNL     1       2.731  -3.566   1.350  0.00  0.00    +0.047 A 
ATOM     20  C   UNL     1       3.845  -4.353   1.537  0.00  0.00    +0.011 A 
ATOM     21  C   UNL     1       4.392  -5.056   0.456  0.00  0.00    -0.023 A 
ATOM     22  C   UNL     1       3.801  -4.955  -0.809  0.00  0.00    +0.027 A 
ATOM     23  C   UNL     1       2.683  -4.169  -0.984  0.00  0.00    +0.060 A 
ATOM     24 BR   UNL     1       1.879  -4.037  -2.690  0.00  0.00    -0.046 Br
BRANCH  18  25
ATOM     25  O   UNL     1       1.049  -2.691  -0.086  0.00  0.00    -0.487 OA
BRANCH  25  26
ATOM     26  C   UNL     1       0.551  -1.999   1.060  0.00  0.00    +0.256 C 
BRANCH  26  28
ATOM     27  C   UNL     1      -1.728  -1.208   1.434  0.00  0.00    +0.007 C 
ATOM     28  C   UNL     1      -0.662  -1.193   0.673  0.00  0.00    +0.006 C 
ENDBRANCH  26  28
ENDBRANCH  25  26
ENDBRANCH  18  25
ENDBRANCH   1  21
TORSDOF 5
