REMARK  Name = ZINC63659326
REMARK  12 active torsions:
REMARK  status: ('A' for Active; 'I' for Inactive)
REMARK    1  A    between atoms: C_1  and  C_2
REMARK    2  A    between atoms: C_7  and  N_8
REMARK    3  A    between atoms: N_8  and  C_9
REMARK    4  A    between atoms: C_9  and  N_11
REMARK    5  A    between atoms: N_11  and  C_12
REMARK    6  A    between atoms: N_11  and  C_27
REMARK    7  A    between atoms: C_12  and  C_13
REMARK    8  A    between atoms: C_13  and  C_14
REMARK    9  A    between atoms: C_17  and  O_25
REMARK   10  A    between atoms: C_22  and  C_24
REMARK   11  A    between atoms: O_25  and  C_26
REMARK   12  A    between atoms: C_27  and  C_28
REMARK                            x       y       z     vdW  Elec       q    Type
REMARK                         _______ _______ _______ _____ _____    ______ ____
ROOT
ATOM      1  N   UNL     1      -0.155  -0.027   4.744  0.00  0.00    -0.305 N 
ENDROOT
BRANCH   1   2
ATOM      2  C   UNL     1      -0.056  -0.695   3.578  0.00  0.00    +0.138 C 
ATOM      3  S   UNL     1      -0.034  -2.406   3.571  0.00  0.00    -0.018 S 
BRANCH   2   4
ATOM      4  N   UNL     1       0.026  -0.015   2.417  0.00  0.00    -0.297 N 
ATOM      5  H   UNL     1       0.074   0.954   2.424  0.00  0.00    +0.154 HD
BRANCH   4  12
ATOM      6  C   UNL     1      -1.697   0.884   0.338  0.00  0.00    +0.045 C 
ATOM      7  C   UNL     1      -0.784  -0.301   0.160  0.00  0.00    -0.029 A 
ATOM      8  C   UNL     1      -0.763  -0.983  -1.042  0.00  0.00    +0.005 A 
ATOM      9  C   UNL     1       0.075  -2.070  -1.206  0.00  0.00    +0.000 A 
ATOM     10  C   UNL     1       0.893  -2.480  -0.169  0.00  0.00    +0.002 A 
ATOM     11  C   UNL     1       0.876  -1.803   1.034  0.00  0.00    +0.023 A 
ATOM     12  C   UNL     1       0.041  -0.707   1.201  0.00  0.00    +0.036 A 
ENDBRANCH   4  12
ENDBRANCH   2   4
ENDBRANCH   1   2
BRANCH   1  13
ATOM     13  C   UNL     1      -0.244  -0.766   6.006  0.00  0.00    +0.111 C 
BRANCH  13  14
ATOM     14  C   UNL     1       1.164  -1.004   6.557  0.00  0.00    +0.052 C 
BRANCH  14  15
ATOM     15  C   UNL     1       1.073  -1.764   7.855  0.00  0.00    -0.037 C 
ATOM     16  C   UNL     1      -0.054  -2.193   8.469  0.00  0.00    +0.003 A 
ATOM     17  C   UNL     1      -1.476  -2.085   8.127  0.00  0.00    +0.055 A 
ATOM     18  C   UNL     1      -2.404  -2.625   8.954  0.00  0.00    +0.121 A 
ATOM     19  C   UNL     1      -2.054  -3.292  10.141  0.00  0.00    +0.047 A 
ATOM     20  C   UNL     1      -0.772  -3.442  10.540  0.00  0.00    +0.029 A 
ATOM     21  C   UNL     1       0.314  -2.897   9.720  0.00  0.00    +0.043 A 
ATOM     22  N   UNL     1       1.615  -2.902   9.873  0.00  0.00    -0.378 N 
ATOM     23  C   UNL     1       2.223  -2.208   8.732  0.00  0.00    +0.103 C 
ATOM     24  C   UNL     1       3.013  -0.992   9.219  0.00  0.00    +0.035 C 
ATOM     25  H   UNL     1       2.096  -3.301  10.614  0.00  0.00    +0.160 HD
BRANCH  18  26
ATOM     26  O   UNL     1      -3.718  -2.517   8.625  0.00  0.00    -0.495 OA
ATOM     27  C   UNL     1      -4.662  -3.100   9.526  0.00  0.00    +0.277 C 
ENDBRANCH  18  26
ENDBRANCH  14  15
ENDBRANCH  13  14
ENDBRANCH   1  13
BRANCH   1  28
ATOM     28  C   UNL     1      -0.174   1.438   4.750  0.00  0.00    +0.181 C 
BRANCH  28  29
ATOM     29  C   UNL     1      -1.597   1.922   4.642  0.00  0.00    +0.122 A 
ATOM     30  C   UNL     1      -2.423   2.175   5.674  0.00  0.00    +0.046 A 
ATOM     31  C   UNL     1      -3.651   2.604   5.120  0.00  0.00    +0.041 A 
ATOM     32  C   UNL     1      -3.502   2.589   3.784  0.00  0.00    +0.195 A 
ATOM     33  O   UNL     1      -2.254   2.181   3.500  0.00  0.00    -0.466 OA
ENDBRANCH  28  29
ENDBRANCH   1  28
TORSDOF 9
