REMARK  Name = ZINC56769466
REMARK  6 active torsions:
REMARK  status: ('A' for Active; 'I' for Inactive)
REMARK    1  A    between atoms: C_1  and  C_2
REMARK    2  A    between atoms: C_2  and  C_4
REMARK    3  A    between atoms: C_2  and  N_12
REMARK    4  A    between atoms: C_4  and  C_5
REMARK    5  A    between atoms: C_8  and  O_11
REMARK    6  A    between atoms: C_18  and  C_21
REMARK                            x       y       z     vdW  Elec       q    Type
REMARK                         _______ _______ _______ _____ _____    ______ ____
ROOT
ATOM      1  N   UNL     1      -1.373  -0.510   0.013  0.00  0.00    -0.296 N 
ATOM      2  C   UNL     1      -2.051  -0.643  -1.145  0.00  0.00    +0.303 C 
ATOM      3  O   UNL     1      -1.556  -0.258  -2.187  0.00  0.00    -0.253 OA
ATOM      4  N   UNL     1      -3.277  -1.203  -1.147  0.00  0.00    -0.282 N 
ATOM      5  C   UNL     1      -3.996  -1.466  -2.405  0.00  0.00    +0.114 C 
ATOM      6  C   UNL     1      -4.210  -2.978  -2.519  0.00  0.00    +0.054 C 
ATOM      7  C   UNL     1      -4.702  -3.536  -1.217  0.00  0.00    -0.039 C 
ATOM      8  C   UNL     1      -4.584  -2.929  -0.059  0.00  0.00    -0.004 C 
ATOM      9  C   UNL     1      -3.947  -1.581   0.105  0.00  0.00    +0.137 C 
ATOM     10  H   UNL     1      -1.796  -0.749   0.852  0.00  0.00    +0.151 HD
ENDROOT
BRANCH   7  11
ATOM     11  C   UNL     1      -5.362  -4.856  -1.238  0.00  0.00    +0.005 A 
ATOM     12  C   UNL     1      -6.615  -5.130  -1.684  0.00  0.00    +0.093 A 
ATOM     13  N   UNL     1      -6.872  -6.463  -1.545  0.00  0.00    -0.345 N 
ATOM     14  H   UNL     1      -7.703  -6.896  -1.795  0.00  0.00    +0.167 HD
ATOM     15  C   UNL     1      -5.785  -7.105  -0.998  0.00  0.00    +0.139 A 
ATOM     16  C   UNL     1      -4.790  -6.134  -0.786  0.00  0.00    +0.026 A 
ATOM     17  C   UNL     1      -3.565  -6.513  -0.240  0.00  0.00    +0.013 A 
ATOM     18  C   UNL     1      -3.376  -7.847   0.072  0.00  0.00    +0.020 A 
ATOM     19  C   UNL     1      -4.398  -8.752  -0.166  0.00  0.00    +0.113 A 
ATOM     20  N   UNL     1      -5.551  -8.371  -0.676  0.00  0.00    -0.237 NA
ENDBRANCH   7  11
BRANCH   1  22
ATOM     21  C   UNL     1      -0.017   1.526   0.008  0.00  0.00    +0.028 C 
ATOM     22  C   UNL     1       0.002  -0.004   0.002  0.00  0.00    +0.076 C 
BRANCH  22  23
ATOM     23  C   UNL     1       0.741  -0.510   1.243  0.00  0.00    +0.057 C 
BRANCH  23  24
ATOM     24  C   UNL     1       0.867  -2.010   1.177  0.00  0.00    -0.045 A 
ATOM     25  C   UNL     1      -0.123  -2.810   1.717  0.00  0.00    +0.007 A 
ATOM     26  C   UNL     1      -0.009  -4.186   1.657  0.00  0.00    +0.045 A 
ATOM     27  C   UNL     1       1.098  -4.764   1.055  0.00  0.00    +0.117 A 
ATOM     28  C   UNL     1       2.090  -3.959   0.513  0.00  0.00    +0.045 A 
ATOM     29  C   UNL     1       1.969  -2.584   0.571  0.00  0.00    +0.007 A 
BRANCH  27  30
ATOM     30  O   UNL     1       1.212  -6.117   0.995  0.00  0.00    -0.507 OA
ATOM     31  H   UNL     1       0.823  -6.510   0.203  0.00  0.00    +0.292 HD
ENDBRANCH  27  30
ENDBRANCH  23  24
ENDBRANCH  22  23
ENDBRANCH   1  22
TORSDOF 5
