REMARK  Name = ZINC14651181
REMARK  11 active torsions:
REMARK  status: ('A' for Active; 'I' for Inactive)
REMARK    1  A    between atoms: C_1  and  C_2
REMARK    2  A    between atoms: C_2  and  C_3
REMARK    3  A    between atoms: C_2  and  C_4
REMARK    4  A    between atoms: C_4  and  C_5
REMARK    5  A    between atoms: C_5  and  O_6
REMARK    6  A    between atoms: O_6  and  C_7
REMARK    7  A    between atoms: C_12  and  C_13
REMARK    8  A    between atoms: N_15  and  C_16
REMARK    9  A    between atoms: C_16  and  N_18
REMARK   10  A    between atoms: N_18  and  C_19
REMARK   11  A    between atoms: C_20  and  C_27
REMARK                            x       y       z     vdW  Elec       q    Type
REMARK                         _______ _______ _______ _____ _____    ______ ____
ROOT
ATOM      1  C   UNL     1      -0.016   1.344   0.009  0.00  0.00    +0.253 C 
ATOM      2  O   UNL     1      -1.077   1.937   0.018  0.00  0.00    -0.270 OA
ATOM      3  N   UNL     1       0.002  -0.004   0.002  0.00  0.00    -0.263 N 
ATOM      4  H   UNL     1       0.849  -0.478  -0.009  0.00  0.00    +0.157 HD
ENDROOT
BRANCH   1  10
ATOM      5  C   UNL     1       1.236   3.500   0.009  0.00  0.00    +0.133 A 
ATOM      6  C   UNL     1       2.434   4.200   0.002  0.00  0.00    +0.047 A 
ATOM      7  C   UNL     1       3.634   3.518  -0.013  0.00  0.00    +0.019 A 
ATOM      8  C   UNL     1       3.653   2.132  -0.020  0.00  0.00    +0.019 A 
ATOM      9  C   UNL     1       2.473   1.420  -0.008  0.00  0.00    +0.032 A 
ATOM     10  C   UNL     1       1.251   2.098   0.001  0.00  0.00    +0.080 A 
ATOM     11 BR   UNL     1       5.306   1.213  -0.041  0.00  0.00    -0.050 Br
BRANCH   5  12
ATOM     12  O   UNL     1       0.056   4.169   0.023  0.00  0.00    -0.491 OA
BRANCH  12  13
ATOM     13  C   UNL     1       0.120   5.596   0.030  0.00  0.00    +0.229 C 
BRANCH  13  14
ATOM     14  C   UNL     1      -1.298   6.170   0.046  0.00  0.00    +0.044 C 
BRANCH  14  16
ATOM     15  C   UNL     1      -0.610   8.188  -1.257  0.00  0.00    +0.007 C 
ATOM     16  C   UNL     1      -1.230   7.699   0.053  0.00  0.00    -0.014 C 
ATOM     17  C   UNL     1      -2.642   8.271   0.194  0.00  0.00    +0.007 C 
ENDBRANCH  14  16
ENDBRANCH  13  14
ENDBRANCH  12  13
ENDBRANCH   5  12
ENDBRANCH   1  10
BRANCH   3  18
ATOM     18  C   UNL     1      -1.156  -0.694   0.009  0.00  0.00    +0.141 C 
ATOM     19  S   UNL     1      -2.650   0.142   0.028  0.00  0.00    -0.018 S 
BRANCH  18  20
ATOM     20  N   UNL     1      -1.137  -2.041   0.002  0.00  0.00    -0.290 N 
ATOM     21  H   UNL     1      -0.291  -2.515  -0.009  0.00  0.00    +0.154 HD
BRANCH  20  22
ATOM     22  C   UNL     1      -2.329  -2.751   0.009  0.00  0.00    +0.089 A 
ATOM     23  C   UNL     1      -2.513  -4.123  -0.002  0.00  0.00    +0.084 A 
ATOM     24  C   UNL     1      -3.888  -4.622   0.014  0.00  0.00    -0.018 A 
ATOM     25  C   UNL     1      -4.840  -3.672   0.029  0.00  0.00    -0.004 A 
ATOM     26  S   UNL     1      -3.947  -2.137   0.028  0.00  0.00    -0.077 S 
ATOM     27  C   UNL     1      -6.225  -4.261   0.042  0.00  0.00    +0.043 C 
ATOM     28  C   UNL     1      -6.018  -5.731   0.470  0.00  0.00    +0.010 C 
ATOM     29  C   UNL     1      -4.569  -5.991   0.012  0.00  0.00    +0.037 C 
BRANCH  23  30
ATOM     30  C   UNL     1      -1.398  -5.021  -0.024  0.00  0.00    +0.102 C 
ATOM     31  N   UNL     1      -0.513  -5.733  -0.042  0.00  0.00    -0.191 NA
ENDBRANCH  23  30
ENDBRANCH  20  22
ENDBRANCH  18  20
ENDBRANCH   3  18
TORSDOF 9
