REMARK  Name = ZINC06356337
REMARK  8 active torsions:
REMARK  status: ('A' for Active; 'I' for Inactive)
REMARK    1  A    between atoms: C_1  and  C_2
REMARK    2  A    between atoms: C_2  and  C_3
REMARK    3  A    between atoms: C_6  and  C_9
REMARK    4  A    between atoms: C_11  and  C_23
REMARK    5  A    between atoms: C_13  and  C_18
REMARK    6  A    between atoms: C_13  and  O_22
REMARK    7  A    between atoms: C_23  and  C_25
REMARK    8  A    between atoms: C_28  and  C_31
REMARK                            x       y       z     vdW  Elec       q    Type
REMARK                         _______ _______ _______ _____ _____    ______ ____
ROOT
ATOM      1  C   UNL     1       0.002  -0.004   0.002  0.00  0.00    +0.120 C 
ATOM      2  C   UNL     1       1.281  -0.493   0.690  0.00  0.00    +0.144 C 
ATOM      3  C   UNL     1       2.486   0.144  -0.009  0.00  0.00    +0.243 C 
ATOM      4  N   UNL     1       2.331   1.600  -0.000  0.00  0.00    -0.264 N 
ATOM      5  C   UNL     1       1.118   2.173   0.003  0.00  0.00    +0.302 C 
ATOM      6  O   UNL     1       1.046   3.386  -0.001  0.00  0.00    -0.253 OA
ATOM      7  N   UNL     1      -0.018   1.460   0.010  0.00  0.00    -0.292 N 
ATOM      8  H   UNL     1       3.122   2.162   0.003  0.00  0.00    +0.153 HD
ATOM      9  H   UNL     1      -0.870   1.923   0.017  0.00  0.00    +0.151 HD
ENDROOT
BRANCH   1  13
ATOM     10  C   UNL     1      -3.410  -1.490   2.099  0.00  0.00    -0.048 A 
ATOM     11  C   UNL     1      -2.987  -2.111   0.938  0.00  0.00    +0.004 A 
ATOM     12  C   UNL     1      -1.883  -1.630   0.260  0.00  0.00    +0.006 A 
ATOM     13  C   UNL     1      -1.202  -0.528   0.742  0.00  0.00    -0.026 A 
ATOM     14  C   UNL     1      -1.621   0.090   1.905  0.00  0.00    +0.006 A 
ATOM     15  C   UNL     1      -2.728  -0.389   2.581  0.00  0.00    +0.004 A 
BRANCH  10  17
ATOM     16  C   UNL     1      -4.169  -3.058   3.863  0.00  0.00    +0.009 C 
ATOM     17  C   UNL     1      -4.614  -2.014   2.838  0.00  0.00    +0.032 C 
ENDBRANCH  10  17
ENDBRANCH   1  13
BRANCH   3  18
ATOM     18  C   UNL     1       3.769  -0.238   0.732  0.00  0.00    +0.436 C 
ATOM     19  F   UNL     1       3.912  -1.629   0.730  0.00  0.00    -0.166 F 
ATOM     20  F   UNL     1       4.868   0.345   0.093  0.00  0.00    -0.166 F 
ATOM     21  F   UNL     1       3.699   0.222   2.052  0.00  0.00    -0.166 F 
ENDBRANCH   3  18
BRANCH   3  22
ATOM     22  O   UNL     1       2.556  -0.320  -1.358  0.00  0.00    -0.364 OA
ATOM     23  H   UNL     1       3.297   0.044  -1.862  0.00  0.00    +0.212 HD
ENDBRANCH   3  22
BRANCH   2  24
ATOM     24  C   UNL     1       1.370  -1.994   0.585  0.00  0.00    +0.173 C 
ATOM     25  O   UNL     1       0.881  -2.565  -0.367  0.00  0.00    -0.292 OA
BRANCH  24  26
ATOM     26  C   UNL     1       2.050  -2.767   1.636  0.00  0.00    +0.018 A 
ATOM     27  C   UNL     1       2.620  -2.112   2.732  0.00  0.00    +0.011 A 
ATOM     28  C   UNL     1       3.250  -2.843   3.717  0.00  0.00    +0.004 A 
ATOM     29  C   UNL     1       3.330  -4.221   3.616  0.00  0.00    -0.050 A 
ATOM     30  C   UNL     1       2.774  -4.876   2.531  0.00  0.00    +0.004 A 
ATOM     31  C   UNL     1       2.135  -4.159   1.541  0.00  0.00    +0.011 A 
ATOM     32  C   UNL     1       4.027  -5.012   4.693  0.00  0.00    +0.044 C 
ENDBRANCH  24  26
ENDBRANCH   2  24
TORSDOF 6
