REMARK  Name = ZINC04023298
REMARK  15 active torsions:
REMARK  status: ('A' for Active; 'I' for Inactive)
REMARK    1  A    between atoms: C_1  and  C_2
REMARK    2  A    between atoms: C_5  and  C_11
REMARK    3  A    between atoms: C_5  and  C_24
REMARK    4  A    between atoms: C_6  and  C_10
REMARK    5  A    between atoms: C_9  and  N_67
REMARK    6  A    between atoms: C_11  and  C_12
REMARK    7  A    between atoms: C_12  and  N_69
REMARK    8  A    between atoms: C_13  and  C_14
REMARK    9  A    between atoms: C_13  and  N_69
REMARK   10  A    between atoms: C_17  and  O_22
REMARK   11  A    between atoms: C_18  and  O_20
REMARK   12  A    between atoms: O_20  and  C_21
REMARK   13  A    between atoms: O_22  and  C_23
REMARK   14  A    between atoms: C_27  and  O_30
REMARK   15  A    between atoms: O_30  and  C_31
REMARK                            x       y       z     vdW  Elec       q    Type
REMARK                         _______ _______ _______ _____ _____    ______ ____
ROOT
ATOM      1  C   UNL     1      -4.006  -3.031  -3.463  0.00  0.00    -0.013 C 
ATOM      2  C   UNL     1      -3.038  -3.143  -2.283  0.00  0.00    -0.071 C 
ATOM      3  C   UNL     1      -3.676  -2.518  -1.040  0.00  0.00    -0.004 C 
ATOM      4  C   UNL     1      -2.713  -2.650   0.143  0.00  0.00    -0.006 C 
ATOM      5  C   UNL     1      -2.384  -4.129   0.361  0.00  0.00    -0.020 C 
ATOM      6  C   UNL     1      -1.783  -4.707  -0.923  0.00  0.00    -0.075 C 
ATOM      7  C   UNL     1      -2.258  -5.225  -3.240  0.00  0.00    -0.096 C 
ATOM      8  C   UNL     1      -1.375  -4.265   1.503  0.00  0.00    +0.006 C 
ATOM      9  N   UNL     1      -2.769  -4.572  -2.017  0.00  0.00    +0.380 N 
ATOM     10  H   UNL     1      -3.644  -5.029  -1.735  0.00  0.00    -0.082 HD
ENDROOT
BRANCH   4  11
ATOM     11  C   UNL     1      -3.359  -2.088   1.383  0.00  0.00    -0.041 A 
ATOM     12  C   UNL     1      -2.701  -1.128   2.130  0.00  0.00    +0.008 A 
ATOM     13  C   UNL     1      -3.294  -0.608   3.264  0.00  0.00    +0.046 A 
ATOM     14  C   UNL     1      -4.545  -1.058   3.660  0.00  0.00    +0.120 A 
ATOM     15  C   UNL     1      -5.200  -2.026   2.913  0.00  0.00    +0.046 A 
ATOM     16  C   UNL     1      -4.606  -2.539   1.776  0.00  0.00    +0.008 A 
BRANCH  14  17
ATOM     17  O   UNL     1      -5.127  -0.552   4.779  0.00  0.00    -0.495 OA
ATOM     18  C   UNL     1      -4.395   0.442   5.499  0.00  0.00    +0.277 C 
ENDBRANCH  14  17
ENDBRANCH   4  11
BRANCH   4  19
ATOM     19  C   UNL     1      -1.426  -1.878  -0.157  0.00  0.00    -0.008 C 
BRANCH  19  20
ATOM     20  C   UNL     1      -1.771  -0.433  -0.523  0.00  0.00    -0.081 C 
BRANCH  20  21
ATOM     21  N   UNL     1      -0.523   0.330  -0.708  0.00  0.00    +0.382 N 
ATOM     22  H   UNL     1       0.029  -0.098  -1.461  0.00  0.00    -0.085 HD
ATOM     23  H   UNL     1       0.018   0.311   0.165  0.00  0.00    -0.085 HD
BRANCH  21  24
ATOM     24  C   UNL     1      -0.826   1.730  -1.062  0.00  0.00    -0.047 C 
BRANCH  24  25
ATOM     25  C   UNL     1       0.466   2.484  -1.244  0.00  0.00    -0.061 A 
ATOM     26  C   UNL     1       1.065   2.536  -2.489  0.00  0.00    +0.005 A 
ATOM     27  C   UNL     1       2.250   3.228  -2.661  0.00  0.00    +0.049 A 
ATOM     28  C   UNL     1       2.840   3.870  -1.584  0.00  0.00    +0.161 A 
ATOM     29  C   UNL     1       2.237   3.817  -0.331  0.00  0.00    +0.162 A 
ATOM     30  C   UNL     1       1.047   3.127  -0.167  0.00  0.00    +0.051 A 
BRANCH  29  31
ATOM     31  O   UNL     1       2.812   4.445   0.729  0.00  0.00    -0.491 OA
ATOM     32  C   UNL     1       2.138   4.348   1.985  0.00  0.00    +0.277 C 
ENDBRANCH  29  31
BRANCH  28  33
ATOM     33  O   UNL     1       4.005   4.551  -1.751  0.00  0.00    -0.491 OA
ATOM     34  C   UNL     1       4.566   4.563  -3.065  0.00  0.00    +0.277 C 
ENDBRANCH  28  33
ENDBRANCH  24  25
ENDBRANCH  21  24
ENDBRANCH  20  21
ENDBRANCH  19  20
ENDBRANCH   4  19
TORSDOF 9
