REMARK  Name = ZINC64157914
REMARK  9 active torsions:
REMARK  status: ('A' for Active; 'I' for Inactive)
REMARK    1  A    between atoms: C_1  and  C_2
REMARK    2  A    between atoms: C_2  and  C_3
REMARK    3  A    between atoms: C_2  and  C_4
REMARK    4  A    between atoms: C_4  and  N_5
REMARK    5  A    between atoms: C_7  and  C_21
REMARK    6  A    between atoms: C_10  and  C_12
REMARK    7  A    between atoms: N_23  and  C_24
REMARK    8  A    between atoms: C_24  and  C_25
REMARK    9  A    between atoms: C_25  and  C_26
REMARK                            x       y       z     vdW  Elec       q    Type
REMARK                         _______ _______ _______ _____ _____    ______ ____
ROOT
ATOM      1  N   UNL     1      -1.391  -2.137  -0.240  0.00  0.00    -0.351 N 
ATOM      2  C   UNL     1      -1.391  -2.705  -1.457  0.00  0.00    +0.102 A 
ATOM      3  C   UNL     1      -1.386  -4.074  -1.612  0.00  0.00    +0.100 A 
ATOM      4  C   UNL     1      -1.380  -4.913  -0.402  0.00  0.00    +0.206 A 
ATOM      5  O   UNL     1      -1.376  -6.131  -0.473  0.00  0.00    -0.286 OA
ATOM      6  C   UNL     1      -1.381  -4.221   0.897  0.00  0.00    +0.100 A 
ATOM      7  C   UNL     1      -1.381  -2.843   0.903  0.00  0.00    +0.102 A 
ENDROOT
BRANCH   6   8
ATOM      8  C   UNL     1      -1.376  -4.981   2.159  0.00  0.00    +0.252 C 
ATOM      9  O   UNL     1      -0.326  -5.381   2.624  0.00  0.00    -0.270 OA
ATOM     10  N   UNL     1      -2.535  -5.234   2.797  0.00  0.00    -0.297 N 
ATOM     11  C   UNL     1      -3.775  -4.849   2.161  0.00  0.00    +0.108 C 
ATOM     12  C   UNL     1      -4.139  -3.400   2.567  0.00  0.00    +0.019 C 
ATOM     13  C   UNL     1      -4.561  -3.354   3.976  0.00  0.00    +0.002 C 
ATOM     14  C   UNL     1      -3.478  -3.765   4.970  0.00  0.00    +0.002 C 
ATOM     15  C   UNL     1      -3.476  -5.266   5.116  0.00  0.00    +0.019 C 
ATOM     16  C   UNL     1      -2.487  -5.899   4.114  0.00  0.00    +0.108 C 
ENDBRANCH   6   8
BRANCH   3  17
ATOM     17  C   UNL     1      -1.387  -4.682  -2.953  0.00  0.00    +0.249 C 
ATOM     18  O   UNL     1      -1.496  -3.980  -3.940  0.00  0.00    -0.270 OA
ATOM     19  N   UNL     1      -1.266  -6.018  -3.087  0.00  0.00    -0.311 N 
ATOM     20  H   UNL     1      -1.099  -6.571  -2.308  0.00  0.00    +0.149 HD
BRANCH  19  21
ATOM     21  C   UNL     1      -1.385  -6.635  -4.411  0.00  0.00    +0.108 C 
BRANCH  21  22
ATOM     22  C   UNL     1      -1.210  -8.150  -4.285  0.00  0.00    +0.065 C 
BRANCH  22  23
ATOM     23  C   UNL     1      -1.335  -8.794  -5.667  0.00  0.00    +0.175 C 
ATOM     24  N   UNL     1      -0.204  -8.394  -6.514  0.00  0.00    -0.363 N 
ATOM     25  C   UNL     1       0.438  -9.476  -6.846  0.00  0.00    +0.060 A 
ATOM     26  C   UNL     1       1.633  -9.716  -7.667  0.00  0.00    +0.029 A 
ATOM     27  C   UNL     1       2.079 -10.976  -7.840  0.00  0.00    +0.022 A 
ATOM     28  C   UNL     1       1.443 -12.092  -7.263  0.00  0.00    +0.043 A 
ATOM     29  C   UNL     1       0.341 -11.982  -6.492  0.00  0.00    +0.047 A 
ATOM     30  C   UNL     1      -0.235 -10.656  -6.236  0.00  0.00    +0.062 A 
ATOM     31  N   UNL     1      -1.268 -10.256  -5.549  0.00  0.00    -0.363 N 
ATOM     32 CL   UNL     1       2.104 -13.671  -7.552  0.00  0.00    -0.083 Cl
ATOM     33  H   UNL     1       0.023  -7.489  -6.778  0.00  0.00    +0.162 HD
ATOM     34  H   UNL     1      -1.880 -10.820  -5.051  0.00  0.00    +0.162 HD
ENDBRANCH  22  23
ENDBRANCH  21  22
ENDBRANCH  19  21
ENDBRANCH   3  17
BRANCH   1  35
ATOM     35  C   UNL     1      -1.396  -0.675  -0.154  0.00  0.00    +0.124 C 
BRANCH  35  37
ATOM     36  C   UNL     1       0.040   1.369  -0.170  0.00  0.00    +0.009 C 
ATOM     37  C   UNL     1       0.044  -0.160  -0.134  0.00  0.00    +0.003 C 
ATOM     38  C   UNL     1       0.738  -0.638   1.144  0.00  0.00    +0.009 C 
ENDBRANCH  35  37
ENDBRANCH   1  35
TORSDOF 7
