REMARK  Name = ZINC59171101
REMARK  7 active torsions:
REMARK  status: ('A' for Active; 'I' for Inactive)
REMARK    1  A    between atoms: C_1  and  O_2
REMARK    2  A    between atoms: O_2  and  C_3
REMARK    3  A    between atoms: C_8  and  N_9
REMARK    4  A    between atoms: C_11  and  C_23
REMARK    5  A    between atoms: C_17  and  O_20
REMARK    6  A    between atoms: O_20  and  C_21
REMARK    7  A    between atoms: C_23  and  N_25
REMARK                            x       y       z     vdW  Elec       q    Type
REMARK                         _______ _______ _______ _____ _____    ______ ____
ROOT
ATOM      1  N   UNL     1       0.058  -2.696   0.431  0.00  0.00    -0.322 N 
ATOM      2  C   UNL     1      -0.095  -3.996   0.305  0.00  0.00    +0.209 A 
ATOM      3  C   UNL     1       1.073  -4.892   0.184  0.00  0.00    +0.064 A 
ATOM      4  C   UNL     1       0.912  -6.202   0.615  0.00  0.00    +0.027 A 
ATOM      5  C   UNL     1      -0.399  -6.579   1.151  0.00  0.00    +0.023 A 
ATOM      6  C   UNL     1      -0.569  -7.783   1.845  0.00  0.00    +0.027 A 
ATOM      7  C   UNL     1      -1.810  -8.114   2.344  0.00  0.00    +0.022 A 
ATOM      8  C   UNL     1      -2.890  -7.262   2.163  0.00  0.00    +0.064 A 
ATOM      9  C   UNL     1      -2.739  -6.069   1.477  0.00  0.00    +0.164 A 
ATOM     10  C   UNL     1      -1.494  -5.717   0.964  0.00  0.00    +0.179 A 
ATOM     11  O   UNL     1      -1.332  -4.556   0.288  0.00  0.00    -0.435 OA
ATOM     12 BR   UNL     1      -2.042  -9.739   3.282  0.00  0.00    -0.050 Br
ATOM     13  H   UNL     1       0.946  -2.320   0.537  0.00  0.00    +0.169 HD
ENDROOT
BRANCH   1  19
ATOM     14  C   UNL     1      -1.224  -0.929   1.430  0.00  0.00    +0.143 A 
ATOM     15  C   UNL     1      -2.330  -0.098   1.399  0.00  0.00    +0.048 A 
ATOM     16  C   UNL     1      -3.249  -0.203   0.370  0.00  0.00    +0.004 A 
ATOM     17  C   UNL     1      -3.069  -1.138  -0.635  0.00  0.00    +0.002 A 
ATOM     18  C   UNL     1      -1.972  -1.974  -0.619  0.00  0.00    +0.029 A 
ATOM     19  C   UNL     1      -1.035  -1.873   0.412  0.00  0.00    +0.084 A 
BRANCH  14  21
ATOM     20  C   UNL     1      -0.580   0.158   3.444  0.00  0.00    +0.277 C 
ATOM     21  O   UNL     1      -0.321  -0.827   2.441  0.00  0.00    -0.493 OA
ENDBRANCH  14  21
ENDBRANCH   1  19
BRANCH   9  22
ATOM     22  O   UNL     1      -3.805  -5.242   1.305  0.00  0.00    -0.491 OA
ATOM     23  C   UNL     1      -5.052  -5.668   1.859  0.00  0.00    +0.277 C 
ENDBRANCH   9  22
BRANCH   3  24
ATOM     24  C   UNL     1       2.351  -4.417  -0.368  0.00  0.00    +0.082 C 
ATOM     25  S   UNL     1       2.463  -2.845  -1.037  0.00  0.00    -0.035 S 
BRANCH  24  26
ATOM     26  N   UNL     1       3.433  -5.220  -0.348  0.00  0.00    -0.352 N 
ATOM     27  H   UNL     1       3.370  -6.110   0.031  0.00  0.00    +0.143 HD
ATOM     28  H   UNL     1       4.276  -4.907  -0.713  0.00  0.00    +0.143 HD
ENDBRANCH  24  26
ENDBRANCH   3  24
TORSDOF 5
