REMARK  Name = ZINC29592890
REMARK  9 active torsions:
REMARK  status: ('A' for Active; 'I' for Inactive)
REMARK    1  A    between atoms: C_1  and  C_2
REMARK    2  A    between atoms: C_2  and  C_4
REMARK    3  A    between atoms: C_2  and  N_12
REMARK    4  A    between atoms: C_13  and  C_15
REMARK    5  A    between atoms: C_15  and  O_16
REMARK    6  A    between atoms: O_16  and  C_17
REMARK    7  A    between atoms: C_17  and  C_19
REMARK    8  A    between atoms: C_21  and  S_24
REMARK    9  A    between atoms: S_24  and  N_27
REMARK                            x       y       z     vdW  Elec       q    Type
REMARK                         _______ _______ _______ _____ _____    ______ ____
ROOT
ATOM      1  C   UNL     1       2.372   1.127  -0.015  0.00  0.00    +0.328 C 
ENDROOT
BRANCH   1   3
ATOM      2  N   UNL     1       4.807   1.563  -0.035  0.00  0.00    -0.306 N 
ATOM      3  C   UNL     1       3.554   2.061  -0.021  0.00  0.00    +0.251 C 
ATOM      4  O   UNL     1       3.379   3.261  -0.013  0.00  0.00    -0.272 OA
ATOM      5  H   UNL     1       4.966   0.475  -0.043  0.00  0.00    +0.149 HD
BRANCH   2   7
ATOM      6  C   UNL     1       6.265   2.894  -1.479  0.00  0.00    +0.033 C 
ATOM      7  C   UNL     1       5.956   2.471  -0.042  0.00  0.00    +0.102 C 
BRANCH   7   8
ATOM      8  C   UNL     1       7.154   1.769   0.544  0.00  0.00    -0.009 A 
ATOM      9  C   UNL     1       7.231   0.389   0.510  0.00  0.00    +0.008 A 
ATOM     10  C   UNL     1       8.332  -0.255   1.042  0.00  0.00    +0.020 A 
ATOM     11  C   UNL     1       9.353   0.480   1.618  0.00  0.00    +0.042 A 
ATOM     12  C   UNL     1       9.274   1.860   1.657  0.00  0.00    +0.040 A 
ATOM     13  C   UNL     1       8.174   2.505   1.119  0.00  0.00    +0.047 A 
ATOM     14 CL   UNL     1       8.074   4.237   1.168  0.00  0.00    -0.083 Cl
ATOM     15 CL   UNL     1      10.733  -0.330   2.291  0.00  0.00    -0.083 Cl
ENDBRANCH   7   8
ENDBRANCH   2   7
ENDBRANCH   1   3
BRANCH   1  16
ATOM     16  O   UNL     1       1.144   1.901   0.001  0.00  0.00    -0.452 OA
BRANCH  16  17
ATOM     17  C   UNL     1      -0.014   1.211   0.009  0.00  0.00    +0.340 C 
ATOM     18  O   UNL     1       0.002  -0.004   0.002  0.00  0.00    -0.245 OA
BRANCH  17  19
ATOM     19  C   UNL     1      -1.298   1.929   0.019  0.00  0.00    +0.068 A 
ATOM     20  C   UNL     1      -2.555   1.224   0.015  0.00  0.00    +0.051 A 
ATOM     21  C   UNL     1      -3.677   1.970   0.031  0.00  0.00    +0.143 A 
ATOM     22  S   UNL     1      -3.052   3.638   0.036  0.00  0.00    -0.076 S 
ATOM     23  C   UNL     1      -1.352   3.308   0.026  0.00  0.00    +0.062 A 
BRANCH  21  24
ATOM     24  S   UNL     1      -5.353   1.428   0.036  0.00  0.00    +0.062 S 
ATOM     25  O   UNL     1      -6.125   2.491  -0.505  0.00  0.00    -0.153 OA
ATOM     26  O   UNL     1      -5.359   0.121  -0.522  0.00  0.00    -0.153 OA
BRANCH  24  27
ATOM     27  N   UNL     1      -5.811   1.269   1.619  0.00  0.00    -0.203 NA
ATOM     28  H   UNL     1      -6.857   0.931   1.666  0.00  0.00    +0.144 HD
ATOM     29  H   UNL     1      -5.717   2.240   2.128  0.00  0.00    +0.144 HD
ENDBRANCH  24  27
ENDBRANCH  21  24
ENDBRANCH  17  19
ENDBRANCH  16  17
ENDBRANCH   1  16
TORSDOF 8
