REMARK  Name = ZINC12413953
REMARK  7 active torsions:
REMARK  status: ('A' for Active; 'I' for Inactive)
REMARK    1  A    between atoms: C_1  and  N_2
REMARK    2  A    between atoms: N_2  and  C_3
REMARK    3  A    between atoms: N_2  and  N_4
REMARK    4  A    between atoms: N_19  and  C_22
REMARK    5  A    between atoms: C_22  and  C_23
REMARK    6  A    between atoms: C_30  and  C_33
REMARK    7  A    between atoms: C_31  and  N_32
REMARK                            x       y       z     vdW  Elec       q    Type
REMARK                         _______ _______ _______ _____ _____    ______ ____
ROOT
ATOM      1  N   UNL     1      -0.244   3.611   2.271  0.00  0.00    -0.223 N 
ATOM      2  C   UNL     1      -1.390   4.360   2.276  0.00  0.00    +0.037 C 
ATOM      3  C   UNL     1      -1.573   5.343   1.368  0.00  0.00    +0.038 C 
ATOM      4  C   UNL     1      -2.738   6.129   1.375  0.00  0.00    +0.162 C 
ATOM      5  O   UNL     1      -2.876   6.998   0.538  0.00  0.00    -0.292 OA
ATOM      6  C   UNL     1      -3.818   5.913   2.400  0.00  0.00    +0.080 C 
ATOM      7  C   UNL     1      -3.190   5.343   3.676  0.00  0.00    +0.014 C 
ATOM      8  C   UNL     1      -2.441   4.058   3.315  0.00  0.00    +0.053 C 
ATOM      9  C   UNL     1      -0.529   5.625   0.319  0.00  0.00    +0.141 C 
ATOM     10  C   UNL     1      -0.981   5.122  -1.018  0.00  0.00    -0.001 A 
ATOM     11  C   UNL     1      -1.271   3.850  -1.463  0.00  0.00    +0.007 A 
ATOM     12  C   UNL     1      -1.673   3.722  -2.788  0.00  0.00    +0.000 A 
ATOM     13  C   UNL     1      -1.776   4.820  -3.617  0.00  0.00    +0.002 A 
ATOM     14  C   UNL     1      -1.486   6.102  -3.177  0.00  0.00    +0.024 A 
ATOM     15  C   UNL     1      -1.081   6.245  -1.848  0.00  0.00    +0.041 A 
ATOM     16  N   UNL     1      -0.734   7.389  -1.153  0.00  0.00    -0.265 N 
ATOM     17  C   UNL     1      -0.395   7.122   0.125  0.00  0.00    +0.240 C 
ATOM     18  O   UNL     1      -0.049   7.929   0.962  0.00  0.00    -0.274 OA
ATOM     19  C   UNL     1       0.798   5.035   0.690  0.00  0.00    +0.090 C 
ATOM     20  C   UNL     1       0.890   4.065   1.641  0.00  0.00    +0.117 C 
ENDROOT
BRANCH   1  22
ATOM     21  C   UNL     1       0.231   1.339   1.998  0.00  0.00    +0.128 C 
ATOM     22  N   UNL     1      -0.226   2.401   2.904  0.00  0.00    -0.227 NA
ATOM     23  C   UNL     1       0.604   2.453   4.115  0.00  0.00    +0.128 C 
ENDBRANCH   1  22
BRANCH  20  24
ATOM     24  N   UNL     1       2.115   3.536   1.968  0.00  0.00    -0.344 N 
ATOM     25  H   UNL     1       2.169   2.665   2.392  0.00  0.00    +0.144 HD
ATOM     26  H   UNL     1       2.925   4.032   1.774  0.00  0.00    +0.144 HD
ENDBRANCH  20  24
BRANCH  19  27
ATOM     27  C   UNL     1       1.986   5.502   0.041  0.00  0.00    +0.100 C 
ATOM     28  N   UNL     1       2.928   5.872  -0.474  0.00  0.00    -0.191 NA
ENDBRANCH  19  27
BRANCH  16  29
ATOM     29  C   UNL     1      -0.735   8.733  -1.736  0.00  0.00    +0.150 C 
BRANCH  29  30
ATOM     30  C   UNL     1       0.574   8.974  -2.444  0.00  0.00    -0.011 A 
ATOM     31  C   UNL     1       1.494   7.949  -2.564  0.00  0.00    +0.006 A 
ATOM     32  C   UNL     1       2.694   8.170  -3.213  0.00  0.00    +0.000 A 
ATOM     33  C   UNL     1       2.975   9.416  -3.743  0.00  0.00    +0.001 A 
ATOM     34  C   UNL     1       2.056  10.441  -3.624  0.00  0.00    +0.020 A 
ATOM     35  C   UNL     1       0.852  10.219  -2.979  0.00  0.00    +0.046 A 
ATOM     36 CL   UNL     1      -0.306  11.504  -2.835  0.00  0.00    -0.083 Cl
ENDBRANCH  29  30
ENDBRANCH  16  29
TORSDOF 5
