REMARK  Name = ZINC07546883
REMARK  12 active torsions:
REMARK  status: ('A' for Active; 'I' for Inactive)
REMARK    1  A    between atoms: C_1  and  C_2
REMARK    2  A    between atoms: C_3  and  C_33
REMARK    3  A    between atoms: C_4  and  C_32
REMARK    4  A    between atoms: C_7  and  C_8
REMARK    5  A    between atoms: C_8  and  C_10
REMARK    6  A    between atoms: C_10  and  C_12
REMARK    7  A    between atoms: C_10  and  N_60
REMARK    8  A    between atoms: C_13  and  C_14
REMARK    9  A    between atoms: C_13  and  N_60
REMARK   10  A    between atoms: C_14  and  C_16
REMARK   11  A    between atoms: C_14  and  C_22
REMARK   12  A    between atoms: C_33  and  C_35
REMARK                            x       y       z     vdW  Elec       q    Type
REMARK                         _______ _______ _______ _____ _____    ______ ____
ROOT
ATOM      1  C   UNL     1      -2.143   1.326   0.864  0.00  0.00    -0.069 C 
ENDROOT
BRANCH   1   2
ATOM      2  N   UNL     1      -0.928   2.112   0.579  0.00  0.00    +0.386 N 
ATOM      3  H   UNL     1      -1.199   3.055   0.275  0.00  0.00    -0.085 HD
ATOM      4  H   UNL     1      -0.359   2.177   1.431  0.00  0.00    -0.085 HD
BRANCH   2   5
ATOM      5  C   UNL     1      -0.138   1.466  -0.486  0.00  0.00    -0.001 C 
ATOM      6  C   UNL     1      -0.668   1.905  -1.853  0.00  0.00    -0.006 C 
BRANCH   5   7
ATOM      7  C   UNL     1       1.305   1.878  -0.350  0.00  0.00    +0.165 C 
ATOM      8  O   UNL     1       1.603   2.823   0.351  0.00  0.00    -0.292 OA
BRANCH   7  15
ATOM      9  C   UNL     1       4.340   2.533  -0.231  0.00  0.00    +0.047 C 
ATOM     10  C   UNL     1       3.663   1.432  -1.006  0.00  0.00    -0.012 A 
ATOM     11  C   UNL     1       4.292   0.476  -1.836  0.00  0.00    +0.041 A 
ATOM     12  C   UNL     1       3.294  -0.341  -2.346  0.00  0.00    +0.024 A 
ATOM     13  N   UNL     1       2.114   0.071  -1.863  0.00  0.00    -0.355 N 
ATOM     14  H   UNL     1       1.255  -0.332  -2.062  0.00  0.00    +0.166 HD
ATOM     15  C   UNL     1       2.313   1.163  -1.042  0.00  0.00    +0.084 A 
ATOM     16  C   UNL     1       3.502  -1.503  -3.283  0.00  0.00    +0.064 C 
BRANCH  11  17
ATOM     17  C   UNL     1       5.730   0.368  -2.107  0.00  0.00    +0.162 C 
ATOM     18  O   UNL     1       6.224   0.998  -3.018  0.00  0.00    -0.292 OA
ATOM     19  C   UNL     1       6.593  -0.524  -1.253  0.00  0.00    +0.091 C 
ENDBRANCH  11  17
ENDBRANCH   7  15
ENDBRANCH   5   7
ENDBRANCH   2   5
ENDBRANCH   1   2
BRANCH   1  20
ATOM     20  C   UNL     1      -2.941   2.019   1.971  0.00  0.00    +0.034 C 
BRANCH  20  21
ATOM     21  C   UNL     1      -4.243   1.290   2.183  0.00  0.00    -0.017 A 
ATOM     22  C   UNL     1      -4.389   0.007   2.548  0.00  0.00    +0.087 A 
ATOM     23  N   UNL     1      -5.718  -0.303   2.642  0.00  0.00    -0.360 N 
ATOM     24  H   UNL     1      -6.072  -1.171   2.891  0.00  0.00    +0.165 HD
ATOM     25  C   UNL     1      -6.479   0.802   2.334  0.00  0.00    +0.047 A 
ATOM     26  C   UNL     1      -5.588   1.850   2.038  0.00  0.00    +0.003 A 
ATOM     27  C   UNL     1      -6.084   3.108   1.692  0.00  0.00    +0.010 A 
ATOM     28  C   UNL     1      -7.434   3.317   1.644  0.00  0.00    +0.001 A 
ATOM     29  C   UNL     1      -8.317   2.287   1.938  0.00  0.00    +0.002 A 
ATOM     30  C   UNL     1      -7.849   1.035   2.275  0.00  0.00    +0.026 A 
ENDBRANCH  20  21
BRANCH  20  31
ATOM     31  C   UNL     1      -2.143   2.006   3.249  0.00  0.00    -0.042 A 
ATOM     32  C   UNL     1      -1.768   0.803   3.818  0.00  0.00    +0.004 A 
ATOM     33  C   UNL     1      -1.033   0.791   4.988  0.00  0.00    +0.000 A 
ATOM     34  C   UNL     1      -0.679   1.982   5.595  0.00  0.00    +0.000 A 
ATOM     35  C   UNL     1      -1.058   3.184   5.029  0.00  0.00    +0.000 A 
ATOM     36  C   UNL     1      -1.790   3.197   3.856  0.00  0.00    +0.004 A 
ENDBRANCH  20  31
ENDBRANCH   1  20
TORSDOF 8
