REMARK  Name = ZINC54201362
REMARK  9 active torsions:
REMARK  status: ('A' for Active; 'I' for Inactive)
REMARK    1  A    between atoms: C_1  and  N_2
REMARK    2  A    between atoms: N_2  and  C_3
REMARK    3  A    between atoms: N_2  and  C_4
REMARK    4  A    between atoms: C_7  and  C_10
REMARK    5  A    between atoms: C_13  and  C_30
REMARK    6  A    between atoms: C_22  and  C_23
REMARK    7  A    between atoms: C_26  and  O_29
REMARK    8  A    between atoms: C_33  and  O_36
REMARK    9  A    between atoms: O_36  and  C_37
REMARK                            x       y       z     vdW  Elec       q    Type
REMARK                         _______ _______ _______ _____ _____    ______ ____
ROOT
ATOM      1  C   UNL     1      -4.633  -1.896  -0.292  0.00  0.00    +0.135 C 
ATOM      2  C   UNL     1      -5.377  -2.271  -1.588  0.00  0.00    +0.087 C 
ATOM      3  C   UNL     1      -6.835  -2.069  -1.243  0.00  0.00    +0.069 C 
ATOM      4  N   UNL     1      -6.936  -1.666  -0.022  0.00  0.00    -0.182 NA
ATOM      5  N   UNL     1      -5.713  -1.530   0.637  0.00  0.00    -0.200 N 
ATOM      6  C   UNL     1      -5.544  -1.120   1.937  0.00  0.00    +0.149 C 
ATOM      7  N   UNL     1      -4.361  -1.015   2.469  0.00  0.00    -0.153 NA
ATOM      8  C   UNL     1      -4.181  -0.617   3.735  0.00  0.00    +0.302 C 
ATOM      9  O   UNL     1      -3.134  -0.479   4.346  0.00  0.00    -0.260 OA
ATOM     10  S   UNL     1      -5.850  -0.338   4.309  0.00  0.00    -0.026 S 
ATOM     11  C   UNL     1      -6.693  -0.773   2.793  0.00  0.00    +0.057 C 
ATOM     12  C   UNL     1      -8.024  -0.783   2.509  0.00  0.00    +0.026 C 
ENDROOT
BRANCH   1  16
ATOM     13  C   UNL     1      -2.031   1.429  -0.961  0.00  0.00    +0.029 A 
ATOM     14  C   UNL     1      -1.513   0.141  -0.896  0.00  0.00    +0.023 A 
ATOM     15  C   UNL     1      -2.356  -0.931  -0.679  0.00  0.00    +0.007 A 
ATOM     16  C   UNL     1      -3.715  -0.724  -0.527  0.00  0.00    -0.025 A 
ATOM     17  C   UNL     1      -4.234   0.556  -0.592  0.00  0.00    +0.007 A 
ATOM     18  C   UNL     1      -3.396   1.633  -0.803  0.00  0.00    +0.023 A 
BRANCH  13  20
ATOM     19  C   UNL     1      -1.729   3.873  -1.242  0.00  0.00    +0.129 C 
ATOM     20  N   UNL     1      -1.181   2.515  -1.180  0.00  0.00    -0.336 N 
ATOM     21  C   UNL     1       0.258   2.297  -1.347  0.00  0.00    +0.129 C 
ENDBRANCH  13  20
ENDBRANCH   1  16
BRANCH  12  22
ATOM     22  C   UNL     1      -8.982  -0.218   3.465  0.00  0.00    -0.024 A 
ATOM     23  C   UNL     1     -10.359  -0.390   3.266  0.00  0.00    +0.011 A 
ATOM     24  C   UNL     1     -11.253   0.143   4.167  0.00  0.00    +0.046 A 
ATOM     25  C   UNL     1     -10.793   0.851   5.271  0.00  0.00    +0.117 A 
ATOM     26  C   UNL     1      -9.428   1.026   5.473  0.00  0.00    +0.046 A 
ATOM     27  C   UNL     1      -8.524   0.492   4.583  0.00  0.00    +0.011 A 
BRANCH  25  28
ATOM     28  O   UNL     1     -11.680   1.374   6.156  0.00  0.00    -0.507 OA
ATOM     29  H   UNL     1     -11.910   0.778   6.881  0.00  0.00    +0.292 HD
ENDBRANCH  25  28
ENDBRANCH  12  22
BRANCH   3  30
ATOM     30  C   UNL     1      -7.966  -2.297  -2.160  0.00  0.00    -0.002 A 
ATOM     31  C   UNL     1      -7.732  -2.740  -3.465  0.00  0.00    +0.013 A 
ATOM     32  C   UNL     1      -8.793  -2.952  -4.318  0.00  0.00    +0.046 A 
ATOM     33  C   UNL     1     -10.093  -2.725  -3.884  0.00  0.00    +0.120 A 
ATOM     34  C   UNL     1     -10.330  -2.284  -2.589  0.00  0.00    +0.046 A 
ATOM     35  C   UNL     1      -9.276  -2.075  -1.726  0.00  0.00    +0.013 A 
BRANCH  33  36
ATOM     36  O   UNL     1     -11.135  -2.935  -4.730  0.00  0.00    -0.495 OA
ATOM     37  C   UNL     1     -12.446  -2.682  -4.219  0.00  0.00    +0.277 C 
ENDBRANCH  33  36
ENDBRANCH   3  30
TORSDOF 6
