REMARK  Name = ZINC24993269
REMARK  7 active torsions:
REMARK  status: ('A' for Active; 'I' for Inactive)
REMARK    1  A    between atoms: C_4  and  C_7
REMARK    2  A    between atoms: C_7  and  C_9
REMARK    3  A    between atoms: C_7  and  N_18
REMARK    4  A    between atoms: N_18  and  C_19
REMARK    5  A    between atoms: C_19  and  C_20
REMARK    6  A    between atoms: N_22  and  C_23
REMARK    7  A    between atoms: C_26  and  N_29
REMARK                            x       y       z     vdW  Elec       q    Type
REMARK                         _______ _______ _______ _____ _____    ______ ____
ROOT
ATOM      1  N   UNL     1      -0.131   1.241   0.196  0.00  0.00    +0.394 N 
ATOM      2  H   UNL     1      -0.094   0.143   0.251  0.00  0.00    -0.084 HD
ATOM      3  H   UNL     1      -0.680   1.634   1.064  0.00  0.00    -0.084 HD
ENDROOT
BRANCH   1   4
ATOM      4  C   UNL     1       1.236   1.778   0.198  0.00  0.00    +0.027 C 
BRANCH   4   5
ATOM      5  C   UNL     1       2.111   0.920   1.075  0.00  0.00    +0.097 A 
ATOM      6  C   UNL     1       3.375   0.574   0.793  0.00  0.00    +0.051 A 
ATOM      7  C   UNL     1       3.832  -0.255   1.915  0.00  0.00    +0.020 A 
ATOM      8  C   UNL     1       5.023  -0.911   2.221  0.00  0.00    +0.011 A 
ATOM      9  C   UNL     1       5.127  -1.621   3.385  0.00  0.00    +0.001 A 
ATOM     10  C   UNL     1       4.053  -1.694   4.261  0.00  0.00    +0.004 A 
ATOM     11  C   UNL     1       2.867  -1.052   3.975  0.00  0.00    +0.047 A 
ATOM     12  C   UNL     1       2.741  -0.325   2.798  0.00  0.00    +0.135 A 
ATOM     13  O   UNL     1       1.740   0.396   2.256  0.00  0.00    -0.461 OA
ENDBRANCH   4   5
BRANCH   4  17
ATOM     14  C   UNL     1       1.194   5.776   1.702  0.00  0.00    +0.000 A 
ATOM     15  C   UNL     1       2.006   5.448   0.632  0.00  0.00    +0.000 A 
ATOM     16  C   UNL     1       2.019   4.155   0.145  0.00  0.00    +0.002 A 
ATOM     17  C   UNL     1       1.221   3.188   0.729  0.00  0.00    -0.054 A 
ATOM     18  C   UNL     1       0.406   3.517   1.795  0.00  0.00    +0.002 A 
ATOM     19  C   UNL     1       0.396   4.809   2.285  0.00  0.00    +0.000 A 
ENDBRANCH   4  17
ENDBRANCH   1   4
BRANCH   1  20
ATOM     20  C   UNL     1      -0.847   1.627  -1.028  0.00  0.00    +0.017 C 
BRANCH  20  21
ATOM     21  C   UNL     1      -2.242   1.059  -0.994  0.00  0.00    +0.200 C 
ATOM     22  O   UNL     1      -2.605   0.398  -0.043  0.00  0.00    -0.278 OA
ATOM     23  N   UNL     1      -3.087   1.286  -2.019  0.00  0.00    -0.287 N 
ATOM     24  H   UNL     1      -2.790   1.956  -2.839  0.00  0.00    +0.155 HD
BRANCH  23  25
ATOM     25  C   UNL     1      -4.344   0.669  -2.040  0.00  0.00    +0.033 A 
ATOM     26  C   UNL     1      -4.503  -0.602  -1.504  0.00  0.00    +0.025 A 
ATOM     27  C   UNL     1      -5.742  -1.209  -1.522  0.00  0.00    +0.025 A 
ATOM     28  C   UNL     1      -6.829  -0.552  -2.084  0.00  0.00    +0.036 A 
ATOM     29  C   UNL     1      -6.670   0.717  -2.624  0.00  0.00    +0.025 A 
ATOM     30  C   UNL     1      -5.431   1.326  -2.603  0.00  0.00    +0.025 A 
BRANCH  28  31
ATOM     31  N   UNL     1      -8.086  -1.170  -2.105  0.00  0.00    -0.271 N 
ATOM     32  C   UNL     1      -9.269  -0.618  -2.777  0.00  0.00    +0.114 C 
ATOM     33  C   UNL     1     -10.474  -1.379  -2.181  0.00  0.00    +0.029 C 
ATOM     34  C   UNL     1      -9.818  -2.704  -1.729  0.00  0.00    +0.098 C 
ATOM     35  C   UNL     1      -8.363  -2.347  -1.518  0.00  0.00    +0.220 C 
ATOM     36  O   UNL     1      -7.564  -3.023  -0.905  0.00  0.00    -0.275 OA
ENDBRANCH  28  31
ENDBRANCH  23  25
ENDBRANCH  20  21
ENDBRANCH   1  20
TORSDOF 7
