REMARK  Name = ZINC38976060
REMARK  8 active torsions:
REMARK  status: ('A' for Active; 'I' for Inactive)
REMARK    1  A    between atoms: C_1  and  O_2
REMARK    2  A    between atoms: O_2  and  C_3
REMARK    3  A    between atoms: C_6  and  C_9
REMARK    4  A    between atoms: C_9  and  C_10
REMARK    5  A    between atoms: C_10  and  N_11
REMARK    6  A    between atoms: N_11  and  C_12
REMARK    7  A    between atoms: N_15  and  S_16
REMARK    8  A    between atoms: S_16  and  C_19
REMARK                            x       y       z     vdW  Elec       q    Type
REMARK                         _______ _______ _______ _____ _____    ______ ____
ROOT
ATOM      1  C   UNL     1       1.310  -3.735   7.651  0.00  0.00    +0.217 C 
ATOM      2  C   UNL     1       1.944  -3.240   8.932  0.00  0.00    +0.167 C 
ATOM      3  N   UNL     1       2.306  -1.997   9.051  0.00  0.00    -0.111 NA
ATOM      4  N   UNL     1       2.127  -4.103   9.944  0.00  0.00    -0.338 N 
ATOM      5  C   UNL     1       1.770  -5.367   9.847  0.00  0.00    +0.064 A 
ATOM      6  C   UNL     1       1.979  -6.250  10.937  0.00  0.00    +0.028 A 
ATOM      7  C   UNL     1       1.615  -7.548  10.843  0.00  0.00    +0.002 A 
ATOM      8  C   UNL     1       1.021  -8.089   9.691  0.00  0.00    +0.002 A 
ATOM      9  C   UNL     1       0.777  -7.335   8.596  0.00  0.00    +0.027 A 
ATOM     10  C   UNL     1       1.144  -5.911   8.617  0.00  0.00    +0.060 A 
ATOM     11  N   UNL     1       0.924  -5.153   7.580  0.00  0.00    -0.362 N 
ATOM     12  H   UNL     1       0.514  -5.516   6.780  0.00  0.00    +0.162 HD
ATOM     13  H   UNL     1       2.534  -3.788  10.766  0.00  0.00    +0.167 HD
ENDROOT
BRANCH   3  14
ATOM     14  S   UNL     1       2.998  -1.468  10.459  0.00  0.00    +0.107 S 
ATOM     15  O   UNL     1       1.998  -1.560  11.464  0.00  0.00    -0.146 OA
ATOM     16  O   UNL     1       4.251  -2.129  10.569  0.00  0.00    -0.146 OA
BRANCH  14  17
ATOM     17  C   UNL     1       3.350   0.247  10.254  0.00  0.00    +0.150 A 
ATOM     18  C   UNL     1       2.570   1.318  10.538  0.00  0.00    +0.037 A 
ATOM     19  C   UNL     1       3.059   2.588  10.293  0.00  0.00    +0.010 A 
ATOM     20  C   UNL     1       4.305   2.724   9.776  0.00  0.00    +0.047 A 
ATOM     21  S   UNL     1       4.830   1.024   9.626  0.00  0.00    -0.076 S 
ENDBRANCH  14  17
ENDBRANCH   3  14
BRANCH   1  22
ATOM     22  N   UNL     1       2.251  -3.472   6.554  0.00  0.00    -0.290 NA
ATOM     23  H   UNL     1       2.703  -4.322   6.253  0.00  0.00    +0.124 HD
BRANCH  22  24
ATOM     24  C   UNL     1       1.577  -2.808   5.431  0.00  0.00    +0.088 C 
BRANCH  24  25
ATOM     25  C   UNL     1       2.587  -2.550   4.310  0.00  0.00    +0.050 C 
BRANCH  25  29
ATOM     26  C   UNL     1       0.626  -0.618   1.042  0.00  0.00    +0.120 A 
ATOM     27  C   UNL     1       1.202   0.138   2.051  0.00  0.00    +0.046 A 
ATOM     28  C   UNL     1       1.835  -0.488   3.107  0.00  0.00    +0.007 A 
ATOM     29  C   UNL     1       1.895  -1.869   3.158  0.00  0.00    -0.046 A 
ATOM     30  C   UNL     1       1.322  -2.625   2.152  0.00  0.00    +0.007 A 
ATOM     31  C   UNL     1       0.682  -2.003   1.098  0.00  0.00    +0.046 A 
BRANCH  26  33
ATOM     32  C   UNL     1      -0.017   1.425   0.010  0.00  0.00    +0.277 C 
ATOM     33  O   UNL     1       0.002  -0.004   0.002  0.00  0.00    -0.495 OA
ENDBRANCH  26  33
ENDBRANCH  25  29
ENDBRANCH  24  25
ENDBRANCH  22  24
ENDBRANCH   1  22
TORSDOF 7
