REMARK  Name = ZINC10813179
REMARK  8 active torsions:
REMARK  status: ('A' for Active; 'I' for Inactive)
REMARK    1  A    between atoms: C_1  and  C_2
REMARK    2  A    between atoms: C_2  and  C_4
REMARK    3  A    between atoms: C_2  and  S_11
REMARK    4  A    between atoms: N_9  and  C_10
REMARK    5  A    between atoms: S_11  and  C_12
REMARK    6  A    between atoms: C_17  and  C_19
REMARK    7  A    between atoms: N_27  and  C_28
REMARK    8  A    between atoms: C_28  and  C_29
REMARK                            x       y       z     vdW  Elec       q    Type
REMARK                         _______ _______ _______ _____ _____    ______ ____
ROOT
ATOM      1  C   UNL     1      -2.992   0.306  -0.948  0.00  0.00    +0.174 A 
ATOM      2  N   UNL     1      -3.742  -0.120  -1.944  0.00  0.00    -0.216 NA
ATOM      3  C   UNL     1      -3.695   0.466  -3.132  0.00  0.00    +0.117 A 
ATOM      4  C   UNL     1      -2.851   1.565  -3.393  0.00  0.00    +0.073 A 
ATOM      5  C   UNL     1      -2.910   2.081  -4.700  0.00  0.00    +0.031 A 
ATOM      6  C   UNL     1      -3.744   1.519  -5.611  0.00  0.00    +0.022 A 
ATOM      7  S   UNL     1      -4.517   0.205  -4.684  0.00  0.00    -0.068 S 
ATOM      8  C   UNL     1      -2.053   2.009  -2.289  0.00  0.00    +0.263 A 
ATOM      9  O   UNL     1      -1.295   2.956  -2.416  0.00  0.00    -0.267 OA
ATOM     10  N   UNL     1      -2.146   1.365  -1.112  0.00  0.00    -0.283 N 
ENDROOT
BRANCH   6  11
ATOM     11  C   UNL     1      -3.958   1.900  -7.022  0.00  0.00    -0.011 A 
ATOM     12  C   UNL     1      -3.255   2.973  -7.573  0.00  0.00    +0.009 A 
ATOM     13  C   UNL     1      -3.456   3.321  -8.893  0.00  0.00    +0.001 A 
ATOM     14  C   UNL     1      -4.361   2.616  -9.667  0.00  0.00    +0.000 A 
ATOM     15  C   UNL     1      -5.065   1.555  -9.126  0.00  0.00    +0.001 A 
ATOM     16  C   UNL     1      -4.869   1.193  -7.809  0.00  0.00    +0.009 A 
ENDBRANCH   6  11
BRANCH   1  17
ATOM     17  S   UNL     1      -3.083  -0.499   0.617  0.00  0.00    -0.075 S 
BRANCH  17  19
ATOM     18  C   UNL     1      -3.755  -2.738  -0.798  0.00  0.00    +0.029 C 
ATOM     19  C   UNL     1      -4.318  -1.770   0.244  0.00  0.00    +0.137 C 
BRANCH  19  20
ATOM     20  C   UNL     1      -4.654  -2.527   1.503  0.00  0.00    +0.233 C 
ATOM     21  O   UNL     1      -3.892  -2.507   2.445  0.00  0.00    -0.274 OA
ATOM     22  N   UNL     1      -5.804  -3.227   1.581  0.00  0.00    -0.239 N 
ATOM     23  C   UNL     1      -6.105  -3.904   2.707  0.00  0.00    +0.306 C 
ATOM     24  O   UNL     1      -5.340  -3.884   3.651  0.00  0.00    -0.252 OA
ATOM     25  N   UNL     1      -7.254  -4.603   2.785  0.00  0.00    -0.302 N 
ATOM     26  C   UNL     1      -7.582  -5.339   4.009  0.00  0.00    +0.129 C 
ATOM     27  H   UNL     1      -6.496  -3.245   0.727  0.00  0.00    +0.159 HD
ATOM     28  H   UNL     1      -7.947  -4.621   1.931  0.00  0.00    +0.150 HD
ENDBRANCH  19  20
ENDBRANCH  17  19
ENDBRANCH   1  17
BRANCH  10  29
ATOM     29  C   UNL     1      -1.328   1.812   0.018  0.00  0.00    +0.154 C 
BRANCH  29  30
ATOM     30  C   UNL     1      -0.013   1.076   0.008  0.00  0.00    -0.013 C 
ATOM     31  C   UNL     1       1.113   1.746   0.001  0.00  0.00    +0.005 C 
ENDBRANCH  29  30
ENDBRANCH  10  29
TORSDOF 6
