REMARK  Name = ZINC12083105
REMARK  5 active torsions:
REMARK  status: ('A' for Active; 'I' for Inactive)
REMARK    1  A    between atoms: C_1  and  C_2
REMARK    2  A    between atoms: C_9  and  N_14
REMARK    3  A    between atoms: C_15  and  C_17
REMARK    4  A    between atoms: C_18  and  C_19
REMARK    5  A    between atoms: C_22  and  N_25
REMARK                            x       y       z     vdW  Elec       q    Type
REMARK                         _______ _______ _______ _____ _____    ______ ____
ROOT
ATOM      1  N   UNL     1      -4.814   1.513   6.061  0.00  0.00    -0.282 N 
ATOM      2  C   UNL     1      -6.126   1.820   6.061  0.00  0.00    +0.241 C 
ATOM      3  O   UNL     1      -6.728   1.915   5.007  0.00  0.00    -0.270 OA
ATOM      4  H   UNL     1      -4.351   1.362   6.900  0.00  0.00    +0.155 HD
ENDROOT
BRANCH   1  12
ATOM      5  C   UNL     1      -1.864   1.543  -1.092  0.00  0.00    +0.062 C 
ATOM      6  C   UNL     1      -2.819   1.357   0.088  0.00  0.00    +0.256 C 
ATOM      7  C   UNL     1      -3.645   2.606   0.267  0.00  0.00    +0.258 C 
ATOM      8  O   UNL     1      -3.896   3.312  -0.687  0.00  0.00    -0.271 OA
ATOM      9  N   UNL     1      -4.106   2.935   1.493  0.00  0.00    -0.279 N 
ATOM     10  C   UNL     1      -3.773   2.121   2.585  0.00  0.00    +0.077 A 
ATOM     11  C   UNL     1      -4.464   2.225   3.780  0.00  0.00    +0.050 A 
ATOM     12  C   UNL     1      -4.118   1.410   4.851  0.00  0.00    +0.036 A 
ATOM     13  C   UNL     1      -3.082   0.494   4.720  0.00  0.00    +0.027 A 
ATOM     14  C   UNL     1      -2.392   0.390   3.527  0.00  0.00    +0.049 A 
ATOM     15  C   UNL     1      -2.734   1.200   2.458  0.00  0.00    +0.143 A 
ATOM     16  O   UNL     1      -2.064   1.107   1.277  0.00  0.00    -0.478 OA
ATOM     17  H   UNL     1      -4.658   3.723   1.617  0.00  0.00    +0.155 HD
ENDBRANCH   1  12
BRANCH   2  18
ATOM     18  C   UNL     1      -6.826   2.041   7.327  0.00  0.00    +0.068 C 
ATOM     19  C   UNL     1      -8.139   2.349   7.327  0.00  0.00    +0.013 C 
BRANCH  19  20
ATOM     20  C   UNL     1      -8.843   2.571   8.600  0.00  0.00    -0.025 A 
ATOM     21  C   UNL     1      -8.156   2.457   9.812  0.00  0.00    +0.010 A 
ATOM     22  C   UNL     1      -8.822   2.671  11.001  0.00  0.00    +0.033 A 
ATOM     23  C   UNL     1     -10.169   2.987  10.996  0.00  0.00    +0.126 A 
ATOM     24  C   UNL     1     -10.858   3.096   9.800  0.00  0.00    +0.033 A 
ATOM     25  C   UNL     1     -10.205   2.890   8.603  0.00  0.00    +0.010 A 
BRANCH  23  26
ATOM     26  N   UNL     1     -10.877   3.210  12.276  0.00  0.00    +0.056 N 
ATOM     27  O   UNL     1     -12.063   3.488  12.276  0.00  0.00    -0.126 OA
ATOM     28  O   UNL     1     -10.275   3.115  13.331  0.00  0.00    -0.126 OA
ENDBRANCH  23  26
ENDBRANCH  19  20
ENDBRANCH   2  18
TORSDOF 4
