REMARK  Name = ZINC09404201
REMARK  11 active torsions:
REMARK  status: ('A' for Active; 'I' for Inactive)
REMARK    1  A    between atoms: C_1  and  C_2
REMARK    2  A    between atoms: C_2  and  C_3
REMARK    3  A    between atoms: C_2  and  C_4
REMARK    4  A    between atoms: C_2  and  C_5
REMARK    5  A    between atoms: C_8  and  C_11
REMARK    6  A    between atoms: N_13  and  C_14
REMARK    7  A    between atoms: C_14  and  C_15
REMARK    8  A    between atoms: C_18  and  S_27
REMARK    9  A    between atoms: N_19  and  C_20
REMARK   10  A    between atoms: S_27  and  C_28
REMARK   11  A    between atoms: C_28  and  C_29
REMARK                            x       y       z     vdW  Elec       q    Type
REMARK                         _______ _______ _______ _____ _____    ______ ____
ROOT
ATOM      1  C   UNL     1       3.737   6.228   0.001  0.00  0.00    +0.156 A 
ATOM      2  N   UNL     1       4.472   6.491   1.045  0.00  0.00    -0.132 NA
ATOM      3  N   UNL     1       5.629   6.910   0.677  0.00  0.00    -0.122 NA
ATOM      4  C   UNL     1       5.697   6.946  -0.634  0.00  0.00    +0.197 A 
ATOM      5  N   UNL     1       4.489   6.511  -1.108  0.00  0.00    -0.273 N 
ENDROOT
BRANCH   5   6
ATOM      6  C   UNL     1       4.103   6.382  -2.451  0.00  0.00    +0.050 A 
ATOM      7  C   UNL     1       3.833   5.127  -2.979  0.00  0.00    +0.029 A 
ATOM      8  C   UNL     1       3.447   5.002  -4.299  0.00  0.00    +0.040 A 
ATOM      9  C   UNL     1       3.340   6.128  -5.099  0.00  0.00    +0.124 A 
ATOM     10  C   UNL     1       3.614   7.380  -4.576  0.00  0.00    +0.040 A 
ATOM     11  C   UNL     1       3.995   7.509  -3.254  0.00  0.00    +0.029 A 
ATOM     12  F   UNL     1       2.968   6.003  -6.392  0.00  0.00    -0.205 F 
ENDBRANCH   5   6
BRANCH   1  13
ATOM     13  C   UNL     1       2.321   5.714   0.012  0.00  0.00    +0.181 C 
BRANCH  13  16
ATOM     14  C   UNL     1       1.172   3.565   0.011  0.00  0.00    +0.244 C 
ATOM     15  O   UNL     1       0.114   4.164   0.024  0.00  0.00    -0.270 OA
ATOM     16  N   UNL     1       2.333   4.249   0.003  0.00  0.00    -0.304 N 
ATOM     17  H   UNL     1       3.177   3.771  -0.008  0.00  0.00    +0.149 HD
BRANCH  14  21
ATOM     18  C   UNL     1       1.208  -0.682  -0.013  0.00  0.00    -0.042 A 
ATOM     19  C   UNL     1       0.002  -0.004   0.002  0.00  0.00    +0.005 A 
ATOM     20  C   UNL     1      -0.017   1.375   0.010  0.00  0.00    +0.013 A 
ATOM     21  C   UNL     1       1.184   2.087   0.002  0.00  0.00    +0.037 A 
ATOM     22  C   UNL     1       2.397   1.396  -0.013  0.00  0.00    +0.013 A 
ATOM     23  C   UNL     1       2.402   0.016  -0.021  0.00  0.00    +0.005 A 
BRANCH  18  25
ATOM     24  C   UNL     1       0.491  -2.699  -1.266  0.00  0.00    +0.015 C 
ATOM     25  C   UNL     1       1.221  -2.189  -0.021  0.00  0.00    -0.013 C 
ATOM     26  C   UNL     1       2.667  -2.687  -0.037  0.00  0.00    +0.015 C 
ATOM     27  C   UNL     1       0.516  -2.712   1.233  0.00  0.00    +0.015 C 
ENDBRANCH  18  25
ENDBRANCH  14  21
ENDBRANCH  13  16
ENDBRANCH   1  13
BRANCH   4  28
ATOM     28  S   UNL     1       7.079   7.458  -1.599  0.00  0.00    -0.076 S 
BRANCH  28  29
ATOM     29  C   UNL     1       8.248   7.871  -0.280  0.00  0.00    +0.173 C 
BRANCH  29  30
ATOM     30  C   UNL     1       9.542   8.348  -0.886  0.00  0.00    +0.229 C 
ATOM     31  O   UNL     1       9.663   8.403  -2.092  0.00  0.00    -0.275 OA
ATOM     32  N   UNL     1      10.566   8.713  -0.089  0.00  0.00    -0.264 N 
ATOM     33  C   UNL     1      11.759   9.153  -0.649  0.00  0.00    +0.164 A 
ATOM     34  N   UNL     1      12.082   9.276  -1.921  0.00  0.00    -0.233 NA
ATOM     35  C   UNL     1      13.270   9.718  -2.285  0.00  0.00    +0.120 A 
ATOM     36  C   UNL     1      14.166  10.035  -1.318  0.00  0.00    +0.068 A 
ATOM     37  S   UNL     1      13.211   9.674   0.149  0.00  0.00    -0.061 S 
ATOM     38  H   UNL     1      10.469   8.669   0.875  0.00  0.00    +0.157 HD
ENDBRANCH  29  30
ENDBRANCH  28  29
ENDBRANCH   4  28
TORSDOF 8
