REMARK  Name = ZINC48312068
REMARK  14 active torsions:
REMARK  status: ('A' for Active; 'I' for Inactive)
REMARK    1  A    between atoms: C_1  and  C_2
REMARK    2  A    between atoms: C_5  and  C_33
REMARK    3  A    between atoms: C_6  and  O_8
REMARK    4  A    between atoms: O_8  and  C_9
REMARK    5  A    between atoms: C_9  and  C_10
REMARK    6  A    between atoms: N_12  and  C_13
REMARK    7  A    between atoms: C_16  and  N_20
REMARK    8  A    between atoms: C_21  and  C_23
REMARK    9  A    between atoms: C_23  and  C_25
REMARK   10  A    between atoms: C_23  and  N_26
REMARK   11  A    between atoms: C_27  and  C_32
REMARK   12  A    between atoms: C_29  and  C_31
REMARK   13  A    between atoms: C_33  and  C_34
REMARK   14  A    between atoms: C_33  and  C_35
REMARK                            x       y       z     vdW  Elec       q    Type
REMARK                         _______ _______ _______ _____ _____    ______ ____
ROOT
ATOM      1  C   UNL     1       0.147  -3.340   7.058  0.00  0.00    +0.035 A 
ATOM      2  C   UNL     1       0.270  -4.702   6.814  0.00  0.00    +0.025 A 
ATOM      3  C   UNL     1       0.383  -5.585   7.869  0.00  0.00    +0.026 A 
ATOM      4  C   UNL     1       0.375  -5.112   9.174  0.00  0.00    +0.052 A 
ATOM      5  C   UNL     1       0.251  -3.750   9.419  0.00  0.00    +0.064 A 
ATOM      6  C   UNL     1       0.143  -2.866   8.363  0.00  0.00    +0.045 A 
ATOM      7 CL   UNL     1       0.240  -3.158  11.051  0.00  0.00    -0.082 Cl
ENDROOT
BRANCH   1  10
ATOM      8  C   UNL     1       0.597  -1.224   6.066  0.00  0.00    +0.255 C 
ATOM      9  O   UNL     1       1.133  -0.869   7.094  0.00  0.00    -0.272 OA
ATOM     10  N   UNL     1       0.032  -2.445   5.987  0.00  0.00    -0.283 N 
ATOM     11  H   UNL     1      -0.454  -2.704   5.188  0.00  0.00    +0.155 HD
BRANCH   8  12
ATOM     12  C   UNL     1       0.562  -0.299   4.877  0.00  0.00    +0.324 C 
BRANCH  12  13
ATOM     13  O   UNL     1       1.221   0.925   5.206  0.00  0.00    -0.482 OA
BRANCH  13  19
ATOM     14  C   UNL     1       0.158   2.340   0.657  0.00  0.00    +0.044 C 
ATOM     15  C   UNL     1       0.772   2.601   2.008  0.00  0.00    -0.047 A 
ATOM     16  C   UNL     1       1.396   3.809   2.261  0.00  0.00    +0.004 A 
ATOM     17  C   UNL     1       1.961   4.052   3.499  0.00  0.00    +0.008 A 
ATOM     18  C   UNL     1       1.903   3.088   4.487  0.00  0.00    -0.003 A 
ATOM     19  C   UNL     1       1.279   1.875   4.236  0.00  0.00    +0.125 A 
ATOM     20  C   UNL     1       0.707   1.636   2.994  0.00  0.00    +0.049 A 
BRANCH  18  21
ATOM     21  C   UNL     1       2.520   3.353   5.836  0.00  0.00    +0.016 C 
ATOM     22  C   UNL     1       4.017   3.622   5.669  0.00  0.00    +0.012 C 
ATOM     23  C   UNL     1       1.851   4.574   6.472  0.00  0.00    +0.012 C 
ENDBRANCH  18  21
ENDBRANCH  13  19
ENDBRANCH  12  13
ENDBRANCH   8  12
ENDBRANCH   1  10
BRANCH   4  24
ATOM     24  N   UNL     1       0.489  -6.009  10.245  0.00  0.00    -0.283 N 
ATOM     25  C   UNL     1       1.259  -7.109  10.124  0.00  0.00    +0.242 C 
ATOM     26  O   UNL     1       1.786  -7.366   9.062  0.00  0.00    -0.273 OA
ATOM     27  H   UNL     1       0.015  -5.838  11.074  0.00  0.00    +0.155 HD
BRANCH  25  28
ATOM     28  C   UNL     1       1.465  -8.019  11.307  0.00  0.00    +0.190 C 
ATOM     29  C   UNL     1       0.113  -8.563  11.773  0.00  0.00    +0.042 C 
BRANCH  28  30
ATOM     30  N   UNL     1       2.333  -9.133  10.921  0.00  0.00    -0.257 N 
ATOM     31  C   UNL     1       3.525  -9.441  11.475  0.00  0.00    +0.037 A 
ATOM     32  C   UNL     1       4.006 -10.534  10.839  0.00  0.00    +0.047 A 
ATOM     33  C   UNL     1       3.077 -10.907   9.862  0.00  0.00    +0.060 A 
ATOM     34  N   UNL     1       2.071 -10.072   9.915  0.00  0.00    -0.176 NA
ATOM     35  C   UNL     1       3.208 -12.074   8.918  0.00  0.00    +0.067 C 
ATOM     36  C   UNL     1       4.199  -8.699  12.600  0.00  0.00    +0.065 C 
ENDBRANCH  28  30
ENDBRANCH  25  28
ENDBRANCH   4  24
TORSDOF 8
