REMARK  Name = ZINC43224437
REMARK  18 active torsions:
REMARK  status: ('A' for Active; 'I' for Inactive)
REMARK    1  A    between atoms: C_2  and  C_3
REMARK    2  A    between atoms: C_3  and  N_4
REMARK    3  A    between atoms: N_4  and  C_5
REMARK    4  A    between atoms: C_5  and  N_7
REMARK    5  A    between atoms: N_7  and  N_8
REMARK    6  A    between atoms: C_9  and  C_10
REMARK    7  A    between atoms: C_10  and  C_19
REMARK    8  A    between atoms: N_11  and  N_12
REMARK    9  A    between atoms: N_12  and  C_13
REMARK   10  A    between atoms: C_13  and  N_15
REMARK   11  A    between atoms: N_15  and  C_16
REMARK   12  A    between atoms: C_16  and  C_17
REMARK   13  A    between atoms: C_19  and  C_21
REMARK   14  A    between atoms: C_21  and  C_23
REMARK   15  A    between atoms: C_21  and  O_28
REMARK   16  A    between atoms: C_23  and  C_25
REMARK   17  A    between atoms: C_23  and  O_27
REMARK   18  A    between atoms: C_25  and  O_26
REMARK                            x       y       z     vdW  Elec       q    Type
REMARK                         _______ _______ _______ _____ _____    ______ ____
ROOT
ATOM      1  C   UNL     1       3.740  -4.704   4.286  0.00  0.00    +0.113 C 
ATOM      2  N   UNL     1       4.907  -4.158   4.470  0.00  0.00    -0.181 NA
ENDROOT
BRANCH   1   3
ATOM      3  C   UNL     1       3.303  -5.857   5.152  0.00  0.00    +0.239 C 
ATOM      4  O   UNL     1       2.029  -6.330   4.710  0.00  0.00    -0.222 OA
BRANCH   3   5
ATOM      5  C   UNL     1       3.196  -5.391   6.606  0.00  0.00    +0.183 C 
BRANCH   5   6
ATOM      6  O   UNL     1       2.192  -4.381   6.710  0.00  0.00    -0.386 OA
ATOM      7  H   UNL     1       1.316  -4.719   6.942  0.00  0.00    +0.210 HD
ENDBRANCH   5   6
BRANCH   5   8
ATOM      8  C   UNL     1       2.820  -6.578   7.496  0.00  0.00    +0.171 C 
BRANCH   8   9
ATOM      9  O   UNL     1       1.588  -7.141   7.043  0.00  0.00    -0.387 OA
ATOM     10  H   UNL     1       0.821  -6.566   7.172  0.00  0.00    +0.210 HD
ENDBRANCH   8   9
BRANCH   8  11
ATOM     11  C   UNL     1       2.663  -6.102   8.941  0.00  0.00    +0.189 C 
BRANCH  11  12
ATOM     12  O   UNL     1       2.426  -7.226   9.790  0.00  0.00    -0.392 OA
ATOM     13  H   UNL     1       2.316  -6.999  10.723  0.00  0.00    +0.210 HD
ENDBRANCH  11  12
ENDBRANCH   8  11
ENDBRANCH   5   8
ENDBRANCH   3   5
ENDBRANCH   1   3
BRANCH   2  14
ATOM     14  N   UNL     1       5.267  -3.014   3.746  0.00  0.00    -0.218 N 
ATOM     15  H   UNL     1       4.620  -2.584   3.165  0.00  0.00    +0.176 HD
BRANCH  14  16
ATOM     16  C   UNL     1       6.512  -2.510   3.857  0.00  0.00    +0.150 C 
ATOM     17  S   UNL     1       6.914  -1.042   3.074  0.00  0.00    -0.017 S 
BRANCH  16  18
ATOM     18  N   UNL     1       7.441  -3.163   4.584  0.00  0.00    -0.322 N 
ATOM     19  H   UNL     1       7.213  -3.994   5.028  0.00  0.00    +0.148 HD
BRANCH  18  20
ATOM     20  C   UNL     1       8.794  -2.615   4.705  0.00  0.00    +0.130 C 
BRANCH  20  21
ATOM     21  C   UNL     1       9.631  -3.528   5.564  0.00  0.00    -0.016 C 
ATOM     22  C   UNL     1      10.763  -4.001   5.107  0.00  0.00    +0.005 C 
ENDBRANCH  20  21
ENDBRANCH  18  20
ENDBRANCH  16  18
ENDBRANCH  14  16
ENDBRANCH   2  14
BRANCH   1  24
ATOM     23  N   UNL     1       1.655  -4.691   3.107  0.00  0.00    -0.187 NA
ATOM     24  C   UNL     1       2.853  -4.199   3.239  0.00  0.00    +0.158 C 
BRANCH  23  25
ATOM     25  N   UNL     1       0.813  -4.793   4.222  0.00  0.00    -0.218 N 
ATOM     26  H   UNL     1       1.165  -5.113   5.068  0.00  0.00    +0.176 HD
BRANCH  25  27
ATOM     27  C   UNL     1      -0.485  -4.446   4.120  0.00  0.00    +0.150 C 
ATOM     28  S   UNL     1      -1.511  -4.557   5.487  0.00  0.00    -0.017 S 
BRANCH  27  29
ATOM     29  N   UNL     1      -0.976  -4.011   2.943  0.00  0.00    -0.322 N 
ATOM     30  H   UNL     1      -0.395  -3.948   2.169  0.00  0.00    +0.148 HD
BRANCH  29  31
ATOM     31  C   UNL     1      -2.387  -3.634   2.832  0.00  0.00    +0.130 C 
BRANCH  31  33
ATOM     32  C   UNL     1      -3.640  -3.756   0.740  0.00  0.00    +0.005 C 
ATOM     33  C   UNL     1      -2.678  -3.186   1.423  0.00  0.00    -0.016 C 
ENDBRANCH  31  33
ENDBRANCH  29  31
ENDBRANCH  27  29
ENDBRANCH  25  27
ENDBRANCH  23  25
ENDBRANCH   1  24
TORSDOF 18
