REMARK  Name = ZINC08451185
REMARK  12 active torsions:
REMARK  status: ('A' for Active; 'I' for Inactive)
REMARK    1  A    between atoms: C_1  and  C_2
REMARK    2  A    between atoms: C_2  and  O_3
REMARK    3  A    between atoms: O_3  and  C_4
REMARK    4  A    between atoms: C_4  and  C_6
REMARK    5  A    between atoms: C_7  and  C_22
REMARK    6  A    between atoms: C_9  and  N_21
REMARK    7  A    between atoms: C_10  and  C_19
REMARK    8  A    between atoms: C_11  and  C_13
REMARK    9  A    between atoms: C_22  and  S_23
REMARK   10  A    between atoms: S_23  and  C_24
REMARK   11  A    between atoms: C_25  and  C_34
REMARK   12  A    between atoms: C_33  and  N_59
REMARK                            x       y       z     vdW  Elec       q    Type
REMARK                         _______ _______ _______ _____ _____    ______ ____
ROOT
ATOM      1  C   UNL     1       4.315  -0.437   1.057  0.00  0.00    +0.088 C 
ATOM      2  C   UNL     1       5.594  -0.042   1.079  0.00  0.00    +0.128 C 
ATOM      3  O   UNL     1       6.159   0.614   0.054  0.00  0.00    -0.444 OA
ATOM      4  C   UNL     1       5.583   0.562  -1.160  0.00  0.00    +0.198 C 
ATOM      5  C   UNL     1       4.288   0.202  -1.319  0.00  0.00    +0.098 C 
ATOM      6  C   UNL     1       3.437  -0.162  -0.133  0.00  0.00    +0.105 C 
ENDROOT
BRANCH   6   7
ATOM      7  C   UNL     1       2.506   0.981   0.185  0.00  0.00    -0.032 A 
ATOM      8  C   UNL     1       1.131   0.806   0.154  0.00  0.00    +0.024 A 
ATOM      9  C   UNL     1       0.310   1.877   0.450  0.00  0.00    +0.111 A 
ATOM     10  N   UNL     1       0.820   3.053   0.760  0.00  0.00    -0.263 NA
ATOM     11  C   UNL     1       2.122   3.255   0.800  0.00  0.00    +0.111 A 
ATOM     12  C   UNL     1       3.006   2.232   0.515  0.00  0.00    +0.024 A 
ENDBRANCH   6   7
BRANCH   4  13
ATOM     13  N   UNL     1       6.329   0.883  -2.266  0.00  0.00    -0.328 N 
ATOM     14  H   UNL     1       7.258   1.143  -2.167  0.00  0.00    +0.145 HD
ATOM     15  H   UNL     1       5.926   0.850  -3.148  0.00  0.00    +0.145 HD
ENDBRANCH   4  13
BRANCH   1  16
ATOM     16  C   UNL     1       3.780  -1.125   2.173  0.00  0.00    +0.339 C 
ATOM     17  O   UNL     1       4.295  -1.001   3.269  0.00  0.00    -0.245 OA
BRANCH  16  18
ATOM     18  O   UNL     1       2.699  -1.918   2.022  0.00  0.00    -0.462 OA
BRANCH  18  20
ATOM     19  C   UNL     1       0.992  -3.429   2.825  0.00  0.00    +0.048 C 
ATOM     20  C   UNL     1       2.212  -2.582   3.191  0.00  0.00    +0.229 C 
ENDBRANCH  18  20
ENDBRANCH  16  18
ENDBRANCH   1  16
BRANCH   5  21
ATOM     21  C   UNL     1       3.723   0.165  -2.635  0.00  0.00    +0.101 C 
ATOM     22  N   UNL     1       3.274   0.137  -3.678  0.00  0.00    -0.191 NA
ENDBRANCH   5  21
BRANCH   2  23
ATOM     23  C   UNL     1       6.429  -0.346   2.296  0.00  0.00    +0.150 C 
BRANCH  23  24
ATOM     24  S   UNL     1       6.636   1.161   3.277  0.00  0.00    -0.097 S 
BRANCH  24  25
ATOM     25  C   UNL     1       7.620   0.533   4.598  0.00  0.00    +0.115 A 
ATOM     26  C   UNL     1       8.037   1.393   5.630  0.00  0.00    +0.084 A 
ATOM     27  C   UNL     1       8.815   0.864   6.664  0.00  0.00    +0.025 A 
ATOM     28  C   UNL     1       9.152  -0.482   6.625  0.00  0.00    -0.041 A 
ATOM     29  C   UNL     1       8.708  -1.264   5.579  0.00  0.00    +0.042 A 
ATOM     30  N   UNL     1       7.968  -0.742   4.612  0.00  0.00    -0.244 NA
ATOM     31  C   UNL     1       9.043  -2.733   5.500  0.00  0.00    +0.037 C 
ATOM     32  C   UNL     1      10.213  -3.053   6.430  0.00  0.00    -0.073 C 
ATOM     33  C   UNL     1      10.000  -1.040   7.737  0.00  0.00    -0.042 C 
ATOM     34  C   UNL     1      10.817  -3.065   8.777  0.00  0.00    -0.096 C 
ATOM     35  N   UNL     1       9.893  -2.508   7.765  0.00  0.00    +0.381 N 
ATOM     36  H   UNL     1       8.931  -2.769   8.012  0.00  0.00    -0.082 HD
BRANCH  26  37
ATOM     37  C   UNL     1       7.669   2.776   5.625  0.00  0.00    +0.102 C 
ATOM     38  N   UNL     1       7.377   3.874   5.620  0.00  0.00    -0.191 NA
ENDBRANCH  26  37
ENDBRANCH  24  25
ENDBRANCH  23  24
ENDBRANCH   2  23
TORSDOF 10
