REMARK  Name = ZINC33155084
REMARK  4 active torsions:
REMARK  status: ('A' for Active; 'I' for Inactive)
REMARK    1  A    between atoms: C_3  and  C_10
REMARK    2  A    between atoms: C_5  and  N_7
REMARK    3  A    between atoms: N_12  and  N_13
REMARK    4  A    between atoms: C_15  and  C_25
REMARK                            x       y       z     vdW  Elec       q    Type
REMARK                         _______ _______ _______ _____ _____    ______ ____
ROOT
ATOM      1  N   UNL     1      -7.207   1.353   0.418  0.00  0.00    -0.273 N 
ATOM      2  C   UNL     1      -8.394   2.011   0.333  0.00  0.00    +0.224 A 
ATOM      3  C   UNL     1      -8.392   3.404   0.241  0.00  0.00    +0.098 A 
ATOM      4  C   UNL     1      -9.611   4.108   0.151  0.00  0.00    +0.030 A 
ATOM      5  C   UNL     1     -10.800   3.368   0.158  0.00  0.00    +0.019 A 
ATOM      6  C   UNL     1     -12.061   3.986   0.071  0.00  0.00    +0.026 A 
ATOM      7  C   UNL     1     -13.184   3.215   0.080  0.00  0.00    +0.019 A 
ATOM      8  C   UNL     1     -13.109   1.825   0.174  0.00  0.00    +0.019 A 
ATOM      9  C   UNL     1     -11.911   1.175   0.260  0.00  0.00    +0.048 A 
ATOM     10  C   UNL     1     -10.725   1.906   0.256  0.00  0.00    +0.138 A 
ATOM     11  O   UNL     1      -9.530   1.304   0.333  0.00  0.00    -0.437 OA
ATOM     12 BR   UNL     1     -14.879   4.045  -0.035  0.00  0.00    -0.050 Br
ATOM     13  H   UNL     1      -7.160   0.362   0.893  0.00  0.00    +0.188 HD
ENDROOT
BRANCH   3  14
ATOM     14  C   UNL     1      -7.107   4.144   0.239  0.00  0.00    +0.247 C 
ATOM     15  O   UNL     1      -6.888   4.978  -0.617  0.00  0.00    -0.270 OA
ATOM     16  N   UNL     1      -6.182   3.891   1.186  0.00  0.00    -0.325 N 
ATOM     17  H   UNL     1      -5.229   4.440   1.184  0.00  0.00    +0.145 HD
ATOM     18  H   UNL     1      -6.380   3.136   1.961  0.00  0.00    +0.145 HD
ENDBRANCH   3  14
BRANCH   1  21
ATOM     19  C   UNL     1      -4.939   1.305   0.146  0.00  0.00    +0.262 C 
ATOM     20  O   UNL     1      -4.879   0.224   0.696  0.00  0.00    -0.269 OA
ATOM     21  N   UNL     1      -6.135   1.892  -0.056  0.00  0.00    -0.223 N 
ATOM     22  H   UNL     1      -6.197   2.831  -0.626  0.00  0.00    +0.175 HD
BRANCH  19  25
ATOM     23  C   UNL     1      -2.614   3.783  -1.451  0.00  0.00    +0.003 A 
ATOM     24  C   UNL     1      -3.773   3.162  -1.036  0.00  0.00    +0.013 A 
ATOM     25  C   UNL     1      -3.702   1.975  -0.301  0.00  0.00    +0.040 A 
ATOM     26  C   UNL     1      -2.455   1.426   0.007  0.00  0.00    +0.045 A 
ATOM     27  C   UNL     1      -1.304   2.057  -0.415  0.00  0.00    +0.127 A 
ATOM     28  C   UNL     1      -1.382   3.236  -1.137  0.00  0.00    +0.033 A 
BRANCH  27  29
ATOM     29  N   UNL     1       0.018   1.477  -0.089  0.00  0.00    +0.056 N 
ATOM     30  O   UNL     1       0.094   0.359   0.603  0.00  0.00    -0.126 OA
ATOM     31  O   UNL     1       1.119   2.076  -0.495  0.00  0.00    -0.126 OA
ENDBRANCH  27  29
ENDBRANCH  19  25
ENDBRANCH   1  21
TORSDOF 4
