REMARK  Name = ZINC27567919
REMARK  9 active torsions:
REMARK  status: ('A' for Active; 'I' for Inactive)
REMARK    1  A    between atoms: C_1  and  C_2
REMARK    2  A    between atoms: C_2  and  O_3
REMARK    3  A    between atoms: O_3  and  C_4
REMARK    4  A    between atoms: C_4  and  C_6
REMARK    5  A    between atoms: C_7  and  C_19
REMARK    6  A    between atoms: C_12  and  C_14
REMARK    7  A    between atoms: C_19  and  N_20
REMARK    8  A    between atoms: C_23  and  C_27
REMARK    9  A    between atoms: C_23  and  C_28
REMARK                            x       y       z     vdW  Elec       q    Type
REMARK                         _______ _______ _______ _____ _____    ______ ____
ROOT
ATOM      1  C   UNL     1       3.630  -1.415   2.927  0.00  0.00    +0.169 C 
ENDROOT
BRANCH   1   3
ATOM      2  C   UNL     1       1.510  -1.910   4.092  0.00  0.00    +0.083 C 
ATOM      3  C   UNL     1       2.604  -1.125   3.992  0.00  0.00    +0.042 C 
ATOM      4  N   UNL     1       2.798  -0.075   4.843  0.00  0.00    -0.271 N 
ATOM      5  C   UNL     1       1.939   0.262   5.814  0.00  0.00    +0.304 C 
ATOM      6  O   UNL     1       2.196   1.218   6.520  0.00  0.00    -0.252 OA
ATOM      7  N   UNL     1       0.803  -0.427   6.037  0.00  0.00    -0.285 N 
ATOM      8  C   UNL     1       0.503  -1.583   5.176  0.00  0.00    +0.179 C 
ATOM      9  H   UNL     1       3.700   0.548   4.752  0.00  0.00    +0.156 HD
ATOM     10  H   UNL     1       0.106  -0.144   6.841  0.00  0.00    +0.151 HD
BRANCH   8  11
ATOM     11  C   UNL     1       0.361  -2.796   6.059  0.00  0.00    +0.130 A 
ATOM     12  C   UNL     1      -0.634  -3.700   5.999  0.00  0.00    +0.047 A 
ATOM     13  C   UNL     1      -0.373  -4.662   7.002  0.00  0.00    +0.041 A 
ATOM     14  C   UNL     1       0.765  -4.289   7.614  0.00  0.00    +0.195 A 
ATOM     15  O   UNL     1       1.208  -3.161   7.035  0.00  0.00    -0.466 OA
ENDBRANCH   8  11
BRANCH   2  16
ATOM     16  C   UNL     1       1.310  -3.001   3.214  0.00  0.00    +0.339 C 
ATOM     17  O   UNL     1       0.533  -2.899   2.284  0.00  0.00    -0.245 OA
BRANCH  16  18
ATOM     18  O   UNL     1       1.983  -4.155   3.408  0.00  0.00    -0.462 OA
BRANCH  18  20
ATOM     19  C   UNL     1       2.579  -6.433   2.861  0.00  0.00    +0.048 C 
ATOM     20  C   UNL     1       1.733  -5.215   2.483  0.00  0.00    +0.229 C 
ENDBRANCH  18  20
ENDBRANCH  16  18
ENDBRANCH   2  16
ENDBRANCH   1   3
BRANCH   1  21
ATOM     21  N   UNL     1       3.676  -0.302   1.976  0.00  0.00    -0.218 N 
ATOM     22  C   UNL     1       2.916  -0.225   0.862  0.00  0.00    +0.251 C 
ATOM     23  O   UNL     1       2.098  -1.031   0.473  0.00  0.00    -0.272 OA
ATOM     24  C   UNL     1       3.300   1.083   0.199  0.00  0.00    +0.135 C 
ATOM     25  N   UNL     1       4.326   1.642   1.095  0.00  0.00    -0.281 N 
ATOM     26  C   UNL     1       4.477   0.763   2.103  0.00  0.00    +0.310 C 
ATOM     27  O   UNL     1       5.253   0.918   3.025  0.00  0.00    -0.252 OA
ATOM     28  C   UNL     1       3.881   0.830  -1.194  0.00  0.00    +0.047 C 
ATOM     29  H   UNL     1       4.796   2.607   0.859  0.00  0.00    +0.152 HD
BRANCH  24  30
ATOM     30  C   UNL     1       2.110   2.004   0.115  0.00  0.00    -0.012 A 
ATOM     31  C   UNL     1       0.840   1.480  -0.039  0.00  0.00    +0.010 A 
ATOM     32  C   UNL     1      -0.253   2.321  -0.122  0.00  0.00    +0.050 A 
ATOM     33  C   UNL     1      -0.079   3.695  -0.041  0.00  0.00    +0.162 A 
ATOM     34  C   UNL     1       1.197   4.223   0.117  0.00  0.00    +0.162 A 
ATOM     35  C   UNL     1       2.290   3.372   0.193  0.00  0.00    +0.055 A 
ATOM     36  O   UNL     1       1.389   5.567   0.202  0.00  0.00    -0.485 OA
ATOM     37  C   UNL     1       0.317   6.401  -0.252  0.00  0.00    +0.270 C 
ATOM     38  C   UNL     1      -0.994   5.858   0.332  0.00  0.00    +0.270 C 
ATOM     39  O   UNL     1      -1.165   4.512  -0.125  0.00  0.00    -0.485 OA
ENDBRANCH  24  30
ENDBRANCH   1  21
TORSDOF 7
