REMARK  Name = ZINC47740927
REMARK  10 active torsions:
REMARK  status: ('A' for Active; 'I' for Inactive)
REMARK    1  A    between atoms: C_1  and  C_2
REMARK    2  A    between atoms: C_7  and  O_8
REMARK    3  A    between atoms: O_8  and  C_9
REMARK    4  A    between atoms: C_9  and  C_11
REMARK    5  A    between atoms: C_9  and  C_12
REMARK    6  A    between atoms: N_14  and  C_15
REMARK    7  A    between atoms: C_17  and  S_23
REMARK    8  A    between atoms: C_19  and  C_22
REMARK    9  A    between atoms: C_20  and  C_21
REMARK   10  A    between atoms: S_23  and  N_26
REMARK                            x       y       z     vdW  Elec       q    Type
REMARK                         _______ _______ _______ _____ _____    ______ ____
ROOT
ATOM      1  C   UNL     1      -0.862  -0.065   4.608  0.00  0.00    +0.258 C 
ATOM      2  O   UNL     1      -1.320   1.027   4.347  0.00  0.00    -0.271 OA
ATOM      3  N   UNL     1      -1.085  -0.619   5.817  0.00  0.00    -0.282 N 
ATOM      4  H   UNL     1      -0.668  -1.463   6.048  0.00  0.00    +0.155 HD
ENDROOT
BRANCH   3   5
ATOM      5  C   UNL     1      -1.918   0.026   6.738  0.00  0.00    +0.039 A 
ATOM      6  C   UNL     1      -1.945   1.413   6.800  0.00  0.00    +0.052 A 
ATOM      7  C   UNL     1      -2.769   2.046   7.711  0.00  0.00    +0.107 A 
ATOM      8  C   UNL     1      -3.565   1.300   8.560  0.00  0.00    +0.032 A 
ATOM      9  C   UNL     1      -3.540  -0.082   8.501  0.00  0.00    -0.044 A 
ATOM     10  C   UNL     1      -2.724  -0.720   7.588  0.00  0.00    -0.026 A 
ATOM     11  C   UNL     1      -2.703  -2.226   7.519  0.00  0.00    +0.046 C 
ATOM     12  C   UNL     1      -4.410  -0.891   9.428  0.00  0.00    +0.044 C 
BRANCH   7  13
ATOM     13  S   UNL     1      -2.804   3.805   7.791  0.00  0.00    +0.056 S 
ATOM     14  O   UNL     1      -3.249   4.144   9.097  0.00  0.00    -0.153 OA
ATOM     15  O   UNL     1      -1.564   4.261   7.267  0.00  0.00    -0.153 OA
BRANCH  13  16
ATOM     16  N   UNL     1      -3.978   4.320   6.742  0.00  0.00    -0.204 NA
ATOM     17  H   UNL     1      -4.488   3.673   6.231  0.00  0.00    +0.144 HD
ATOM     18  H   UNL     1      -4.155   5.268   6.640  0.00  0.00    +0.144 HD
ENDBRANCH  13  16
ENDBRANCH   7  13
ENDBRANCH   3   5
BRANCH   1  19
ATOM     19  C   UNL     1      -0.044  -0.805   3.580  0.00  0.00    +0.256 C 
ATOM     20  C   UNL     1       1.359  -1.062   4.134  0.00  0.00    +0.062 C 
BRANCH  19  21
ATOM     21  O   UNL     1       0.049  -0.018   2.391  0.00  0.00    -0.480 OA
BRANCH  21  28
ATOM     22  C   UNL     1      -0.046   1.515   0.021  0.00  0.00    +0.047 C 
ATOM     23  C   UNL     1       0.042   0.011   0.012  0.00  0.00    -0.007 A 
ATOM     24  C   UNL     1       0.086  -0.673  -1.188  0.00  0.00    +0.027 A 
ATOM     25  C   UNL     1       0.167  -2.054  -1.196  0.00  0.00    +0.041 A 
ATOM     26  C   UNL     1       0.205  -2.754  -0.003  0.00  0.00    +0.023 A 
ATOM     27  C   UNL     1       0.162  -2.074   1.199  0.00  0.00    +0.047 A 
ATOM     28  C   UNL     1       0.086  -0.689   1.209  0.00  0.00    +0.125 A 
ATOM     29 CL   UNL     1       0.221  -2.910  -2.706  0.00  0.00    -0.084 Cl
ENDBRANCH  21  28
ENDBRANCH  19  21
ENDBRANCH   1  19
TORSDOF 6
