REMARK  Name = ZINC20902858
REMARK  9 active torsions:
REMARK  status: ('A' for Active; 'I' for Inactive)
REMARK    1  A    between atoms: C_1  and  C_2
REMARK    2  A    between atoms: C_7  and  C_37
REMARK    3  A    between atoms: N_9  and  C_10
REMARK    4  A    between atoms: C_10  and  C_11
REMARK    5  A    between atoms: C_11  and  C_12
REMARK    6  A    between atoms: C_12  and  N_13
REMARK    7  A    between atoms: C_26  and  C_27
REMARK    8  A    between atoms: C_26  and  C_28
REMARK    9  A    between atoms: N_30  and  C_31
REMARK                            x       y       z     vdW  Elec       q    Type
REMARK                         _______ _______ _______ _____ _____    ______ ____
ROOT
ATOM      1  N   UNL     1       5.382   2.131  -2.087  0.00  0.00    -0.281 N 
ATOM      2  C   UNL     1       4.986   3.348  -2.527  0.00  0.00    +0.264 C 
ATOM      3  O   UNL     1       4.722   3.550  -3.697  0.00  0.00    -0.268 OA
ATOM      4  C   UNL     1       4.890   4.416  -1.515  0.00  0.00    +0.106 A 
ATOM      5  C   UNL     1       4.364   5.654  -1.609  0.00  0.00    +0.041 A 
ATOM      6  C   UNL     1       4.519   6.274  -0.356  0.00  0.00    +0.001 A 
ATOM      7  C   UNL     1       4.147   7.544   0.109  0.00  0.00    +0.010 A 
ATOM      8  C   UNL     1       4.447   7.841   1.413  0.00  0.00    +0.001 A 
ATOM      9  C   UNL     1       5.092   6.939   2.245  0.00  0.00    +0.002 A 
ATOM     10  C   UNL     1       5.473   5.681   1.817  0.00  0.00    +0.026 A 
ATOM     11  C   UNL     1       5.182   5.346   0.494  0.00  0.00    +0.050 A 
ATOM     12  N   UNL     1       5.413   4.226  -0.232  0.00  0.00    -0.334 N 
ATOM     13  C   UNL     1       6.087   2.979   0.138  0.00  0.00    +0.157 C 
ATOM     14  C   UNL     1       5.490   1.824  -0.665  0.00  0.00    +0.128 C 
ATOM     15  C   UNL     1       6.376   0.590  -0.491  0.00  0.00    +0.043 C 
ENDROOT
BRANCH  14  16
ATOM     16  C   UNL     1       4.116   1.517  -0.127  0.00  0.00    +0.238 C 
ATOM     17  O   UNL     1       3.974   0.660   0.720  0.00  0.00    -0.273 OA
ATOM     18  N   UNL     1       3.045   2.193  -0.588  0.00  0.00    -0.311 N 
ATOM     19  H   UNL     1       3.174   2.969  -1.356  0.00  0.00    +0.149 HD
BRANCH  18  20
ATOM     20  C   UNL     1       1.709   1.894  -0.065  0.00  0.00    +0.073 C 
ATOM     21  C   UNL     1       1.475   2.689   1.220  0.00  0.00    +0.022 C 
ATOM     22  C   UNL     1       0.080   2.377   1.766  0.00  0.00    +0.002 C 
ATOM     23  C   UNL     1      -0.973   2.766   0.727  0.00  0.00    +0.000 C 
ATOM     24  C   UNL     1      -0.739   1.970  -0.559  0.00  0.00    +0.002 C 
ATOM     25  C   UNL     1       0.656   2.282  -1.105  0.00  0.00    +0.022 C 
ENDBRANCH  18  20
ENDBRANCH  14  16
BRANCH   1  26
ATOM     26  C   UNL     1       5.711   1.092  -3.066  0.00  0.00    +0.107 C 
BRANCH  26  27
ATOM     27  C   UNL     1       4.453   0.287  -3.398  0.00  0.00    +0.000 C 
BRANCH  27  28
ATOM     28  C   UNL     1       4.797  -0.797  -4.421  0.00  0.00    -0.077 C 
BRANCH  28  35
ATOM     29  C   UNL     1       3.966  -3.008  -2.891  0.00  0.00    -0.013 C 
ATOM     30  C   UNL     1       2.944  -2.134  -3.621  0.00  0.00    -0.071 C 
ATOM     31  C   UNL     1       1.762  -2.997  -4.066  0.00  0.00    -0.016 C 
ATOM     32  C   UNL     1       0.751  -2.123  -4.814  0.00  0.00    -0.003 C 
ATOM     33  C   UNL     1       1.446  -1.458  -6.006  0.00  0.00    -0.016 C 
ATOM     34  C   UNL     1       2.638  -0.640  -5.504  0.00  0.00    -0.071 C 
ATOM     35  N   UNL     1       3.575  -1.521  -4.796  0.00  0.00    +0.383 N 
ATOM     36  C   UNL     1       3.347   0.010  -6.693  0.00  0.00    -0.013 C 
ATOM     37  H   UNL     1       3.859  -2.331  -5.485  0.00  0.00    -0.081 HD
ENDBRANCH  28  35
ENDBRANCH  27  28
ENDBRANCH  26  27
ENDBRANCH   1  26
TORSDOF 6
