REMARK  Name = ZINC63557977
REMARK  8 active torsions:
REMARK  status: ('A' for Active; 'I' for Inactive)
REMARK    1  A    between atoms: C_4  and  C_7
REMARK    2  A    between atoms: C_7  and  O_8
REMARK    3  A    between atoms: O_8  and  C_9
REMARK    4  A    between atoms: C_12  and  N_15
REMARK    5  A    between atoms: C_16  and  C_18
REMARK    6  A    between atoms: N_23  and  C_25
REMARK    7  A    between atoms: C_25  and  C_26
REMARK    8  A    between atoms: C_26  and  C_27
REMARK                            x       y       z     vdW  Elec       q    Type
REMARK                         _______ _______ _______ _____ _____    ______ ____
ROOT
ATOM      1  C   UNL     1      10.800  -4.430   3.373  0.00  0.00    +0.101 C 
ATOM      2  C   UNL     1      10.797  -5.897   2.882  0.00  0.00    +0.110 C 
ATOM      3  C   UNL     1      11.697  -6.618   3.861  0.00  0.00    +0.216 C 
ATOM      4  O   UNL     1      12.185  -7.713   3.679  0.00  0.00    -0.276 OA
ATOM      5  N   UNL     1      11.880  -5.867   4.961  0.00  0.00    -0.300 N 
ATOM      6  C   UNL     1      11.145  -4.599   4.869  0.00  0.00    +0.121 C 
ENDROOT
BRANCH   1   8
ATOM      7  N   UNL     1       8.932  -3.626   1.965  0.00  0.00    -0.285 N 
ATOM      8  C   UNL     1       9.442  -3.800   3.200  0.00  0.00    +0.222 C 
ATOM      9  O   UNL     1       8.808  -3.450   4.173  0.00  0.00    -0.275 OA
ATOM     10  H   UNL     1       9.404  -3.975   1.192  0.00  0.00    +0.155 HD
BRANCH   7  14
ATOM     11  C   UNL     1       5.329  -1.589   1.465  0.00  0.00    +0.121 A 
ATOM     12  C   UNL     1       6.194  -1.226   2.486  0.00  0.00    +0.047 A 
ATOM     13  C   UNL     1       7.388  -1.900   2.652  0.00  0.00    +0.027 A 
ATOM     14  C   UNL     1       7.721  -2.942   1.797  0.00  0.00    +0.034 A 
ATOM     15  C   UNL     1       6.854  -3.305   0.775  0.00  0.00    +0.027 A 
ATOM     16  C   UNL     1       5.658  -2.634   0.614  0.00  0.00    +0.047 A 
BRANCH  11  17
ATOM     17  O   UNL     1       4.154  -0.925   1.301  0.00  0.00    -0.487 OA
BRANCH  17  18
ATOM     18  C   UNL     1       3.878   0.141   2.213  0.00  0.00    +0.264 C 
BRANCH  18  22
ATOM     19  C   UNL     1       0.093   1.883   1.272  0.00  0.00    +0.000 A 
ATOM     20  C   UNL     1       0.167   0.828   2.162  0.00  0.00    +0.000 A 
ATOM     21  C   UNL     1       1.391   0.264   2.467  0.00  0.00    +0.007 A 
ATOM     22  C   UNL     1       2.543   0.754   1.881  0.00  0.00    -0.010 A 
ATOM     23  C   UNL     1       2.470   1.809   0.989  0.00  0.00    +0.007 A 
ATOM     24  C   UNL     1       1.245   2.373   0.686  0.00  0.00    +0.000 A 
ENDBRANCH  18  22
ENDBRANCH  17  18
ENDBRANCH  11  17
ENDBRANCH   7  14
ENDBRANCH   1   8
BRANCH   5  25
ATOM     25  C   UNL     1      12.706  -6.263   6.104  0.00  0.00    +0.112 C 
BRANCH  25  26
ATOM     26  C   UNL     1      14.141  -5.779   5.888  0.00  0.00    +0.052 C 
BRANCH  26  27
ATOM     27  C   UNL     1      14.991  -6.186   7.064  0.00  0.00    -0.040 C 
ATOM     28  C   UNL     1      15.767  -7.289   7.164  0.00  0.00    +0.000 A 
ATOM     29  C   UNL     1      16.041  -8.398   6.242  0.00  0.00    +0.030 A 
ATOM     30  C   UNL     1      16.882  -9.383   6.633  0.00  0.00    +0.042 A 
ATOM     31  C   UNL     1      17.497  -9.371   7.894  0.00  0.00    +0.022 A 
ATOM     32  C   UNL     1      17.294  -8.386   8.794  0.00  0.00    +0.027 A 
ATOM     33  C   UNL     1      16.428  -7.300   8.488  0.00  0.00    +0.043 A 
ATOM     34  N   UNL     1      16.075  -6.244   9.181  0.00  0.00    -0.380 N 
ATOM     35  C   UNL     1      15.153  -5.440   8.370  0.00  0.00    +0.144 C 
ATOM     36 CL   UNL     1      17.209 -10.697   5.545  0.00  0.00    -0.084 Cl
ATOM     37  H   UNL     1      16.376  -6.029  10.077  0.00  0.00    +0.160 HD
ENDBRANCH  26  27
ENDBRANCH  25  26
ENDBRANCH   5  25
TORSDOF 8
