REMARK  Name = ZINC40167997
REMARK  9 active torsions:
REMARK  status: ('A' for Active; 'I' for Inactive)
REMARK    1  A    between atoms: C_1  and  C_2
REMARK    2  A    between atoms: C_2  and  C_3
REMARK    3  A    between atoms: C_3  and  C_5
REMARK    4  A    between atoms: C_3  and  O_15
REMARK    5  A    between atoms: N_7  and  C_8
REMARK    6  A    between atoms: C_13  and  C_14
REMARK    7  A    between atoms: O_15  and  C_16
REMARK    8  A    between atoms: C_26  and  C_27
REMARK    9  A    between atoms: C_30  and  C_33
REMARK                            x       y       z     vdW  Elec       q    Type
REMARK                         _______ _______ _______ _____ _____    ______ ____
ROOT
ATOM      1  C   UNL     1       3.094   1.194  -1.106  0.00  0.00    +0.212 A 
ATOM      2  C   UNL     1       4.489   1.365  -1.306  0.00  0.00    +0.235 A 
ATOM      3  O   UNL     1       5.265   0.431  -1.191  0.00  0.00    -0.283 OA
ATOM      4  C   UNL     1       4.962   2.717  -1.659  0.00  0.00    +0.068 A 
ATOM      5  C   UNL     1       6.314   2.978  -1.874  0.00  0.00    +0.015 A 
ATOM      6  C   UNL     1       6.717   4.254  -2.202  0.00  0.00    +0.001 A 
ATOM      7  C   UNL     1       5.783   5.274  -2.317  0.00  0.00    +0.004 A 
ATOM      8  C   UNL     1       4.443   5.029  -2.107  0.00  0.00    +0.047 A 
ATOM      9  C   UNL     1       4.016   3.749  -1.775  0.00  0.00    +0.140 A 
ATOM     10  O   UNL     1       2.709   3.489  -1.566  0.00  0.00    -0.451 OA
ATOM     11  C   UNL     1       2.261   2.263  -1.250  0.00  0.00    +0.181 A 
ENDROOT
BRANCH  11  12
ATOM     12  C   UNL     1       0.813   2.067  -1.044  0.00  0.00    +0.021 A 
ATOM     13  C   UNL     1       0.351   1.359   0.069  0.00  0.00    +0.012 A 
ATOM     14  C   UNL     1      -1.004   1.180   0.254  0.00  0.00    +0.004 A 
ATOM     15  C   UNL     1      -1.905   1.699  -0.658  0.00  0.00    -0.050 A 
ATOM     16  C   UNL     1      -1.455   2.401  -1.763  0.00  0.00    +0.004 A 
ATOM     17  C   UNL     1      -0.103   2.593  -1.958  0.00  0.00    +0.012 A 
ATOM     18  C   UNL     1      -3.384   1.498  -0.449  0.00  0.00    +0.044 C 
ENDBRANCH  11  12
BRANCH   1  19
ATOM     19  O   UNL     1       2.593  -0.028  -0.778  0.00  0.00    -0.472 OA
BRANCH  19  20
ATOM     20  C   UNL     1       2.814  -1.090  -1.708  0.00  0.00    +0.259 C 
BRANCH  20  21
ATOM     21  C   UNL     1       3.004  -2.383  -0.958  0.00  0.00    +0.258 C 
ATOM     22  O   UNL     1       2.828  -2.420   0.242  0.00  0.00    -0.271 OA
ATOM     23  N   UNL     1       3.371  -3.499  -1.619  0.00  0.00    -0.282 N 
ATOM     24  H   UNL     1       3.602  -3.451  -2.560  0.00  0.00    +0.155 HD
BRANCH  23  25
ATOM     25  C   UNL     1       3.417  -4.726  -0.949  0.00  0.00    +0.036 A 
ATOM     26  C   UNL     1       2.786  -4.872   0.280  0.00  0.00    +0.023 A 
ATOM     27  C   UNL     1       2.833  -6.085   0.939  0.00  0.00    +0.002 A 
ATOM     28  C   UNL     1       3.508  -7.153   0.377  0.00  0.00    +0.000 A 
ATOM     29  C   UNL     1       4.138  -7.011  -0.846  0.00  0.00    +0.005 A 
ATOM     30  C   UNL     1       4.088  -5.803  -1.513  0.00  0.00    -0.029 A 
ATOM     31  C   UNL     1       4.768  -5.650  -2.849  0.00  0.00    +0.045 C 
ENDBRANCH  23  25
ENDBRANCH  20  21
BRANCH  20  33
ATOM     32  C   UNL     1       1.527   0.022  -3.538  0.00  0.00    +0.008 C 
ATOM     33  C   UNL     1       1.606  -1.214  -2.639  0.00  0.00    +0.051 C 
ENDBRANCH  20  33
ENDBRANCH  19  20
ENDBRANCH   1  19
TORSDOF 6
