REMARK  Name = ZINC34630725
REMARK  10 active torsions:
REMARK  status: ('A' for Active; 'I' for Inactive)
REMARK    1  A    between atoms: C_1  and  C_2
REMARK    2  A    between atoms: C_2  and  C_3
REMARK    3  A    between atoms: C_2  and  O_4
REMARK    4  A    between atoms: O_4  and  C_5
REMARK    5  A    between atoms: C_7  and  C_13
REMARK    6  A    between atoms: C_10  and  O_11
REMARK    7  A    between atoms: O_11  and  C_12
REMARK    8  A    between atoms: C_13  and  C_21
REMARK    9  A    between atoms: N_16  and  C_20
REMARK   10  A    between atoms: C_25  and  C_27
REMARK                            x       y       z     vdW  Elec       q    Type
REMARK                         _______ _______ _______ _____ _____    ______ ____
ROOT
ATOM      1  C   UNL     1       0.270  -4.415  -2.582  0.00  0.00    +0.162 C 
ATOM      2  C   UNL     1       0.845  -5.444  -1.633  0.00  0.00    +0.254 C 
ATOM      3  O   UNL     1       0.264  -6.399  -1.161  0.00  0.00    -0.272 OA
ATOM      4  N   UNL     1       2.126  -5.093  -1.416  0.00  0.00    -0.247 N 
ATOM      5  C   UNL     1       2.455  -3.955  -2.112  0.00  0.00    +0.161 C 
ATOM      6  N   UNL     1       1.386  -3.490  -2.838  0.00  0.00    -0.297 N 
ATOM      7  N   UNL     1       3.628  -3.392  -2.087  0.00  0.00    -0.375 N 
ATOM      8  C   UNL     1       3.050  -5.829  -0.550  0.00  0.00    +0.141 C 
ATOM      9  H   UNL     1       4.339  -3.776  -1.551  0.00  0.00    +0.158 HD
ATOM     10  H   UNL     1       1.370  -2.705  -3.408  0.00  0.00    +0.150 HD
ATOM     11  H   UNL     1       3.791  -2.587  -2.604  0.00  0.00    +0.158 HD
ENDROOT
BRANCH   1  14
ATOM     12  C   UNL     1      -2.029  -1.640  -1.448  0.00  0.00    +0.163 A 
ATOM     13  C   UNL     1      -0.972  -2.311  -2.041  0.00  0.00    +0.056 A 
ATOM     14  C   UNL     1      -0.880  -3.686  -1.936  0.00  0.00    -0.007 A 
ATOM     15  C   UNL     1      -1.841  -4.395  -1.240  0.00  0.00    +0.010 A 
ATOM     16  C   UNL     1      -2.898  -3.732  -0.645  0.00  0.00    +0.050 A 
ATOM     17  C   UNL     1      -2.993  -2.353  -0.742  0.00  0.00    +0.162 A 
BRANCH  17  18
ATOM     18  O   UNL     1      -4.029  -1.698  -0.153  0.00  0.00    -0.491 OA
ATOM     19  C   UNL     1      -4.981  -2.494   0.555  0.00  0.00    +0.277 C 
ENDBRANCH  17  18
BRANCH  12  20
ATOM     20  O   UNL     1      -2.120  -0.287  -1.550  0.00  0.00    -0.486 OA
BRANCH  20  22
ATOM     21  C   UNL     1      -1.747   1.687  -2.893  0.00  0.00    +0.051 C 
ATOM     22  C   UNL     1      -1.163   0.367  -2.386  0.00  0.00    +0.167 C 
ATOM     23  C   UNL     1       0.109   0.647  -1.584  0.00  0.00    +0.051 C 
ENDBRANCH  20  22
ENDBRANCH  12  20
ENDBRANCH   1  14
BRANCH   1  24
ATOM     24  C   UNL     1      -0.176  -5.068  -3.865  0.00  0.00    -0.010 A 
ATOM     25  C   UNL     1       0.366  -4.662  -5.071  0.00  0.00    +0.006 A 
ATOM     26  C   UNL     1      -0.039  -5.258  -6.252  0.00  0.00    +0.001 A 
ATOM     27  C   UNL     1      -0.987  -6.261  -6.232  0.00  0.00    +0.008 A 
ATOM     28  C   UNL     1      -1.536  -6.674  -5.020  0.00  0.00    -0.016 A 
ATOM     29  C   UNL     1      -1.120  -6.074  -3.833  0.00  0.00    +0.015 A 
BRANCH  28  30
ATOM     30  C   UNL     1      -2.555  -7.752  -4.993  0.00  0.00    +0.000 A 
ATOM     31  C   UNL     1      -2.970  -8.367  -6.177  0.00  0.00    +0.011 A 
ATOM     32  C   UNL     1      -3.923  -9.368  -6.099  0.00  0.00    +0.020 A 
ATOM     33  C   UNL     1      -4.430  -9.723  -4.862  0.00  0.00    +0.111 A 
ATOM     34  N   UNL     1      -4.019  -9.124  -3.761  0.00  0.00    -0.263 NA
ATOM     35  C   UNL     1      -3.109  -8.171  -3.786  0.00  0.00    +0.119 A 
ENDBRANCH  28  30
ENDBRANCH   1  24
TORSDOF 6
