REMARK  Name = ZINC37694765
REMARK  5 active torsions:
REMARK  status: ('A' for Active; 'I' for Inactive)
REMARK    1  A    between atoms: C_1  and  C_2
REMARK    2  A    between atoms: C_6  and  O_11
REMARK    3  A    between atoms: C_7  and  N_8
REMARK    4  A    between atoms: O_11  and  C_12
REMARK    5  A    between atoms: C_18  and  O_20
REMARK                            x       y       z     vdW  Elec       q    Type
REMARK                         _______ _______ _______ _____ _____    ______ ____
ROOT
ATOM      1  C   UNL     1       0.439   1.473  -0.013  0.00  0.00    +0.046 C 
ATOM      2  C   UNL     1       0.222  -0.018  -0.009  0.00  0.00    -0.017 A 
ATOM      3  C   UNL     1       0.008  -0.688  -1.200  0.00  0.00    +0.006 A 
ATOM      4  C   UNL     1      -0.191  -2.056  -1.200  0.00  0.00    +0.004 A 
ATOM      5  C   UNL     1      -0.177  -2.758  -0.009  0.00  0.00    +0.048 A 
ATOM      6  C   UNL     1       0.037  -2.088   1.186  0.00  0.00    +0.151 A 
ATOM      7  C   UNL     1       0.242  -0.716   1.183  0.00  0.00    +0.170 A 
ENDROOT
BRANCH   7   8
ATOM      8  N   UNL     1       0.477   0.001   2.457  0.00  0.00    +0.060 N 
ATOM      9  O   UNL     1      -0.458   0.444   3.082  0.00  0.00    -0.126 OA
ATOM     10  O   UNL     1       1.604   0.144   2.871  0.00  0.00    -0.126 OA
ENDBRANCH   7   8
BRANCH   6  11
ATOM     11  O   UNL     1       0.051  -2.776   2.358  0.00  0.00    -0.484 OA
BRANCH  11  12
ATOM     12  C   UNL     1      -0.042  -4.199   2.277  0.00  0.00    +0.202 C 
ATOM     13  C   UNL     1      -1.513  -4.611   2.192  0.00  0.00    +0.047 C 
ATOM     14  C   UNL     1      -1.612  -6.135   2.104  0.00  0.00    +0.004 C 
ATOM     15  C   UNL     1      -0.979  -6.759   3.349  0.00  0.00    +0.003 C 
ATOM     16  C   UNL     1       0.492  -6.348   3.434  0.00  0.00    +0.035 C 
ATOM     17  C   UNL     1       0.592  -4.824   3.522  0.00  0.00    +0.155 C 
BRANCH  17  18
ATOM     18  O   UNL     1      -0.099  -4.368   4.687  0.00  0.00    -0.388 OA
ATOM     19  H   UNL     1       0.250  -4.724   5.515  0.00  0.00    +0.210 HD
ENDBRANCH  17  18
ENDBRANCH  11  12
ENDBRANCH   6  11
TORSDOF 4
