REMARK  Name = ZINC12884528
REMARK  6 active torsions:
REMARK  status: ('A' for Active; 'I' for Inactive)
REMARK    1  A    between atoms: C_1  and  C_2
REMARK    2  A    between atoms: C_17  and  C_19
REMARK    3  A    between atoms: C_19  and  C_20
REMARK    4  A    between atoms: N_28  and  C_31
REMARK    5  A    between atoms: C_31  and  C_32
REMARK    6  A    between atoms: C_32  and  C_33
REMARK                            x       y       z     vdW  Elec       q    Type
REMARK                         _______ _______ _______ _____ _____    ______ ____
ROOT
ATOM      1  C   UNL     1       1.141   3.597   0.011  0.00  0.00    +0.044 C 
ATOM      2  C   UNL     1       1.167   2.090   0.002  0.00  0.00    -0.049 A 
ATOM      3  C   UNL     1       2.377   1.418  -0.014  0.00  0.00    +0.008 A 
ATOM      4  C   UNL     1       2.401   0.042  -0.020  0.00  0.00    -0.026 A 
ATOM      5  C   UNL     1       1.216  -0.688  -0.013  0.00  0.00    +0.054 A 
ATOM      6  C   UNL     1       0.002  -0.004   0.002  0.00  0.00    +0.063 A 
ATOM      7  C   UNL     1      -0.017   1.377   0.010  0.00  0.00    +0.025 A 
ATOM      8 CL   UNL     1      -1.491  -0.890   0.011  0.00  0.00    -0.082 Cl
ATOM      9  N   UNL     1       1.492  -2.058  -0.023  0.00  0.00    -0.285 N 
ATOM     10  C   UNL     1       2.816  -2.309  -0.035  0.00  0.00    +0.211 C 
ATOM     11  O   UNL     1       3.346  -3.400  -0.045  0.00  0.00    -0.277 OA
ATOM     12  C   UNL     1       3.508  -0.974  -0.034  0.00  0.00    +0.050 C 
ATOM     13  C   UNL     1       4.409  -0.808  -1.264  0.00  0.00    +0.088 C 
ATOM     14  C   UNL     1       5.629   0.006  -0.748  0.00  0.00    +0.073 C 
ATOM     15  C   UNL     1       5.334   0.257   0.746  0.00  0.00    -0.053 C 
ATOM     16  C   UNL     1       6.788  -0.957  -0.874  0.00  0.00    +0.224 C 
ATOM     17  O   UNL     1       7.936  -0.713  -0.571  0.00  0.00    -0.275 OA
ATOM     18  N   UNL     1       6.326  -2.125  -1.375  0.00  0.00    -0.241 N 
ATOM     19  C   UNL     1       5.014  -2.144  -1.634  0.00  0.00    +0.225 C 
ATOM     20  O   UNL     1       4.404  -3.085  -2.094  0.00  0.00    -0.275 OA
ATOM     21  H   UNL     1       0.810  -2.748  -0.021  0.00  0.00    +0.155 HD
ATOM     22  N   UNL     1       4.393  -0.806   1.105  0.00  0.00    +0.394 N 
ATOM     23  H   UNL     1       4.900  -1.680   1.293  0.00  0.00    -0.083 HD
ATOM     24  H   UNL     1       3.855  -0.537   1.937  0.00  0.00    -0.083 HD
ENDROOT
BRANCH  15  25
ATOM     25  C   UNL     1       6.623   0.163   1.565  0.00  0.00    +0.020 C 
BRANCH  25  26
ATOM     26  C   UNL     1       6.321   0.458   3.012  0.00  0.00    -0.049 A 
ATOM     27  C   UNL     1       6.395   1.755   3.483  0.00  0.00    +0.003 A 
ATOM     28  C   UNL     1       6.113   2.026   4.809  0.00  0.00    +0.000 A 
ATOM     29  C   UNL     1       5.767   0.999   5.666  0.00  0.00    +0.000 A 
ATOM     30  C   UNL     1       5.697  -0.299   5.196  0.00  0.00    +0.000 A 
ATOM     31  C   UNL     1       5.974  -0.570   3.869  0.00  0.00    +0.003 A 
ENDBRANCH  25  26
ENDBRANCH  15  25
BRANCH  18  32
ATOM     32  C   UNL     1       7.198  -3.277  -1.619  0.00  0.00    +0.121 C 
BRANCH  32  33
ATOM     33  C   UNL     1       7.759  -3.199  -3.041  0.00  0.00    +0.054 C 
BRANCH  33  34
ATOM     34  C   UNL     1       8.656  -4.384  -3.292  0.00  0.00    -0.046 A 
ATOM     35  C   UNL     1      10.006  -4.300  -3.009  0.00  0.00    +0.004 A 
ATOM     36  C   UNL     1      10.829  -5.388  -3.235  0.00  0.00    +0.000 A 
ATOM     37  C   UNL     1      10.302  -6.556  -3.754  0.00  0.00    +0.000 A 
ATOM     38  C   UNL     1       8.953  -6.638  -4.042  0.00  0.00    +0.000 A 
ATOM     39  C   UNL     1       8.130  -5.552  -3.811  0.00  0.00    +0.004 A 
ENDBRANCH  33  34
ENDBRANCH  32  33
ENDBRANCH  18  32
TORSDOF 5
