REMARK  Name = ZINC39232523
REMARK  13 active torsions:
REMARK  status: ('A' for Active; 'I' for Inactive)
REMARK    1  A    between atoms: C_1  and  O_2
REMARK    2  A    between atoms: O_2  and  C_3
REMARK    3  A    between atoms: C_5  and  C_13
REMARK    4  A    between atoms: C_7  and  O_11
REMARK    5  A    between atoms: C_8  and  O_9
REMARK    6  A    between atoms: O_9  and  C_10
REMARK    7  A    between atoms: O_11  and  C_12
REMARK    8  A    between atoms: N_15  and  C_16
REMARK    9  A    between atoms: C_16  and  C_18
REMARK   10  A    between atoms: C_16  and  C_22
REMARK   11  A    between atoms: C_18  and  C_19
REMARK   12  A    between atoms: C_19  and  S_20
REMARK   13  A    between atoms: S_20  and  C_21
REMARK                            x       y       z     vdW  Elec       q    Type
REMARK                         _______ _______ _______ _____ _____    ______ ____
ROOT
ATOM      1  C   UNL     1      -7.329   0.430   0.019  0.00  0.00    +0.160 C 
ENDROOT
BRANCH   1   2
ATOM      2  C   UNL     1      -8.489  -0.329  -0.572  0.00  0.00    +0.236 C 
ATOM      3  O   UNL     1      -8.566  -1.530  -0.426  0.00  0.00    -0.274 OA
ATOM      4  N   UNL     1      -9.442   0.328  -1.263  0.00  0.00    -0.300 N 
ATOM      5  C   UNL     1      -9.308   1.765  -1.542  0.00  0.00    +0.106 C 
ATOM      6  C   UNL     1     -10.569   2.482  -1.051  0.00  0.00    +0.009 C 
ATOM      7  C   UNL     1     -11.801   1.829  -1.680  0.00  0.00    -0.037 C 
ATOM      8  C   UNL     1     -11.882   0.362  -1.259  0.00  0.00    +0.009 C 
ATOM      9  C   UNL     1     -10.631  -0.379  -1.757  0.00  0.00    +0.106 C 
ATOM     10  C   UNL     1     -13.062   2.567  -1.226  0.00  0.00    +0.140 C 
ATOM     11  C   UNL     1     -12.947   3.974  -1.806  0.00  0.00    +0.042 C 
ATOM     12  N   UNL     1     -13.040   4.772  -0.816  0.00  0.00    -0.243 NA
ATOM     13  C   UNL     1     -13.108   4.105   0.362  0.00  0.00    +0.216 C 
ATOM     14  N   UNL     1     -13.102   2.796   0.219  0.00  0.00    -0.264 NA
ATOM     15  C   UNL     1     -12.648   4.200  -3.266  0.00  0.00    +0.034 C 
ATOM     16  C   UNL     1     -11.453   3.287  -3.600  0.00  0.00    -0.076 C 
ATOM     17  N   UNL     1     -11.712   1.920  -3.145  0.00  0.00    +0.385 N 
ATOM     18  H   UNL     1     -10.966   1.321  -3.465  0.00  0.00    -0.085 HD
ATOM     19  H   UNL     1     -12.582   1.600  -3.546  0.00  0.00    -0.085 HD
ENDBRANCH   1   2
BRANCH   1  22
ATOM     20  C   UNL     1      -4.938   0.007   0.229  0.00  0.00    +0.245 C 
ATOM     21  O   UNL     1      -4.746   1.200   0.097  0.00  0.00    -0.270 OA
ATOM     22  N   UNL     1      -6.195  -0.479   0.204  0.00  0.00    -0.300 N 
ATOM     23  H   UNL     1      -6.349  -1.431   0.309  0.00  0.00    +0.150 HD
BRANCH  20  26
ATOM     24  C   UNL     1      -1.425  -1.266   0.616  0.00  0.00    +0.166 A 
ATOM     25  C   UNL     1      -2.493  -0.406   0.440  0.00  0.00    +0.062 A 
ATOM     26  C   UNL     1      -3.796  -0.909   0.415  0.00  0.00    +0.044 A 
ATOM     27  C   UNL     1      -4.016  -2.280   0.567  0.00  0.00    +0.062 A 
ATOM     28  C   UNL     1      -2.945  -3.136   0.742  0.00  0.00    +0.166 A 
ATOM     29  C   UNL     1      -1.647  -2.633   0.762  0.00  0.00    +0.204 A 
BRANCH  24  31
ATOM     30  C   UNL     1      -0.002   0.635   0.484  0.00  0.00    +0.277 C 
ATOM     31  O   UNL     1      -0.156  -0.777   0.640  0.00  0.00    -0.491 OA
ENDBRANCH  24  31
BRANCH  29  32
ATOM     32  O   UNL     1      -0.595  -3.476   0.929  0.00  0.00    -0.488 OA
ATOM     33  C   UNL     1      -0.174  -3.731   2.271  0.00  0.00    +0.277 C 
ENDBRANCH  29  32
BRANCH  28  34
ATOM     34  O   UNL     1      -3.158  -4.471   0.891  0.00  0.00    -0.491 OA
ATOM     35  C   UNL     1      -4.515  -4.918   0.856  0.00  0.00    +0.277 C 
ENDBRANCH  28  34
ENDBRANCH  20  26
ENDBRANCH   1  22
BRANCH   1  36
ATOM     36  C   UNL     1      -7.739   1.016   1.371  0.00  0.00    +0.042 C 
BRANCH  36  37
ATOM     37  C   UNL     1      -6.615   1.909   1.901  0.00  0.00    +0.071 C 
BRANCH  37  38
ATOM     38  S   UNL     1      -7.101   2.605   3.505  0.00  0.00    -0.164 S 
ATOM     39  C   UNL     1      -5.681   3.624   3.989  0.00  0.00    +0.084 C 
ENDBRANCH  37  38
ENDBRANCH  36  37
ENDBRANCH   1  36
TORSDOF 9
