REMARK  Name = ZINC12303532
REMARK  6 active torsions:
REMARK  status: ('A' for Active; 'I' for Inactive)
REMARK    1  A    between atoms: C_1  and  C_2
REMARK    2  A    between atoms: C_10  and  C_11
REMARK    3  A    between atoms: N_13  and  C_14
REMARK    4  A    between atoms: C_14  and  C_16
REMARK    5  A    between atoms: C_14  and  C_17
REMARK    6  A    between atoms: C_19  and  C_22
REMARK                            x       y       z     vdW  Elec       q    Type
REMARK                         _______ _______ _______ _____ _____    ______ ____
ROOT
ATOM      1  C   UNL     1      -1.137   4.908   0.038  0.00  0.00    +0.280 C 
ATOM      2  O   UNL     1      -2.352   4.960   0.049  0.00  0.00    -0.267 OA
ATOM      3  N   UNL     1      -0.414   6.045   0.037  0.00  0.00    -0.298 N 
ATOM      4  H   UNL     1       0.555   6.004   0.028  0.00  0.00    +0.150 HD
ENDROOT
BRANCH   1  14
ATOM      5  C   UNL     1      -2.565   2.145   0.024  0.00  0.00    +0.048 C 
ATOM      6  C   UNL     1      -1.080   2.398   0.019  0.00  0.00    +0.008 A 
ATOM      7  C   UNL     1      -0.017   1.393   0.010  0.00  0.00    +0.027 A 
ATOM      8  C   UNL     1       0.002  -0.004   0.002  0.00  0.00    +0.012 A 
ATOM      9  C   UNL     1       1.197  -0.666  -0.013  0.00  0.00    +0.004 A 
ATOM     10  C   UNL     1       2.393   0.040  -0.020  0.00  0.00    +0.042 A 
ATOM     11  C   UNL     1       2.396   1.420  -0.012  0.00  0.00    +0.166 A 
ATOM     12  C   UNL     1       1.190   2.115   0.002  0.00  0.00    +0.171 A 
ATOM     13  O   UNL     1       0.881   3.427   0.012  0.00  0.00    -0.447 OA
ATOM     14  C   UNL     1      -0.457   3.605   0.025  0.00  0.00    +0.193 A 
ATOM     15  F   UNL     1       3.567   2.094  -0.019  0.00  0.00    -0.202 F 
ENDBRANCH   1  14
BRANCH   3  16
ATOM     16  C   UNL     1      -1.091   7.344   0.049  0.00  0.00    +0.159 C 
ATOM     17  C   UNL     1      -1.426   7.731   1.491  0.00  0.00    +0.038 C 
BRANCH  16  18
ATOM     18  C   UNL     1      -0.188   8.388  -0.554  0.00  0.00    +0.248 A 
ATOM     19  N   UNL     1      -0.530   9.303  -1.427  0.00  0.00    -0.190 NA
ATOM     20  C   UNL     1       0.597  10.007  -1.676  0.00  0.00    +0.202 A 
ATOM     21  N   UNL     1       1.548   9.484  -0.947  0.00  0.00    -0.056 NA
ATOM     22  O   UNL     1       1.113   8.558  -0.295  0.00  0.00    -0.336 OA
BRANCH  20  23
ATOM     23  C   UNL     1       0.730  11.158  -2.603  0.00  0.00    +0.022 A 
ATOM     24  C   UNL     1      -0.375  11.607  -3.324  0.00  0.00    +0.012 A 
ATOM     25  C   UNL     1      -0.247  12.681  -4.181  0.00  0.00    +0.001 A 
ATOM     26  C   UNL     1       0.978  13.305  -4.333  0.00  0.00    +0.000 A 
ATOM     27  C   UNL     1       2.079  12.861  -3.624  0.00  0.00    +0.001 A 
ATOM     28  C   UNL     1       1.961  11.791  -2.760  0.00  0.00    +0.012 A 
ENDBRANCH  20  23
ENDBRANCH  16  18
ENDBRANCH   3  16
TORSDOF 4
