REMARK  Name = ZINC13778992
REMARK  12 active torsions:
REMARK  status: ('A' for Active; 'I' for Inactive)
REMARK    1  A    between atoms: C_1  and  C_2
REMARK    2  A    between atoms: C_2  and  C_3
REMARK    3  A    between atoms: C_3  and  O_4
REMARK    4  A    between atoms: O_4  and  C_5
REMARK    5  A    between atoms: C_8  and  C_14
REMARK    6  A    between atoms: C_10  and  O_11
REMARK    7  A    between atoms: O_11  and  C_12
REMARK    8  A    between atoms: C_12  and  C_13
REMARK    9  A    between atoms: N_22  and  C_25
REMARK   10  A    between atoms: C_28  and  C_31
REMARK   11  A    between atoms: C_31  and  C_32
REMARK   12  A    between atoms: N_34  and  C_35
REMARK                            x       y       z     vdW  Elec       q    Type
REMARK                         _______ _______ _______ _____ _____    ______ ____
ROOT
ATOM      1  C   UNL     1       3.349  -4.483   5.547  0.00  0.00    +0.157 C 
ATOM      2  C   UNL     1       4.861  -4.430   5.371  0.00  0.00    +0.145 C 
ATOM      3  C   UNL     1       5.239  -4.383   6.901  0.00  0.00    +0.249 C 
ATOM      4  C   UNL     1       6.634  -4.772   6.867  0.00  0.00    +0.259 C 
ATOM      5  O   UNL     1       7.521  -4.395   7.603  0.00  0.00    -0.272 OA
ATOM      6  N   UNL     1       6.738  -5.658   5.827  0.00  0.00    -0.208 N 
ATOM      7  C   UNL     1       5.630  -5.662   5.007  0.00  0.00    +0.235 C 
ATOM      8  O   UNL     1       5.331  -6.487   4.171  0.00  0.00    -0.274 OA
ATOM      9  O   UNL     1       4.421  -3.401   7.385  0.00  0.00    -0.257 OA
ATOM     10  N   UNL     1       3.115  -3.732   6.814  0.00  0.00    -0.244 N 
ENDROOT
BRANCH   1  14
ATOM     11  C   UNL     1       1.386  -2.554   2.274  0.00  0.00    +0.162 A 
ATOM     12  C   UNL     1       1.962  -1.799   3.283  0.00  0.00    +0.050 A 
ATOM     13  C   UNL     1       2.595  -2.425   4.340  0.00  0.00    +0.009 A 
ATOM     14  C   UNL     1       2.656  -3.805   4.393  0.00  0.00    -0.018 A 
ATOM     15  C   UNL     1       2.084  -4.565   3.389  0.00  0.00    +0.055 A 
ATOM     16  C   UNL     1       1.442  -3.944   2.330  0.00  0.00    +0.162 A 
BRANCH  11  17
ATOM     17  O   UNL     1       0.761  -1.940   1.234  0.00  0.00    -0.488 OA
BRANCH  17  18
ATOM     18  C   UNL     1       0.742  -0.511   1.242  0.00  0.00    +0.229 C 
BRANCH  18  20
ATOM     19  C   UNL     1      -0.019   1.526   0.010  0.00  0.00    +0.007 C 
ATOM     20  C   UNL     1       0.002  -0.004   0.002  0.00  0.00    +0.038 C 
ENDBRANCH  18  20
ENDBRANCH  17  18
ENDBRANCH  11  17
BRANCH  16  21
ATOM     21  O   UNL     1       0.874  -4.690   1.346  0.00  0.00    -0.489 OA
BRANCH  21  22
ATOM     22  C   UNL     1       0.971  -6.110   1.470  0.00  0.00    +0.226 C 
ATOM     23  C   UNL     1       0.279  -6.774   0.278  0.00  0.00    +0.048 C 
ENDBRANCH  21  22
ENDBRANCH  16  21
ENDBRANCH   1  14
BRANCH   6  24
ATOM     24  C   UNL     1       7.860  -6.470   5.607  0.00  0.00    +0.044 A 
ATOM     25  C   UNL     1       7.890  -7.338   4.525  0.00  0.00    +0.024 A 
ATOM     26  C   UNL     1       8.997  -8.136   4.311  0.00  0.00    +0.005 A 
ATOM     27  C   UNL     1      10.075  -8.071   5.175  0.00  0.00    -0.048 A 
ATOM     28  C   UNL     1      10.048  -7.207   6.254  0.00  0.00    +0.005 A 
ATOM     29  C   UNL     1       8.947  -6.402   6.469  0.00  0.00    +0.024 A 
BRANCH  27  30
ATOM     30  C   UNL     1      11.281  -8.944   4.939  0.00  0.00    +0.032 C 
ATOM     31  C   UNL     1      12.278  -8.204   4.045  0.00  0.00    +0.009 C 
ENDBRANCH  27  30
ENDBRANCH   6  24
BRANCH  10  32
ATOM     32  C   UNL     1       1.870  -3.396   7.351  0.00  0.00    +0.065 A 
ATOM     33  C   UNL     1       0.705  -3.772   6.696  0.00  0.00    +0.028 A 
ATOM     34  C   UNL     1      -0.525  -3.439   7.230  0.00  0.00    +0.002 A 
ATOM     35  C   UNL     1      -0.596  -2.732   8.416  0.00  0.00    +0.000 A 
ATOM     36  C   UNL     1       0.562  -2.356   9.071  0.00  0.00    +0.002 A 
ATOM     37  C   UNL     1       1.794  -2.690   8.546  0.00  0.00    +0.028 A 
ENDBRANCH  10  32
TORSDOF 9
