REMARK  Name = ZINC39928143
REMARK  18 active torsions:
REMARK  status: ('A' for Active; 'I' for Inactive)
REMARK    1  A    between atoms: C_1  and  C_2
REMARK    2  A    between atoms: C_2  and  O_3
REMARK    3  A    between atoms: O_3  and  C_4
REMARK    4  A    between atoms: C_6  and  C_16
REMARK    5  A    between atoms: C_8  and  O_13
REMARK    6  A    between atoms: C_9  and  O_10
REMARK    7  A    between atoms: O_10  and  C_11
REMARK    8  A    between atoms: C_11  and  C_12
REMARK    9  A    between atoms: O_13  and  C_14
REMARK   10  A    between atoms: C_14  and  C_15
REMARK   11  A    between atoms: N_18  and  C_19
REMARK   12  A    between atoms: N_18  and  C_34
REMARK   13  A    between atoms: C_19  and  C_20
REMARK   14  A    between atoms: C_25  and  O_32
REMARK   15  A    between atoms: O_32  and  C_33
REMARK   16  A    between atoms: C_34  and  C_35
REMARK   17  A    between atoms: C_34  and  C_36
REMARK   18  A    between atoms: C_34  and  C_37
REMARK                            x       y       z     vdW  Elec       q    Type
REMARK                         _______ _______ _______ _____ _____    ______ ____
ROOT
ATOM      1  C   UNL     1      -1.890  -4.535   1.228  0.00  0.00    +0.247 C 
ATOM      2  O   UNL     1      -1.748  -3.692   2.093  0.00  0.00    -0.270 OA
ATOM      3  N   UNL     1      -1.130  -5.647   1.240  0.00  0.00    -0.291 N 
ENDROOT
BRANCH   1   6
ATOM      4  C   UNL     1      -4.437  -2.909  -1.005  0.00  0.00    +0.166 A 
ATOM      5  C   UNL     1      -3.496  -3.090  -0.009  0.00  0.00    +0.062 A 
ATOM      6  C   UNL     1      -2.896  -4.339   0.166  0.00  0.00    +0.044 A 
ATOM      7  C   UNL     1      -3.248  -5.403  -0.668  0.00  0.00    +0.062 A 
ATOM      8  C   UNL     1      -4.189  -5.218  -1.663  0.00  0.00    +0.166 A 
ATOM      9  C   UNL     1      -4.790  -3.973  -1.831  0.00  0.00    +0.204 A 
BRANCH   4  10
ATOM     10  O   UNL     1      -5.022  -1.694  -1.175  0.00  0.00    -0.488 OA
BRANCH  10  12
ATOM     11  C   UNL     1      -5.373   0.635  -0.633  0.00  0.00    +0.048 C 
ATOM     12  C   UNL     1      -4.612  -0.647  -0.292  0.00  0.00    +0.226 C 
ENDBRANCH  10  12
ENDBRANCH   4  10
BRANCH   9  13
ATOM     13  O   UNL     1      -5.719  -3.794  -2.807  0.00  0.00    -0.485 OA
BRANCH  13  14
ATOM     14  C   UNL     1      -5.242  -3.381  -4.089  0.00  0.00    +0.226 C 
ATOM     15  C   UNL     1      -6.424  -3.233  -5.049  0.00  0.00    +0.048 C 
ENDBRANCH  13  14
ENDBRANCH   9  13
BRANCH   8  16
ATOM     16  O   UNL     1      -4.533  -6.253  -2.476  0.00  0.00    -0.488 OA
BRANCH  16  17
ATOM     17  C   UNL     1      -4.104  -7.558  -2.081  0.00  0.00    +0.226 C 
ATOM     18  C   UNL     1      -4.705  -8.600  -3.025  0.00  0.00    +0.048 C 
ENDBRANCH  16  17
ENDBRANCH   8  16
ENDBRANCH   1   6
BRANCH   3  19
ATOM     19  C   UNL     1      -1.175  -6.578   0.110  0.00  0.00    +0.029 C 
ATOM     20  C   UNL     1      -1.391  -5.795  -1.187  0.00  0.00    +0.031 C 
ATOM     21  C   UNL     1       0.146  -7.345   0.028  0.00  0.00    +0.031 C 
ATOM     22  C   UNL     1      -2.327  -7.565   0.307  0.00  0.00    +0.031 C 
ENDBRANCH   3  19
BRANCH   3  23
ATOM     23  C   UNL     1      -0.258  -5.927   2.384  0.00  0.00    +0.125 C 
BRANCH  23  24
ATOM     24  C   UNL     1      -1.113  -6.187   3.626  0.00  0.00    +0.116 C 
ATOM     25  C   UNL     1      -0.190  -6.223   4.828  0.00  0.00    -0.003 C 
ATOM     26  C   UNL     1      -0.188  -7.360   5.580  0.00  0.00    -0.004 A 
ATOM     27  C   UNL     1       0.674  -7.479   6.757  0.00  0.00    +0.055 A 
ATOM     28  C   UNL     1       0.643  -8.633   7.479  0.00  0.00    +0.121 A 
ATOM     29  C   UNL     1      -0.192  -9.696   7.115  0.00  0.00    +0.047 A 
ATOM     30  C   UNL     1      -1.013  -9.644   6.035  0.00  0.00    +0.027 A 
ATOM     31  C   UNL     1      -1.056  -8.495   5.222  0.00  0.00    +0.041 A 
ATOM     32  N   UNL     1      -1.867  -8.458   4.165  0.00  0.00    -0.284 N 
ATOM     33  C   UNL     1      -1.956  -7.414   3.360  0.00  0.00    +0.226 C 
ATOM     34  O   UNL     1      -2.715  -7.439   2.410  0.00  0.00    -0.275 OA
ATOM     35  H   UNL     1      -2.417  -9.235   3.977  0.00  0.00    +0.155 HD
BRANCH  28  36
ATOM     36  O   UNL     1       1.439  -8.756   8.574  0.00  0.00    -0.495 OA
ATOM     37  C   UNL     1       1.367  -9.988   9.293  0.00  0.00    +0.277 C 
ENDBRANCH  28  36
ENDBRANCH  23  24
ENDBRANCH   3  23
TORSDOF 11
