REMARK  Name = ZINC00156752
REMARK  6 active torsions:
REMARK  status: ('A' for Active; 'I' for Inactive)
REMARK    1  A    between atoms: C_1  and  C_2
REMARK    2  A    between atoms: C_3  and  C_19
REMARK    3  A    between atoms: C_16  and  C_17
REMARK    4  A    between atoms: N_20  and  N_21
REMARK    5  A    between atoms: N_21  and  C_22
REMARK    6  A    between atoms: C_22  and  N_24
REMARK                            x       y       z     vdW  Elec       q    Type
REMARK                         _______ _______ _______ _____ _____    ______ ____
ROOT
ATOM      1  C   UNL     1       3.712   2.157  -0.021  0.00  0.00    +0.046 C 
ATOM      2  C   UNL     1       2.411   1.398  -0.013  0.00  0.00    -0.016 A 
ATOM      3  C   UNL     1       2.403   0.006  -0.021  0.00  0.00    +0.064 A 
ATOM      4  C   UNL     1       1.167  -0.681  -0.013  0.00  0.00    +0.266 A 
ATOM      5  O   UNL     1       1.156  -1.900  -0.019  0.00  0.00    -0.267 OA
ATOM      6  N   UNL     1       0.002  -0.004   0.002  0.00  0.00    -0.259 N 
ATOM      7  C   UNL     1      -1.317  -0.457   0.012  0.00  0.00    +0.075 A 
ATOM      8  C   UNL     1      -1.880  -1.726   0.010  0.00  0.00    +0.028 A 
ATOM      9  C   UNL     1      -3.252  -1.869   0.022  0.00  0.00    +0.002 A 
ATOM     10  C   UNL     1      -4.071  -0.752   0.037  0.00  0.00    +0.002 A 
ATOM     11  C   UNL     1      -3.522   0.514   0.038  0.00  0.00    +0.028 A 
ATOM     12  C   UNL     1      -2.142   0.669   0.026  0.00  0.00    +0.065 A 
ATOM     13  N   UNL     1      -1.313   1.783   0.019  0.00  0.00    -0.338 N 
ATOM     14  H   UNL     1      -1.606   2.708   0.025  0.00  0.00    +0.167 HD
ATOM     15  C   UNL     1      -0.016   1.355   0.009  0.00  0.00    +0.137 A 
ATOM     16  C   UNL     1       1.186   2.082   0.002  0.00  0.00    +0.096 A 
ENDROOT
BRANCH  16  17
ATOM     17  C   UNL     1       1.161   3.513   0.009  0.00  0.00    +0.103 C 
ATOM     18  N   UNL     1       1.142   4.649   0.015  0.00  0.00    -0.191 NA
ENDBRANCH  16  17
BRANCH   3  19
ATOM     19  C   UNL     1       3.669  -0.743  -0.036  0.00  0.00    +0.144 C 
ATOM     20  N   UNL     1       3.655  -2.042  -0.043  0.00  0.00    -0.188 NA
BRANCH  20  21
ATOM     21  N   UNL     1       4.861  -2.755  -0.058  0.00  0.00    -0.219 N 
ATOM     22  H   UNL     1       5.706  -2.279  -0.063  0.00  0.00    +0.176 HD
BRANCH  21  23
ATOM     23  C   UNL     1       4.847  -4.103  -0.064  0.00  0.00    +0.147 C 
ATOM     24  S   UNL     1       6.320  -4.974  -0.083  0.00  0.00    -0.017 S 
BRANCH  23  25
ATOM     25  N   UNL     1       3.672  -4.764  -0.057  0.00  0.00    -0.339 N 
ATOM     26  H   UNL     1       2.838  -4.270  -0.046  0.00  0.00    +0.144 HD
ATOM     27  H   UNL     1       3.662  -5.734  -0.061  0.00  0.00    +0.144 HD
ENDBRANCH  23  25
ENDBRANCH  21  23
ENDBRANCH  20  21
ENDBRANCH   3  19
TORSDOF 5
