REMARK  Name = ZINC20874764
REMARK  12 active torsions:
REMARK  status: ('A' for Active; 'I' for Inactive)
REMARK    1  A    between atoms: C_1  and  C_2
REMARK    2  A    between atoms: C_2  and  O_3
REMARK    3  A    between atoms: O_3  and  C_4
REMARK    4  A    between atoms: C_6  and  C_20
REMARK    5  A    between atoms: C_9  and  O_10
REMARK    6  A    between atoms: O_10  and  C_11
REMARK    7  A    between atoms: C_11  and  C_12
REMARK    8  A    between atoms: C_15  and  C_18
REMARK    9  A    between atoms: C_20  and  N_21
REMARK   10  A    between atoms: N_21  and  C_22
REMARK   11  A    between atoms: C_22  and  C_23
REMARK   12  A    between atoms: C_23  and  C_24
REMARK                            x       y       z     vdW  Elec       q    Type
REMARK                         _______ _______ _______ _____ _____    ______ ____
ROOT
ATOM      1  C   UNL     1      -6.934  -3.450  -2.550  0.00  0.00    +0.163 A 
ATOM      2  C   UNL     1      -5.833  -2.610  -2.593  0.00  0.00    +0.051 A 
ATOM      3  C   UNL     1      -4.564  -3.140  -2.732  0.00  0.00    -0.060 A 
ATOM      4  C   UNL     1      -4.390  -4.508  -2.833  0.00  0.00    +0.021 A 
ATOM      5  C   UNL     1      -5.484  -5.352  -2.785  0.00  0.00    +0.063 A 
ATOM      6  C   UNL     1      -6.759  -4.827  -2.646  0.00  0.00    +0.176 A 
ATOM      7 BR   UNL     1      -5.241  -7.223  -2.916  0.00  0.00    -0.046 Br
ENDROOT
BRANCH   1   8
ATOM      8  O   UNL     1      -8.183  -2.929  -2.414  0.00  0.00    -0.489 OA
BRANCH   8  10
ATOM      9  C   UNL     1      -9.758  -1.111  -2.175  0.00  0.00    +0.048 C 
ATOM     10  C   UNL     1      -8.287  -1.507  -2.322  0.00  0.00    +0.226 C 
ENDBRANCH   8  10
ENDBRANCH   1   8
BRANCH   6  11
ATOM     11  O   UNL     1      -7.837  -5.655  -2.605  0.00  0.00    -0.483 OA
BRANCH  11  12
ATOM     12  C   UNL     1      -8.458  -5.975  -3.852  0.00  0.00    +0.264 C 
BRANCH  12  13
ATOM     13  C   UNL     1      -9.625  -6.897  -3.610  0.00  0.00    -0.010 A 
ATOM     14  C   UNL     1      -9.439  -8.266  -3.621  0.00  0.00    +0.007 A 
ATOM     15  C   UNL     1     -10.509  -9.112  -3.395  0.00  0.00    +0.004 A 
ATOM     16  C   UNL     1     -11.767  -8.588  -3.166  0.00  0.00    -0.050 A 
ATOM     17  C   UNL     1     -11.955  -7.218  -3.160  0.00  0.00    +0.004 A 
ATOM     18  C   UNL     1     -10.884  -6.373  -3.382  0.00  0.00    +0.007 A 
ATOM     19  C   UNL     1     -12.935  -9.509  -2.924  0.00  0.00    +0.044 C 
ENDBRANCH  12  13
ENDBRANCH  11  12
ENDBRANCH   6  11
BRANCH   3  20
ATOM     20  C   UNL     1      -3.368  -2.224  -2.779  0.00  0.00    -0.047 C 
BRANCH  20  21
ATOM     21  N   UNL     1      -2.862  -2.008  -1.417  0.00  0.00    +0.382 N 
ATOM     22  H   UNL     1      -3.651  -1.549  -0.802  0.00  0.00    -0.085 HD
ATOM     23  H   UNL     1      -2.569  -2.972  -0.977  0.00  0.00    -0.085 HD
BRANCH  21  24
ATOM     24  C   UNL     1      -1.694  -1.118  -1.424  0.00  0.00    -0.077 C 
BRANCH  24  25
ATOM     25  C   UNL     1      -1.197  -0.917   0.009  0.00  0.00    +0.018 C 
BRANCH  25  26
ATOM     26  C   UNL     1       0.002  -0.004   0.002  0.00  0.00    -0.024 A 
ATOM     27  C   UNL     1       1.291  -0.379  -0.012  0.00  0.00    +0.087 A 
ATOM     28  N   UNL     1       2.098   0.726  -0.014  0.00  0.00    -0.360 N 
ATOM     29  H   UNL     1       3.192   0.608  -0.025  0.00  0.00    +0.165 HD
ATOM     30  C   UNL     1       1.329   1.868  -0.001  0.00  0.00    +0.047 A 
ATOM     31  C   UNL     1      -0.018   1.461   0.010  0.00  0.00    +0.003 A 
ATOM     32  C   UNL     1      -1.034   2.417   0.030  0.00  0.00    +0.010 A 
ATOM     33  C   UNL     1      -0.716   3.746   0.030  0.00  0.00    +0.001 A 
ATOM     34  C   UNL     1       0.611   4.153   0.019  0.00  0.00    +0.002 A 
ATOM     35  C   UNL     1       1.631   3.225   0.004  0.00  0.00    +0.026 A 
ENDBRANCH  25  26
ENDBRANCH  24  25
ENDBRANCH  21  24
ENDBRANCH  20  21
ENDBRANCH   3  20
TORSDOF 10
