REMARK  Name = ZINC08881198
REMARK  7 active torsions:
REMARK  status: ('A' for Active; 'I' for Inactive)
REMARK    1  A    between atoms: C_1  and  C_2
REMARK    2  A    between atoms: C_3  and  C_24
REMARK    3  A    between atoms: C_4  and  C_10
REMARK    4  A    between atoms: C_13  and  C_15
REMARK    5  A    between atoms: C_20  and  N_21
REMARK    6  A    between atoms: C_24  and  O_26
REMARK    7  A    between atoms: O_26  and  C_27
REMARK                            x       y       z     vdW  Elec       q    Type
REMARK                         _______ _______ _______ _____ _____    ______ ____
ROOT
ATOM      1  C   UNL     1      -1.510   4.648  -3.013  0.00  0.00    +0.061 C 
ATOM      2  C   UNL     1      -1.344   4.113  -1.614  0.00  0.00    +0.021 C 
ATOM      3  C   UNL     1      -1.626   2.817  -1.361  0.00  0.00    +0.078 C 
ATOM      4  C   UNL     1      -1.445   2.320   0.059  0.00  0.00    +0.150 C 
ATOM      5  N   UNL     1      -0.973   3.299   1.053  0.00  0.00    -0.288 N 
ATOM      6  C   UNL     1      -0.732   4.561   0.646  0.00  0.00    +0.304 C 
ATOM      7  O   UNL     1      -0.342   5.376   1.459  0.00  0.00    -0.252 OA
ATOM      8  N   UNL     1      -0.909   4.946  -0.624  0.00  0.00    -0.273 N 
ATOM      9  H   UNL     1      -0.837   3.041   1.978  0.00  0.00    +0.151 HD
ATOM     10  H   UNL     1      -0.719   5.869  -0.853  0.00  0.00    +0.156 HD
ENDROOT
BRANCH   4  11
ATOM     11  C   UNL     1      -0.464   1.177   0.030  0.00  0.00    +0.015 A 
ATOM     12  C   UNL     1      -0.708  -0.158   0.061  0.00  0.00    +0.014 A 
ATOM     13  C   UNL     1       0.354  -1.036   0.019  0.00  0.00    +0.016 A 
ATOM     14  C   UNL     1       1.624  -0.529  -0.053  0.00  0.00    +0.022 A 
ATOM     15  S   UNL     1       1.318   1.230  -0.062  0.00  0.00    -0.091 S 
BRANCH  14  16
ATOM     16  C   UNL     1       2.913  -1.251  -0.110  0.00  0.00    +0.019 A 
ATOM     17  C   UNL     1       3.196  -2.254   0.820  0.00  0.00    +0.011 A 
ATOM     18  C   UNL     1       4.398  -2.928   0.758  0.00  0.00    +0.001 A 
ATOM     19  C   UNL     1       5.327  -2.603  -0.215  0.00  0.00    +0.002 A 
ATOM     20  C   UNL     1       5.055  -1.607  -1.135  0.00  0.00    +0.033 A 
ATOM     21  C   UNL     1       3.854  -0.929  -1.088  0.00  0.00    +0.134 A 
BRANCH  21  22
ATOM     22  N   UNL     1       3.565   0.136  -2.074  0.00  0.00    +0.057 N 
ATOM     23  O   UNL     1       4.387   0.416  -2.928  0.00  0.00    -0.126 OA
ATOM     24  O   UNL     1       2.504   0.733  -2.032  0.00  0.00    -0.126 OA
ENDBRANCH  21  22
ENDBRANCH  14  16
ENDBRANCH   4  11
BRANCH   3  25
ATOM     25  C   UNL     1      -2.076   1.952  -2.386  0.00  0.00    +0.339 C 
ATOM     26  O   UNL     1      -2.324   2.396  -3.491  0.00  0.00    -0.245 OA
BRANCH  25  27
ATOM     27  O   UNL     1      -2.231   0.635  -2.138  0.00  0.00    -0.465 OA
ATOM     28  C   UNL     1      -2.689  -0.179  -3.220  0.00  0.00    +0.280 C 
ENDBRANCH  25  27
ENDBRANCH   3  25
TORSDOF 5
