REMARK  Name = ZINC66808208
REMARK  5 active torsions:
REMARK  status: ('A' for Active; 'I' for Inactive)
REMARK    1  A    between atoms: C_6  and  C_7
REMARK    2  A    between atoms: C_11  and  N_13
REMARK    3  A    between atoms: N_13  and  C_14
REMARK    4  A    between atoms: C_14  and  C_15
REMARK    5  A    between atoms: C_15  and  C_16
REMARK                            x       y       z     vdW  Elec       q    Type
REMARK                         _______ _______ _______ _____ _____    ______ ____
ROOT
ATOM      1  C   UNL     1      -1.261  -0.784   0.010  0.00  0.00    +0.162 A 
ATOM      2  N   UNL     1      -1.202  -2.107   0.008  0.00  0.00    -0.232 NA
ATOM      3  C   UNL     1      -2.307  -2.839   0.016  0.00  0.00    +0.050 A 
ATOM      4  C   UNL     1      -3.534  -2.204   0.026  0.00  0.00    +0.014 A 
ATOM      5  C   UNL     1      -3.565  -0.808   0.028  0.00  0.00    +0.126 A 
ATOM      6  N   UNL     1      -2.418  -0.138   0.025  0.00  0.00    -0.213 NA
ATOM      7  C   UNL     1      -4.644  -3.229   0.033  0.00  0.00    +0.041 C 
ATOM      8  C   UNL     1      -3.977  -4.549  -0.410  0.00  0.00    +0.011 C 
ATOM      9  C   UNL     1      -2.508  -4.338   0.016  0.00  0.00    +0.056 C 
ENDROOT
BRANCH   1  15
ATOM     10  C   UNL     1      -0.017   1.393   0.010  0.00  0.00    +0.031 A 
ATOM     11  C   UNL     1       1.181   2.079   0.002  0.00  0.00    +0.111 A 
ATOM     12  N   UNL     1       2.331   1.433  -0.013  0.00  0.00    -0.263 NA
ATOM     13  C   UNL     1       2.393   0.116  -0.020  0.00  0.00    +0.111 A 
ATOM     14  C   UNL     1       1.242  -0.647  -0.013  0.00  0.00    +0.031 A 
ATOM     15  C   UNL     1       0.002  -0.004   0.002  0.00  0.00    +0.022 A 
ENDBRANCH   1  15
BRANCH   5  16
ATOM     16  N   UNL     1      -4.775  -0.132   0.038  0.00  0.00    -0.328 N 
ATOM     17  H   UNL     1      -5.608  -0.628   0.043  0.00  0.00    +0.147 HD
BRANCH  16  18
ATOM     18  C   UNL     1      -4.795   1.333   0.040  0.00  0.00    +0.109 C 
BRANCH  18  19
ATOM     19  C   UNL     1      -6.244   1.823   0.051  0.00  0.00    +0.073 C 
BRANCH  19  20
ATOM     20  C   UNL     1      -6.265   3.330   0.054  0.00  0.00    +0.035 A 
ATOM     21  C   UNL     1      -6.167   4.122   1.141  0.00  0.00    +0.108 A 
ATOM     22  N   UNL     1      -6.229   5.408   0.695  0.00  0.00    -0.336 N 
ATOM     23  C   UNL     1      -6.365   5.364  -0.652  0.00  0.00    +0.087 A 
ATOM     24  N   UNL     1      -6.379   4.119  -1.027  0.00  0.00    -0.347 N 
ATOM     25  C   UNL     1      -6.472   6.588  -1.530  0.00  0.00    +0.072 C 
ATOM     26  C   UNL     1      -6.801   7.792  -0.637  0.00  0.00    +0.009 C 
ATOM     27  C   UNL     1      -5.844   7.811   0.557  0.00  0.00    +0.022 C 
ATOM     28  C   UNL     1      -6.164   6.637   1.489  0.00  0.00    +0.123 C 
ATOM     29  H   UNL     1      -6.461   3.809  -1.943  0.00  0.00    +0.167 HD
ENDBRANCH  19  20
ENDBRANCH  18  19
ENDBRANCH  16  18
ENDBRANCH   5  16
TORSDOF 5
