REMARK  Name = ZINC08782117
REMARK  5 active torsions:
REMARK  status: ('A' for Active; 'I' for Inactive)
REMARK    1  A    between atoms: C_7  and  C_11
REMARK    2  A    between atoms: C_11  and  C_12
REMARK    3  A    between atoms: C_12  and  C_14
REMARK    4  A    between atoms: C_12  and  N_51
REMARK    5  A    between atoms: N_16  and  C_17
REMARK                            x       y       z     vdW  Elec       q    Type
REMARK                         _______ _______ _______ _____ _____    ______ ____
ROOT
ATOM      1  C   UNL     1      -1.250   7.438  -0.170  0.00  0.00    +0.024 C 
ENDROOT
BRANCH   1   9
ATOM      2  C   UNL     1      -2.973   9.133  -0.210  0.00  0.00    -0.055 C 
ATOM      3  C   UNL     1      -4.495   9.308  -0.238  0.00  0.00    +0.147 C 
ATOM      4  S   UNL     1      -5.139   9.037   1.442  0.00  0.00    -0.034 S 
ATOM      5  O   UNL     1      -6.549   8.874   1.365  0.00  0.00    -0.174 OA
ATOM      6  O   UNL     1      -4.599  10.033   2.300  0.00  0.00    -0.174 OA
ATOM      7  C   UNL     1      -4.392   7.436   1.870  0.00  0.00    +0.147 C 
ATOM      8  C   UNL     1      -2.884   7.516   1.610  0.00  0.00    -0.055 C 
ATOM      9  N   UNL     1      -2.654   7.738   0.164  0.00  0.00    +0.390 N 
ATOM     10  H   UNL     1      -3.264   7.106  -0.368  0.00  0.00    -0.081 HD
ENDBRANCH   1   9
BRANCH   1  11
ATOM     11  C   UNL     1      -0.969   5.997   0.173  0.00  0.00    +0.204 C 
ATOM     12  O   UNL     1      -1.886   5.218   0.317  0.00  0.00    -0.277 OA
ATOM     13  N   UNL     1       0.303   5.576   0.319  0.00  0.00    -0.287 N 
ATOM     14  H   UNL     1       1.034   6.213   0.275  0.00  0.00    +0.155 HD
BRANCH  13  15
ATOM     15  C   UNL     1       0.570   4.219   0.534  0.00  0.00    +0.034 A 
ATOM     16  C   UNL     1      -0.253   3.251  -0.026  0.00  0.00    +0.023 A 
ATOM     17  C   UNL     1       0.012   1.912   0.188  0.00  0.00    +0.003 A 
ATOM     18  C   UNL     1       1.096   1.536   0.959  0.00  0.00    +0.015 A 
ATOM     19  C   UNL     1       1.915   2.497   1.523  0.00  0.00    +0.020 A 
ATOM     20  C   UNL     1       1.658   3.838   1.308  0.00  0.00    +0.038 A 
ATOM     21 BR   UNL     1       3.392   1.977   2.584  0.00  0.00    -0.050 Br
ENDBRANCH  13  15
ENDBRANCH   1  11
BRANCH   1  22
ATOM     22  C   UNL     1      -1.046   7.654  -1.671  0.00  0.00    +0.031 C 
BRANCH  22  29
ATOM     23  C   UNL     1       1.193   3.789  -3.091  0.00  0.00    +0.001 A 
ATOM     24  C   UNL     1       2.548   3.998  -3.309  0.00  0.00    +0.002 A 
ATOM     25  C   UNL     1       3.108   5.240  -3.108  0.00  0.00    +0.026 A 
ATOM     26  C   UNL     1       2.311   6.297  -2.683  0.00  0.00    +0.047 A 
ATOM     27  C   UNL     1       0.938   6.080  -2.463  0.00  0.00    +0.003 A 
ATOM     28  C   UNL     1       0.391   4.813  -2.673  0.00  0.00    +0.010 A 
ATOM     29  C   UNL     1       0.389   7.367  -2.029  0.00  0.00    -0.023 A 
ATOM     30  C   UNL     1       1.406   8.243  -2.017  0.00  0.00    +0.087 A 
ATOM     31  N   UNL     1       2.563   7.621  -2.400  0.00  0.00    -0.360 N 
ATOM     32  H   UNL     1       3.430   8.049  -2.466  0.00  0.00    +0.165 HD
ENDBRANCH  22  29
ENDBRANCH   1  22
TORSDOF 5
