REMARK  Name = ZINC63907383
REMARK  7 active torsions:
REMARK  status: ('A' for Active; 'I' for Inactive)
REMARK    1  A    between atoms: C_1  and  C_2
REMARK    2  A    between atoms: C_8  and  N_10
REMARK    3  A    between atoms: C_11  and  C_13
REMARK    4  A    between atoms: C_13  and  C_15
REMARK    5  A    between atoms: C_13  and  N_16
REMARK    6  A    between atoms: C_19  and  C_24
REMARK    7  A    between atoms: C_24  and  C_25
REMARK                            x       y       z     vdW  Elec       q    Type
REMARK                         _______ _______ _______ _____ _____    ______ ____
ROOT
ATOM      1  N   UNL     1       0.984   0.635   5.955  0.00  0.00    -0.213 N 
ATOM      2  C   UNL     1       1.285   1.758   6.637  0.00  0.00    +0.244 C 
ATOM      3  O   UNL     1       0.838   2.869   6.453  0.00  0.00    -0.273 OA
ATOM      4  C   UNL     1       2.300   1.341   7.683  0.00  0.00    +0.165 C 
ATOM      5  N   UNL     1       2.468  -0.103   7.447  0.00  0.00    -0.287 N 
ATOM      6  C   UNL     1       1.656  -0.422   6.423  0.00  0.00    +0.310 C 
ATOM      7  O   UNL     1       1.548  -1.546   5.971  0.00  0.00    -0.252 OA
ATOM      8  H   UNL     1       3.049  -0.707   7.936  0.00  0.00    +0.151 HD
ENDROOT
BRANCH   1   9
ATOM      9  C   UNL     1       0.033   0.579   4.842  0.00  0.00    +0.168 C 
ATOM     10  C   UNL     1      -1.105  -0.382   5.191  0.00  0.00    +0.038 C 
BRANCH   9  12
ATOM     11  N   UNL     1       0.056  -0.038   2.447  0.00  0.00    -0.311 N 
ATOM     12  C   UNL     1       0.738   0.093   3.602  0.00  0.00    +0.234 C 
ATOM     13  O   UNL     1       1.919  -0.179   3.644  0.00  0.00    -0.274 OA
ATOM     14  H   UNL     1      -0.888   0.180   2.413  0.00  0.00    +0.149 HD
BRANCH  11  21
ATOM     15  C   UNL     1      -0.019   1.526   0.010  0.00  0.00    +0.009 C 
ATOM     16  C   UNL     1       0.002  -0.004   0.002  0.00  0.00    +0.006 C 
ATOM     17  C   UNL     1       0.718  -0.497  -1.257  0.00  0.00    +0.005 C 
ATOM     18  C   UNL     1       0.739  -2.027  -1.265  0.00  0.00    +0.000 C 
ATOM     19  C   UNL     1       1.479  -2.534  -0.026  0.00  0.00    +0.002 C 
ATOM     20  C   UNL     1       0.763  -2.041   1.233  0.00  0.00    +0.022 C 
ATOM     21  C   UNL     1       0.742  -0.511   1.242  0.00  0.00    +0.076 C 
ENDBRANCH  11  21
ENDBRANCH   9  12
ENDBRANCH   1   9
BRANCH   4  22
ATOM     22  C   UNL     1       3.623   2.082   7.475  0.00  0.00    +0.065 C 
BRANCH  22  23
ATOM     23  C   UNL     1       4.570   1.742   8.597  0.00  0.00    -0.039 C 
ATOM     24  C   UNL     1       5.527   0.786   8.593  0.00  0.00    -0.001 A 
ATOM     25  C   UNL     1       5.955  -0.187   7.581  0.00  0.00    +0.010 A 
ATOM     26  C   UNL     1       6.965  -1.037   7.875  0.00  0.00    +0.001 A 
ATOM     27  C   UNL     1       7.612  -1.011   9.118  0.00  0.00    +0.002 A 
ATOM     28  C   UNL     1       7.275  -0.146  10.098  0.00  0.00    +0.026 A 
ATOM     29  C   UNL     1       6.226   0.794   9.897  0.00  0.00    +0.043 A 
ATOM     30  N   UNL     1       5.722   1.718  10.678  0.00  0.00    -0.380 N 
ATOM     31  C   UNL     1       4.648   2.407   9.954  0.00  0.00    +0.144 C 
ATOM     32  H   UNL     1       6.013   1.916  11.582  0.00  0.00    +0.160 HD
ENDBRANCH  22  23
ENDBRANCH   4  22
TORSDOF 5
