REMARK  Name = ZINC03849184
REMARK  4 active torsions:
REMARK  status: ('A' for Active; 'I' for Inactive)
REMARK    1  A    between atoms: C_4  and  C_7
REMARK    2  A    between atoms: C_9  and  N_13
REMARK    3  A    between atoms: C_17  and  C_19
REMARK    4  A    between atoms: C_19  and  C_21
REMARK                            x       y       z     vdW  Elec       q    Type
REMARK                         _______ _______ _______ _____ _____    ______ ____
ROOT
ATOM      1  N   UNL     1       5.935  -3.374   0.796  0.00  0.00    -0.189 N 
ATOM      2  C   UNL     1       6.569  -4.227  -0.090  0.00  0.00    +0.190 A 
ATOM      3  N   UNL     1       6.663  -4.152  -1.393  0.00  0.00    -0.276 NA
ATOM      4  S   UNL     1       7.225  -5.457   1.027  0.00  0.00    -0.025 S 
ATOM      5  C   UNL     1       6.617  -4.755   2.552  0.00  0.00    +0.173 A 
ATOM      6  N   UNL     1       5.990  -3.680   2.137  0.00  0.00    -0.152 NA
ATOM      7  H   UNL     1       7.146  -4.835  -1.884  0.00  0.00    +0.189 HD
ENDROOT
BRANCH   1  10
ATOM      8  C   UNL     1       3.699  -0.689  -0.038  0.00  0.00    +0.109 A 
ATOM      9  C   UNL     1       3.971  -1.913   0.602  0.00  0.00    +0.089 A 
ATOM     10  C   UNL     1       5.267  -2.236   0.346  0.00  0.00    +0.167 A 
ATOM     11  N   UNL     1       5.793  -1.250  -0.429  0.00  0.00    -0.259 N 
ATOM     12  H   UNL     1       6.702  -1.214  -0.766  0.00  0.00    +0.191 HD
ATOM     13  N   UNL     1       4.792  -0.298  -0.659  0.00  0.00    -0.171 NA
ATOM     14 BR   UNL     1       2.752  -2.925   1.634  0.00  0.00    -0.044 Br
BRANCH   8  18
ATOM     15  C   UNL     1      -0.017   1.379   0.010  0.00  0.00    +0.000 A 
ATOM     16  C   UNL     1       1.169   2.092   0.002  0.00  0.00    +0.001 A 
ATOM     17  C   UNL     1       2.377   1.426  -0.013  0.00  0.00    +0.010 A 
ATOM     18  C   UNL     1       2.402   0.033  -0.021  0.00  0.00    +0.003 A 
ATOM     19  C   UNL     1       1.205  -0.680  -0.013  0.00  0.00    +0.010 A 
ATOM     20  C   UNL     1       0.002  -0.004   0.002  0.00  0.00    +0.001 A 
ENDBRANCH   8  18
ENDBRANCH   1  10
BRANCH   5  21
ATOM     21  C   UNL     1       6.783  -5.253   3.927  0.00  0.00    +0.226 C 
ATOM     22  O   UNL     1       7.408  -6.278   4.133  0.00  0.00    -0.284 OA
BRANCH  21  23
ATOM     23  C   UNL     1       6.197  -4.516   5.049  0.00  0.00    +0.062 A 
ATOM     24  C   UNL     1       6.240  -4.806   6.406  0.00  0.00    +0.019 A 
ATOM     25  C   UNL     1       5.589  -3.918   7.227  0.00  0.00    +0.008 A 
ATOM     26  C   UNL     1       4.964  -2.847   6.676  0.00  0.00    +0.046 A 
ATOM     27  S   UNL     1       5.247  -3.007   5.028  0.00  0.00    -0.093 S 
ENDBRANCH  21  23
ENDBRANCH   5  21
TORSDOF 4
