REMARK  Name = ZINC07333686
REMARK  6 active torsions:
REMARK  status: ('A' for Active; 'I' for Inactive)
REMARK    1  A    between atoms: C_1  and  C_2
REMARK    2  A    between atoms: C_4  and  C_10
REMARK    3  A    between atoms: C_6  and  C_9
REMARK    4  A    between atoms: C_7  and  O_8
REMARK    5  A    between atoms: C_11  and  C_12
REMARK    6  A    between atoms: C_12  and  C_14
REMARK                            x       y       z     vdW  Elec       q    Type
REMARK                         _______ _______ _______ _____ _____    ______ ____
ROOT
ATOM      1  C   UNL     1      -1.250   1.768   0.018  0.00  0.00    +0.186 C 
ATOM      2  O   UNL     1      -1.267   2.986   0.024  0.00  0.00    -0.287 OA
ENDROOT
BRANCH   1   3
ATOM      3  C   UNL     1      -2.519   1.012   0.019  0.00  0.00    +0.024 A 
ATOM      4  C   UNL     1      -2.502  -0.385   0.012  0.00  0.00    +0.015 A 
ATOM      5  C   UNL     1      -3.685  -1.091   0.014  0.00  0.00    +0.048 A 
ATOM      6  C   UNL     1      -4.897  -0.417   0.024  0.00  0.00    +0.142 A 
ATOM      7  C   UNL     1      -4.922   0.980   0.031  0.00  0.00    +0.076 A 
ATOM      8  C   UNL     1      -3.740   1.694   0.035  0.00  0.00    +0.038 A 
ATOM      9  N   UNL     1      -6.158   1.643   0.039  0.00  0.00    -0.280 N 
ATOM     10  C   UNL     1      -7.271   0.948   0.357  0.00  0.00    +0.255 C 
ATOM     11  O   UNL     1      -8.355   1.494   0.343  0.00  0.00    -0.272 OA
ATOM     12  C   UNL     1      -7.162  -0.508   0.732  0.00  0.00    +0.325 C 
ATOM     13  O   UNL     1      -6.069  -1.104   0.028  0.00  0.00    -0.481 OA
ATOM     14  H   UNL     1      -6.212   2.587  -0.181  0.00  0.00    +0.155 HD
ENDBRANCH   1   3
BRANCH   1  16
ATOM     15  C   UNL     1       1.149   1.768   0.001  0.00  0.00    +0.012 C 
ATOM     16  C   UNL     1      -0.013   1.076   0.008  0.00  0.00    +0.052 C 
BRANCH  15  20
ATOM     17  C   UNL     1       6.131   1.855  -0.046  0.00  0.00    +0.047 C 
ATOM     18  C   UNL     1       4.834   1.088  -0.038  0.00  0.00    -0.008 A 
ATOM     19  C   UNL     1       3.636   1.765  -0.023  0.00  0.00    +0.015 A 
ATOM     20  C   UNL     1       2.431   1.051  -0.015  0.00  0.00    -0.024 A 
ATOM     21  C   UNL     1       2.453  -0.350  -0.018  0.00  0.00    +0.015 A 
ATOM     22  C   UNL     1       3.657  -1.016  -0.038  0.00  0.00    -0.008 A 
ATOM     23  C   UNL     1       4.850  -0.302  -0.046  0.00  0.00    +0.123 A 
ATOM     24  C   UNL     1       3.682  -2.523  -0.047  0.00  0.00    +0.047 C 
BRANCH  23  25
ATOM     25  O   UNL     1       6.034  -0.965  -0.060  0.00  0.00    -0.506 OA
ATOM     26  H   UNL     1       6.386  -1.162   0.819  0.00  0.00    +0.292 HD
ENDBRANCH  23  25
ENDBRANCH  15  20
ENDBRANCH   1  16
TORSDOF 4
