REMARK  Name = ZINC08660394
REMARK  17 active torsions:
REMARK  status: ('A' for Active; 'I' for Inactive)
REMARK    1  A    between atoms: C_4  and  C_34
REMARK    2  A    between atoms: C_6  and  C_9
REMARK    3  A    between atoms: N_11  and  C_12
REMARK    4  A    between atoms: C_12  and  C_13
REMARK    5  A    between atoms: C_13  and  C_14
REMARK    6  A    between atoms: C_14  and  C_15
REMARK    7  A    between atoms: C_15  and  C_16
REMARK    8  A    between atoms: C_16  and  C_17
REMARK    9  A    between atoms: C_17  and  C_18
REMARK   10  A    between atoms: C_18  and  C_19
REMARK   11  A    between atoms: C_19  and  C_20
REMARK   12  A    between atoms: C_20  and  C_21
REMARK   13  A    between atoms: C_21  and  C_22
REMARK   14  A    between atoms: C_22  and  C_23
REMARK   15  A    between atoms: C_23  and  N_77
REMARK   16  A    between atoms: C_24  and  N_77
REMARK   17  A    between atoms: C_30  and  C_32
REMARK                            x       y       z     vdW  Elec       q    Type
REMARK                         _______ _______ _______ _____ _____    ______ ____
ROOT
ATOM      1  C   UNL     1      -0.084   1.126  -7.487  0.00  0.00    +0.000 C 
ENDROOT
BRANCH   1   2
ATOM      2  C   UNL     1      -0.824   1.633  -8.726  0.00  0.00    +0.000 C 
BRANCH   2   3
ATOM      3  C   UNL     1      -0.108   1.139  -9.985  0.00  0.00    +0.000 C 
BRANCH   3   4
ATOM      4  C   UNL     1      -0.848   1.646 -11.225  0.00  0.00    +0.002 C 
BRANCH   4   5
ATOM      5  C   UNL     1      -0.132   1.153 -12.484  0.00  0.00    +0.019 C 
BRANCH   5   6
ATOM      6  C   UNL     1      -0.872   1.660 -13.723  0.00  0.00    +0.104 C 
BRANCH   6   9
ATOM      7  C   UNL     1      -0.663   1.513 -16.146  0.00  0.00    +0.217 C 
ATOM      8  O   UNL     1      -1.659   2.197 -16.244  0.00  0.00    -0.275 OA
ATOM      9  N   UNL     1      -0.186   1.187 -14.928  0.00  0.00    -0.315 N 
ATOM     10  H   UNL     1       0.611   0.640 -14.850  0.00  0.00    +0.149 HD
BRANCH   7  15
ATOM     11  C   UNL     1       2.194   1.063 -18.656  0.00  0.00    +0.001 C 
ATOM     12  C   UNL     1       1.454   1.570 -19.895  0.00  0.00    +0.001 C 
ATOM     13  C   UNL     1       0.019   1.041 -19.885  0.00  0.00    +0.015 C 
ATOM     14  C   UNL     1      -0.697   1.534 -18.626  0.00  0.00    +0.114 C 
ATOM     15  C   UNL     1       0.043   1.027 -17.386  0.00  0.00    +0.089 C 
ATOM     16  C   UNL     1       1.478   1.557 -17.397  0.00  0.00    +0.013 C 
BRANCH  14  17
ATOM     17  C   UNL     1      -2.111   1.012 -18.615  0.00  0.00    +0.360 C 
ATOM     18  O   UNL     1      -2.488   0.307 -17.709  0.00  0.00    -0.246 OA
ATOM     19  O   UNL     1      -2.952   1.331 -19.612  0.00  0.00    -0.246 OA
ENDBRANCH  14  17
ENDBRANCH   7  15
ENDBRANCH   6   9
ENDBRANCH   5   6
ENDBRANCH   4   5
ENDBRANCH   3   4
ENDBRANCH   2   3
ENDBRANCH   1   2
BRANCH   1  20
ATOM     20  C   UNL     1      -0.800   1.619  -6.228  0.00  0.00    -0.000 C 
BRANCH  20  21
ATOM     21  C   UNL     1      -0.060   1.113  -4.989  0.00  0.00    -0.000 C 
BRANCH  21  22
ATOM     22  C   UNL     1      -0.777   1.606  -3.730  0.00  0.00    -0.000 C 
BRANCH  22  23
ATOM     23  C   UNL     1      -0.037   1.099  -2.490  0.00  0.00    -0.002 C 
BRANCH  23  24
ATOM     24  C   UNL     1      -0.753   1.593  -1.232  0.00  0.00    -0.019 C 
BRANCH  24  25
ATOM     25  C   UNL     1      -0.013   1.086   0.008  0.00  0.00    -0.082 C 
BRANCH  25  26
ATOM     26  N   UNL     1      -0.709   1.566   1.217  0.00  0.00    +0.381 N 
ATOM     27  H   UNL     1      -1.672   1.210   1.216  0.00  0.00    -0.086 HD
ATOM     28  H   UNL     1      -0.723   2.592   1.214  0.00  0.00    -0.086 HD
BRANCH  26  29
ATOM     29  C   UNL     1      -0.016   1.091   2.429  0.00  0.00    -0.058 C 
ATOM     30  C   UNL     1      -0.507  -0.315   2.781  0.00  0.00    -0.015 C 
ATOM     31  C   UNL     1      -2.017  -0.281   3.027  0.00  0.00    -0.002 C 
ATOM     32  C   UNL     1      -2.323   0.670   4.186  0.00  0.00    +0.001 C 
ATOM     33  C   UNL     1      -1.832   2.076   3.834  0.00  0.00    +0.013 C 
ATOM     34  C   UNL     1      -0.323   2.043   3.588  0.00  0.00    +0.088 C 
BRANCH  34  35
ATOM     35  C   UNL     1       0.161   3.427   3.241  0.00  0.00    +0.357 C 
ATOM     36  O   UNL     1       0.695   3.632   2.177  0.00  0.00    -0.246 OA
ATOM     37  O   UNL     1      -0.003   4.433   4.115  0.00  0.00    -0.246 OA
ENDBRANCH  34  35
ENDBRANCH  26  29
ENDBRANCH  25  26
ENDBRANCH  24  25
ENDBRANCH  23  24
ENDBRANCH  22  23
ENDBRANCH  21  22
ENDBRANCH  20  21
ENDBRANCH   1  20
TORSDOF 17
