REMARK  Name = ZINC20740091
REMARK  6 active torsions:
REMARK  status: ('A' for Active; 'I' for Inactive)
REMARK    1  A    between atoms: C_1  and  C_2
REMARK    2  A    between atoms: N_13  and  C_16
REMARK    3  A    between atoms: C_19  and  N_25
REMARK    4  A    between atoms: C_20  and  N_22
REMARK    5  A    between atoms: N_28  and  C_31
REMARK    6  A    between atoms: C_31  and  C_32
REMARK                            x       y       z     vdW  Elec       q    Type
REMARK                         _______ _______ _______ _____ _____    ______ ____
ROOT
ATOM      1  C   UNL     1      -0.618  -3.073   4.572  0.00  0.00    +0.046 A 
ATOM      2  C   UNL     1       0.366  -3.018   5.550  0.00  0.00    +0.026 A 
ATOM      3  C   UNL     1       0.045  -3.280   6.866  0.00  0.00    +0.027 A 
ATOM      4  C   UNL     1      -1.262  -3.597   7.213  0.00  0.00    +0.060 A 
ATOM      5  C   UNL     1      -2.246  -3.651   6.235  0.00  0.00    +0.149 A 
ATOM      6  C   UNL     1      -1.926  -3.384   4.918  0.00  0.00    +0.058 A 
ENDROOT
BRANCH   1  16
ATOM      7  C   UNL     1       1.311  -5.593  -1.101  0.00  0.00    +0.007 C 
ATOM      8  C   UNL     1       1.090  -4.173  -0.577  0.00  0.00    -0.013 C 
ATOM      9  C   UNL     1       2.303  -3.734   0.251  0.00  0.00    +0.004 C 
ATOM     10  C   UNL     1       2.112  -2.272   0.635  0.00  0.00    +0.014 C 
ATOM     11  C   UNL     1       0.832  -2.024   1.377  0.00  0.00    +0.088 C 
ATOM     12  C   UNL     1      -0.401  -2.784   0.912  0.00  0.00    +0.088 C 
ATOM     13  C   UNL     1      -0.144  -4.142   0.314  0.00  0.00    +0.016 C 
ATOM     14  C   UNL     1      -1.168  -2.951   2.223  0.00  0.00    +0.230 C 
ATOM     15  O   UNL     1      -2.354  -3.175   2.333  0.00  0.00    -0.275 OA
ATOM     16  N   UNL     1      -0.292  -2.807   3.232  0.00  0.00    -0.210 N 
ATOM     17  C   UNL     1       0.918  -2.407   2.838  0.00  0.00    +0.230 C 
ATOM     18  O   UNL     1       1.907  -2.349   3.539  0.00  0.00    -0.275 OA
ENDBRANCH   1  16
BRANCH   4  19
ATOM     19  N   UNL     1      -1.587  -3.863   8.547  0.00  0.00    -0.326 N 
ATOM     20  C   UNL     1      -2.082  -2.796   9.430  0.00  0.00    +0.120 C 
ATOM     21  C   UNL     1      -1.246  -2.800  10.714  0.00  0.00    +0.103 C 
ATOM     22  N   UNL     1      -1.259  -4.147  11.300  0.00  0.00    -0.295 NA
ATOM     23  C   UNL     1      -0.631  -5.125  10.401  0.00  0.00    +0.103 C 
ATOM     24  C   UNL     1      -1.448  -5.218   9.103  0.00  0.00    +0.120 C 
BRANCH  22  25
ATOM     25  C   UNL     1      -0.614  -4.154  12.619  0.00  0.00    +0.119 C 
BRANCH  25  26
ATOM     26  C   UNL     1      -0.860  -5.480  13.292  0.00  0.00    -0.033 A 
ATOM     27  C   UNL     1      -1.977  -5.654  14.088  0.00  0.00    +0.006 A 
ATOM     28  C   UNL     1      -2.203  -6.870  14.705  0.00  0.00    +0.020 A 
ATOM     29  C   UNL     1      -1.312  -7.913  14.526  0.00  0.00    +0.041 A 
ATOM     30  C   UNL     1      -0.194  -7.738  13.729  0.00  0.00    +0.020 A 
ATOM     31  C   UNL     1       0.028  -6.523  13.108  0.00  0.00    +0.006 A 
ATOM     32 CL   UNL     1      -1.595  -9.440  15.301  0.00  0.00    -0.084 Cl
ENDBRANCH  25  26
ENDBRANCH  22  25
ENDBRANCH   4  19
BRANCH   5  33
ATOM     33  N   UNL     1      -3.639  -3.990   6.604  0.00  0.00    +0.058 N 
ATOM     34  O   UNL     1      -4.477  -4.122   5.743  0.00  0.00    -0.126 OA
ATOM     35  O   UNL     1      -3.938  -4.136   7.766  0.00  0.00    -0.126 OA
ENDBRANCH   5  33
TORSDOF 5
