REMARK  Name = ZINC23454623
REMARK  11 active torsions:
REMARK  status: ('A' for Active; 'I' for Inactive)
REMARK    1  A    between atoms: C_1  and  O_2
REMARK    2  A    between atoms: O_2  and  C_3
REMARK    3  A    between atoms: C_7  and  C_9
REMARK    4  A    between atoms: C_9  and  C_11
REMARK    5  A    between atoms: C_9  and  O_29
REMARK    6  A    between atoms: C_11  and  N_12
REMARK    7  A    between atoms: N_15  and  S_18
REMARK    8  A    between atoms: S_18  and  C_21
REMARK    9  A    between atoms: C_25  and  C_27
REMARK   10  A    between atoms: O_29  and  C_30
REMARK   11  A    between atoms: C_30  and  C_31
REMARK                            x       y       z     vdW  Elec       q    Type
REMARK                         _______ _______ _______ _____ _____    ______ ____
ROOT
ATOM      1  C   UNL     1      -0.111   5.363  -5.677  0.00  0.00    -0.042 C 
ENDROOT
BRANCH   1   2
ATOM      2  N   UNL     1      -0.017   5.744  -4.261  0.00  0.00    +0.383 N 
ATOM      3  C   UNL     1       0.116   7.200  -4.115  0.00  0.00    -0.061 C 
ATOM      4  C   UNL     1       0.393   7.539  -2.646  0.00  0.00    +0.091 C 
ATOM      5  N   UNL     1      -0.656   6.924  -1.819  0.00  0.00    -0.180 NA
ATOM      6  C   UNL     1      -0.938   5.493  -2.003  0.00  0.00    +0.091 C 
ATOM      7  C   UNL     1      -1.166   5.235  -3.501  0.00  0.00    -0.061 C 
ATOM      8  H   UNL     1       0.890   5.282  -3.845  0.00  0.00    -0.082 HD
BRANCH   5   9
ATOM      9  S   UNL     1      -1.494   7.819  -0.705  0.00  0.00    +0.061 S 
ATOM     10  O   UNL     1      -0.665   8.922  -0.364  0.00  0.00    -0.153 OA
ATOM     11  O   UNL     1      -1.982   6.904   0.267  0.00  0.00    -0.153 OA
BRANCH   9  12
ATOM     12  C   UNL     1      -2.905   8.483  -1.525  0.00  0.00    +0.107 A 
ATOM     13  C   UNL     1      -4.092   7.772  -1.542  0.00  0.00    +0.028 A 
ATOM     14  C   UNL     1      -5.205   8.287  -2.183  0.00  0.00    +0.003 A 
ATOM     15  C   UNL     1      -5.138   9.514  -2.810  0.00  0.00    +0.019 A 
ATOM     16  C   UNL     1      -3.942  10.234  -2.801  0.00  0.00    +0.054 A 
ATOM     17  C   UNL     1      -2.824   9.712  -2.147  0.00  0.00    +0.047 A 
BRANCH  16  18
ATOM     18  C   UNL     1      -3.863  11.506  -3.455  0.00  0.00    +0.099 C 
ATOM     19  N   UNL     1      -3.801  12.515  -3.974  0.00  0.00    -0.191 NA
ENDBRANCH  16  18
ENDBRANCH   9  12
ENDBRANCH   5   9
ENDBRANCH   1   2
BRANCH   1  20
ATOM     20  C   UNL     1       1.210   5.682  -6.380  0.00  0.00    +0.132 C 
BRANCH  20  25
ATOM     21  C   UNL     1       0.769   5.924 -10.125  0.00  0.00    +0.120 A 
ATOM     22  C   UNL     1       0.925   4.599 -10.505  0.00  0.00    +0.045 A 
ATOM     23  C   UNL     1       1.173   3.632  -9.551  0.00  0.00    +0.004 A 
ATOM     24  C   UNL     1       1.269   3.984  -8.217  0.00  0.00    +0.006 A 
ATOM     25  C   UNL     1       1.109   5.303  -7.835  0.00  0.00    -0.017 A 
ATOM     26  C   UNL     1       0.861   6.274  -8.786  0.00  0.00    +0.051 A 
BRANCH  21  28
ATOM     27  C   UNL     1       0.444   6.444 -12.422  0.00  0.00    +0.277 C 
ATOM     28  O   UNL     1       0.526   6.877 -11.062  0.00  0.00    -0.495 OA
ENDBRANCH  21  28
ENDBRANCH  20  25
BRANCH  20  29
ATOM     29  O   UNL     1       2.267   4.942  -5.766  0.00  0.00    -0.369 OA
BRANCH  29  30
ATOM     30  C   UNL     1       3.539   5.590  -5.823  0.00  0.00    +0.195 C 
BRANCH  30  31
ATOM     31  C   UNL     1       4.574   4.725  -5.150  0.00  0.00    -0.021 A 
ATOM     32  C   UNL     1       5.276   3.789  -5.886  0.00  0.00    +0.006 A 
ATOM     33  C   UNL     1       6.226   2.995  -5.270  0.00  0.00    +0.002 A 
ATOM     34  C   UNL     1       6.473   3.138  -3.918  0.00  0.00    +0.020 A 
ATOM     35  C   UNL     1       5.771   4.074  -3.181  0.00  0.00    +0.041 A 
ATOM     36  C   UNL     1       4.824   4.871  -3.799  0.00  0.00    +0.026 A 
ATOM     37 CL   UNL     1       6.081   4.253  -1.482  0.00  0.00    -0.084 Cl
ENDBRANCH  30  31
ENDBRANCH  29  30
ENDBRANCH  20  29
ENDBRANCH   1  20
TORSDOF 10
