REMARK  Name = ZINC36495391
REMARK  11 active torsions:
REMARK  status: ('A' for Active; 'I' for Inactive)
REMARK    1  A    between atoms: C_1  and  C_2
REMARK    2  A    between atoms: C_4  and  C_15
REMARK    3  A    between atoms: C_12  and  C_13
REMARK    4  A    between atoms: C_12  and  C_14
REMARK    5  A    between atoms: N_17  and  C_18
REMARK    6  A    between atoms: N_17  and  C_24
REMARK    7  A    between atoms: C_18  and  C_19
REMARK    8  A    between atoms: C_24  and  C_26
REMARK    9  A    between atoms: C_24  and  C_33
REMARK   10  A    between atoms: C_30  and  O_32
REMARK   11  A    between atoms: N_35  and  C_36
REMARK                            x       y       z     vdW  Elec       q    Type
REMARK                         _______ _______ _______ _____ _____    ______ ____
ROOT
ATOM      1  C   UNL     1      -0.933  -2.336  -1.506  0.00  0.00    +0.220 C 
ATOM      2  O   UNL     1      -2.043  -2.824  -1.525  0.00  0.00    -0.275 OA
ATOM      3  N   UNL     1      -0.269  -2.125  -2.660  0.00  0.00    -0.278 N 
ENDROOT
BRANCH   1   6
ATOM      4  C   UNL     1      -1.389  -0.703   1.704  0.00  0.00    +0.008 C 
ATOM      5  C   UNL     1      -1.312  -2.021   0.941  0.00  0.00    +0.001 C 
ATOM      6  C   UNL     1      -0.294  -1.965  -0.191  0.00  0.00    +0.079 C 
ATOM      7  C   UNL     1       0.939  -2.821   0.071  0.00  0.00    +0.017 C 
ATOM      8  C   UNL     1       0.647  -3.974   1.033  0.00  0.00    -0.004 C 
ATOM      9  C   UNL     1      -0.804  -4.475   0.973  0.00  0.00    +0.008 C 
ATOM     10  C   UNL     1      -1.113  -3.230   1.847  0.00  0.00    -0.001 C 
ATOM     11  C   UNL     1       0.278  -3.454   2.437  0.00  0.00    -0.029 C 
ATOM     12  C   UNL     1       1.060  -2.224   2.886  0.00  0.00    +0.011 C 
ATOM     13  C   UNL     1       0.320  -4.556   3.513  0.00  0.00    +0.011 C 
ENDBRANCH   1   6
BRANCH   3  14
ATOM     14  C   UNL     1       1.125  -1.676  -2.632  0.00  0.00    +0.183 C 
BRANCH  14  15
ATOM     15  C   UNL     1       1.169  -0.188  -2.398  0.00  0.00    +0.122 A 
ATOM     16  C   UNL     1       1.411   0.417  -1.221  0.00  0.00    +0.046 A 
ATOM     17  C   UNL     1       1.358   1.810  -1.457  0.00  0.00    +0.041 A 
ATOM     18  C   UNL     1       1.087   1.973  -2.765  0.00  0.00    +0.195 A 
ATOM     19  O   UNL     1       0.979   0.760  -3.331  0.00  0.00    -0.466 OA
ENDBRANCH  14  15
ENDBRANCH   3  14
BRANCH   3  20
ATOM     20  C   UNL     1      -0.942  -2.345  -3.942  0.00  0.00    +0.193 C 
BRANCH  20  21
ATOM     21  C   UNL     1      -0.932  -1.066  -4.740  0.00  0.00    -0.015 A 
ATOM     22  C   UNL     1       0.255  -0.589  -5.266  0.00  0.00    +0.006 A 
ATOM     23  C   UNL     1       0.267   0.583  -5.998  0.00  0.00    +0.004 A 
ATOM     24  C   UNL     1      -0.906   1.282  -6.207  0.00  0.00    +0.045 A 
ATOM     25  C   UNL     1      -2.098   0.805  -5.680  0.00  0.00    +0.117 A 
ATOM     26  C   UNL     1      -2.109  -0.375  -4.951  0.00  0.00    +0.051 A 
BRANCH  25  27
ATOM     27  O   UNL     1      -3.254   1.490  -5.884  0.00  0.00    -0.507 OA
ATOM     28  H   UNL     1      -3.731   1.228  -6.683  0.00  0.00    +0.292 HD
ENDBRANCH  25  27
ENDBRANCH  20  21
BRANCH  20  29
ATOM     29  C   UNL     1      -0.221  -3.422  -4.710  0.00  0.00    +0.238 C 
ATOM     30  O   UNL     1       0.790  -3.916  -4.258  0.00  0.00    -0.273 OA
ATOM     31  N   UNL     1      -0.699  -3.836  -5.900  0.00  0.00    -0.311 N 
ATOM     32  H   UNL     1      -1.507  -3.441  -6.263  0.00  0.00    +0.149 HD
BRANCH  31  33
ATOM     33  C   UNL     1       0.003  -4.883  -6.647  0.00  0.00    +0.073 C 
ATOM     34  C   UNL     1       1.121  -4.254  -7.481  0.00  0.00    +0.022 C 
ATOM     35  C   UNL     1       1.853  -5.348  -8.260  0.00  0.00    +0.002 C 
ATOM     36  C   UNL     1       0.867  -6.062  -9.186  0.00  0.00    +0.000 C 
ATOM     37  C   UNL     1      -0.251  -6.691  -8.353  0.00  0.00    +0.002 C 
ATOM     38  C   UNL     1      -0.984  -5.598  -7.573  0.00  0.00    +0.022 C 
ENDBRANCH  31  33
ENDBRANCH  20  29
ENDBRANCH   3  20
TORSDOF 8
