REMARK  Name = ZINC49777527
REMARK  4 active torsions:
REMARK  status: ('A' for Active; 'I' for Inactive)
REMARK    1  A    between atoms: C_1  and  O_2
REMARK    2  A    between atoms: O_2  and  C_3
REMARK    3  A    between atoms: N_12  and  C_13
REMARK    4  A    between atoms: C_13  and  C_15
REMARK                            x       y       z     vdW  Elec       q    Type
REMARK                         _______ _______ _______ _____ _____    ______ ____
ROOT
ATOM      1  C   UNL     1       0.606  -0.607  -1.056  0.00  0.00    +0.121 A 
ATOM      2  C   UNL     1       1.177   0.153  -2.069  0.00  0.00    +0.048 A 
ATOM      3  C   UNL     1       1.791  -0.441  -3.145  0.00  0.00    +0.030 A 
ATOM      4  C   UNL     1       1.862  -1.841  -3.255  0.00  0.00    +0.055 A 
ATOM      5  C   UNL     1       1.277  -2.582  -2.218  0.00  0.00    +0.042 A 
ATOM      6  C   UNL     1       0.666  -1.992  -1.137  0.00  0.00    +0.062 A 
ATOM      7  S   UNL     1       1.564  -4.267  -2.704  0.00  0.00    -0.052 S 
ATOM      8  C   UNL     1       2.429  -3.939  -4.231  0.00  0.00    +0.164 A 
ATOM      9  N   UNL     1       2.445  -2.578  -4.273  0.00  0.00    -0.335 N 
ATOM     10  N   UNL     1       2.931  -4.804  -5.105  0.00  0.00    -0.152 NA
ATOM     11  H   UNL     1       2.865  -2.122  -5.019  0.00  0.00    +0.168 HD
ENDROOT
BRANCH   1  13
ATOM     12  C   UNL     1      -0.017   1.425   0.010  0.00  0.00    +0.277 C 
ATOM     13  O   UNL     1       0.002  -0.004   0.002  0.00  0.00    -0.495 OA
ENDBRANCH   1  13
BRANCH  10  14
ATOM     14  C   UNL     1       3.553  -4.361  -6.204  0.00  0.00    +0.272 C 
ATOM     15  O   UNL     1       3.659  -3.162  -6.403  0.00  0.00    -0.268 OA
BRANCH  14  16
ATOM     16  C   UNL     1       4.111  -5.321  -7.174  0.00  0.00    +0.069 A 
ATOM     17  C   UNL     1       4.765  -4.873  -8.318  0.00  0.00    +0.017 A 
ATOM     18  C   UNL     1       5.280  -5.812  -9.214  0.00  0.00    +0.018 A 
ATOM     19  C   UNL     1       5.140  -7.138  -8.966  0.00  0.00    +0.083 A 
ATOM     20  N   UNL     1       4.503  -7.580  -7.854  0.00  0.00    -0.355 N 
ATOM     21  H   UNL     1       4.418  -8.534  -7.700  0.00  0.00    +0.166 HD
ATOM     22  C   UNL     1       3.994  -6.717  -6.955  0.00  0.00    +0.097 A 
ATOM     23  S   UNL     1       3.202  -7.302  -5.555  0.00  0.00    -0.032 S 
ENDBRANCH  14  16
ENDBRANCH  10  14
TORSDOF 3
