REMARK  Name = ZINC59850699
REMARK  5 active torsions:
REMARK  status: ('A' for Active; 'I' for Inactive)
REMARK    1  A    between atoms: C_6  and  C_7
REMARK    2  A    between atoms: C_9  and  C_13
REMARK    3  A    between atoms: N_15  and  C_16
REMARK    4  A    between atoms: C_16  and  C_17
REMARK    5  A    between atoms: C_17  and  C_18
REMARK                            x       y       z     vdW  Elec       q    Type
REMARK                         _______ _______ _______ _____ _____    ______ ____
ROOT
ATOM      1  C   UNL     1      -3.427  -3.720   0.023  0.00  0.00    +0.262 C 
ATOM      2  O   UNL     1      -2.761  -4.738   0.016  0.00  0.00    -0.269 OA
ATOM      3  N   UNL     1      -4.773  -3.795   0.033  0.00  0.00    -0.310 N 
ATOM      4  H   UNL     1      -5.304  -2.983   0.038  0.00  0.00    +0.149 HD
ENDROOT
BRANCH   1   7
ATOM      5  C   UNL     1      -1.272  -0.766   0.011  0.00  0.00    +0.093 A 
ATOM      6  C   UNL     1      -1.403  -2.167   0.010  0.00  0.00    +0.062 A 
ATOM      7  C   UNL     1      -2.763  -2.406   0.020  0.00  0.00    +0.121 A 
ATOM      8  N   UNL     1      -3.372  -1.182   0.026  0.00  0.00    -0.272 N 
ATOM      9  H   UNL     1      -4.331  -1.037   0.033  0.00  0.00    +0.189 HD
ATOM     10  N   UNL     1      -2.484  -0.254   0.026  0.00  0.00    -0.173 NA
BRANCH   5  16
ATOM     11  C   UNL     1      -0.017   1.389   0.010  0.00  0.00    +0.011 A 
ATOM     12  C   UNL     1       1.170   2.093   0.002  0.00  0.00    +0.020 A 
ATOM     13  C   UNL     1       2.378   1.417  -0.013  0.00  0.00    +0.041 A 
ATOM     14  C   UNL     1       2.402   0.033  -0.022  0.00  0.00    +0.020 A 
ATOM     15  C   UNL     1       1.220  -0.680  -0.014  0.00  0.00    +0.011 A 
ATOM     16  C   UNL     1       0.002  -0.004   0.002  0.00  0.00    +0.002 A 
ATOM     17 CL   UNL     1       3.868   2.308  -0.024  0.00  0.00    -0.084 Cl
ENDBRANCH   5  16
ENDBRANCH   1   7
BRANCH   3  18
ATOM     18  C   UNL     1      -5.433  -5.103   0.036  0.00  0.00    +0.109 C 
BRANCH  18  19
ATOM     19  C   UNL     1      -6.951  -4.908   0.047  0.00  0.00    +0.057 C 
BRANCH  19  20
ATOM     20  C   UNL     1      -7.630  -6.253   0.050  0.00  0.00    -0.001 A 
ATOM     21  C   UNL     1      -8.038  -6.823  -1.140  0.00  0.00    +0.045 A 
ATOM     22  C   UNL     1      -8.663  -8.058  -1.137  0.00  0.00    +0.124 A 
ATOM     23  C   UNL     1      -8.880  -8.722   0.058  0.00  0.00    +0.047 A 
ATOM     24  C   UNL     1      -8.474  -8.154   1.250  0.00  0.00    +0.023 A 
ATOM     25  C   UNL     1      -7.841  -6.921   1.248  0.00  0.00    +0.132 A 
ATOM     26  O   UNL     1      -7.423  -6.357   2.414  0.00  0.00    -0.466 OA
ATOM     27  C   UNL     1      -7.970  -6.891   3.623  0.00  0.00    +0.394 C 
ATOM     28  O   UNL     1      -7.888  -8.320   3.570  0.00  0.00    -0.339 OA
ATOM     29  C   UNL     1      -8.719  -8.885   2.546  0.00  0.00    +0.202 C 
ATOM     30  F   UNL     1      -9.062  -8.616  -2.302  0.00  0.00    -0.205 F 
ENDBRANCH  19  20
ENDBRANCH  18  19
ENDBRANCH   3  18
TORSDOF 5
