REMARK  Name = ZINC63853781
REMARK  6 active torsions:
REMARK  status: ('A' for Active; 'I' for Inactive)
REMARK    1  A    between atoms: C_7  and  C_10
REMARK    2  A    between atoms: C_10  and  C_11
REMARK    3  A    between atoms: C_11  and  C_13
REMARK    4  A    between atoms: C_11  and  N_25
REMARK    5  A    between atoms: N_15  and  C_16
REMARK    6  A    between atoms: C_26  and  C_28
REMARK                            x       y       z     vdW  Elec       q    Type
REMARK                         _______ _______ _______ _____ _____    ______ ____
ROOT
ATOM      1  C   UNL     1       0.460  -3.655  -1.467  0.00  0.00    +0.163 C 
ENDROOT
BRANCH   1   2
ATOM      2  C   UNL     1      -0.385  -4.903  -1.451  0.00  0.00    +0.238 C 
ATOM      3  O   UNL     1      -1.463  -4.913  -2.007  0.00  0.00    -0.273 OA
ATOM      4  N   UNL     1       0.057  -6.008  -0.819  0.00  0.00    -0.284 N 
ATOM      5  H   UNL     1       0.946  -6.023  -0.432  0.00  0.00    +0.155 HD
BRANCH   4   6
ATOM      6  C   UNL     1      -0.769  -7.136  -0.720  0.00  0.00    +0.037 A 
ATOM      7  C   UNL     1      -0.730  -7.927   0.421  0.00  0.00    +0.027 A 
ATOM      8  C   UNL     1      -1.544  -9.039   0.520  0.00  0.00    +0.051 A 
ATOM      9  C   UNL     1      -2.400  -9.369  -0.518  0.00  0.00    +0.166 A 
ATOM     10  C   UNL     1      -2.441  -8.578  -1.664  0.00  0.00    +0.168 A 
ATOM     11  C   UNL     1      -1.629  -7.460  -1.760  0.00  0.00    +0.072 A 
ATOM     12  O   UNL     1      -3.354  -9.109  -2.529  0.00  0.00    -0.453 OA
ATOM     13  C   UNL     1      -3.573 -10.458  -2.076  0.00  0.00    +0.466 C 
ATOM     14  O   UNL     1      -3.288 -10.396  -0.666  0.00  0.00    -0.453 OA
ENDBRANCH   4   6
ENDBRANCH   1   2
BRANCH   1  15
ATOM     15  N   UNL     1      -0.237  -2.604  -2.212  0.00  0.00    -0.300 N 
ATOM     16  C   UNL     1       0.466  -1.611  -2.793  0.00  0.00    +0.246 C 
ATOM     17  O   UNL     1       1.678  -1.589  -2.699  0.00  0.00    -0.270 OA
ATOM     18  H   UNL     1      -1.204  -2.621  -2.287  0.00  0.00    +0.150 HD
BRANCH  16  19
ATOM     19  C   UNL     1      -0.236  -0.550  -3.545  0.00  0.00    +0.055 A 
ATOM     20  C   UNL     1      -1.628  -0.570  -3.650  0.00  0.00    +0.014 A 
ATOM     21  C   UNL     1      -2.277   0.424  -4.352  0.00  0.00    +0.001 A 
ATOM     22  C   UNL     1      -1.553   1.439  -4.953  0.00  0.00    +0.001 A 
ATOM     23  C   UNL     1      -0.174   1.465  -4.854  0.00  0.00    +0.021 A 
ATOM     24  C   UNL     1       0.489   0.480  -4.148  0.00  0.00    +0.053 A 
ATOM     25 CL   UNL     1       2.220   0.518  -4.018  0.00  0.00    -0.083 Cl
ENDBRANCH  16  19
ENDBRANCH   1  15
BRANCH   1  26
ATOM     26  C   UNL     1       0.705  -3.187  -0.032  0.00  0.00    +0.065 C 
BRANCH  26  33
ATOM     27  C   UNL     1       0.012   1.349   0.001  0.00  0.00    +0.001 A 
ATOM     28  C   UNL     1       1.197   2.099  -0.015  0.00  0.00    +0.002 A 
ATOM     29  C   UNL     1       2.420   1.529  -0.037  0.00  0.00    +0.026 A 
ATOM     30  C   UNL     1       2.553   0.113  -0.045  0.00  0.00    +0.043 A 
ATOM     31  N   UNL     1       3.609  -0.665  -0.067  0.00  0.00    -0.380 N 
ATOM     32  C   UNL     1       3.161  -2.062  -0.066  0.00  0.00    +0.144 C 
ATOM     33  C   UNL     1       1.649  -2.013  -0.041  0.00  0.00    -0.039 C 
ATOM     34  C   UNL     1       1.317  -0.701  -0.029  0.00  0.00    -0.001 A 
ATOM     35  C   UNL     1       0.026  -0.003  -0.005  0.00  0.00    +0.010 A 
ATOM     36  H   UNL     1       4.532  -0.366  -0.081  0.00  0.00    +0.160 HD
ENDBRANCH  26  33
ENDBRANCH   1  26
TORSDOF 6
