REMARK  Name = ZINC67344866
REMARK  7 active torsions:
REMARK  status: ('A' for Active; 'I' for Inactive)
REMARK    1  A    between atoms: C_1  and  N_2
REMARK    2  A    between atoms: N_2  and  C_3
REMARK    3  A    between atoms: C_5  and  C_10
REMARK    4  A    between atoms: C_10  and  N_11
REMARK    5  A    between atoms: C_12  and  C_14
REMARK    6  A    between atoms: N_16  and  C_17
REMARK    7  A    between atoms: N_16  and  C_18
REMARK                            x       y       z     vdW  Elec       q    Type
REMARK                         _______ _______ _______ _____ _____    ______ ____
ROOT
ATOM      1  N   UNL     1      -1.582  -2.888   0.528  0.00  0.00    -0.303 N 
ATOM      2  C   UNL     1      -1.917  -3.546   1.655  0.00  0.00    +0.300 C 
ATOM      3  O   UNL     1      -1.059  -4.094   2.315  0.00  0.00    -0.265 OA
ATOM      4  H   UNL     1      -2.268  -2.450   0.000  0.00  0.00    +0.149 HD
ENDROOT
BRANCH   2   5
ATOM      5  C   UNL     1      -3.344  -3.600   2.093  0.00  0.00    +0.305 C 
ATOM      6  O   UNL     1      -4.196  -3.014   1.458  0.00  0.00    -0.265 OA
ATOM      7  N   UNL     1      -3.685  -4.300   3.193  0.00  0.00    -0.266 N 
ATOM      8  C   UNL     1      -5.096  -4.442   3.562  0.00  0.00    +0.139 C 
BRANCH   7   9
ATOM      9  C   UNL     1      -2.696  -4.889   3.979  0.00  0.00    +0.044 A 
ATOM     10  C   UNL     1      -2.135  -4.193   5.028  0.00  0.00    +0.024 A 
ATOM     11  C   UNL     1      -1.147  -4.771   5.819  0.00  0.00    +0.002 A 
ATOM     12  C   UNL     1      -0.707  -6.038   5.579  0.00  0.00    +0.008 A 
ATOM     13  C   UNL     1      -1.253  -6.782   4.519  0.00  0.00    -0.016 A 
ATOM     14  C   UNL     1      -2.264  -6.206   3.711  0.00  0.00    +0.004 A 
ATOM     15  C   UNL     1      -2.812  -6.952   2.656  0.00  0.00    +0.010 A 
ATOM     16  C   UNL     1      -2.370  -8.220   2.427  0.00  0.00    +0.001 A 
ATOM     17  C   UNL     1      -1.380  -8.790   3.225  0.00  0.00    +0.001 A 
ATOM     18  C   UNL     1      -0.818  -8.091   4.249  0.00  0.00    +0.008 A 
ENDBRANCH   7   9
ENDBRANCH   2   5
BRANCH   1  19
ATOM     19  C   UNL     1      -0.183  -2.834   0.099  0.00  0.00    +0.143 C 
BRANCH  19  24
ATOM     20  C   UNL     1      -1.557   0.377   0.562  0.00  0.00    +0.130 C 
ATOM     21  N   UNL     1      -0.230   0.011   0.059  0.00  0.00    -0.323 N 
ATOM     22  C   UNL     1       0.966   0.345   0.837  0.00  0.00    +0.130 C 
ATOM     23  C   UNL     1      -0.106  -0.654  -1.155  0.00  0.00    +0.103 A 
ATOM     24  C   UNL     1      -0.079  -2.045  -1.181  0.00  0.00    +0.008 A 
ATOM     25  C   UNL     1       0.044  -2.693  -2.396  0.00  0.00    +0.010 A 
ATOM     26  C   UNL     1       0.137  -1.926  -3.550  0.00  0.00    +0.018 A 
ATOM     27  C   UNL     1       0.103  -0.549  -3.452  0.00  0.00    +0.084 A 
ATOM     28  N   UNL     1      -0.021   0.042  -2.278  0.00  0.00    -0.349 N 
ATOM     29  H   UNL     1      -0.046   1.011  -2.237  0.00  0.00    +0.167 HD
ENDBRANCH  19  24
ENDBRANCH   1  19
TORSDOF 4
