REMARK  Name = ZINC08439715
REMARK  12 active torsions:
REMARK  status: ('A' for Active; 'I' for Inactive)
REMARK    1  A    between atoms: C_1  and  C_2
REMARK    2  A    between atoms: C_2  and  C_3
REMARK    3  A    between atoms: C_3  and  C_4
REMARK    4  A    between atoms: C_4  and  O_5
REMARK    5  A    between atoms: O_5  and  C_6
REMARK    6  A    between atoms: C_9  and  C_12
REMARK    7  A    between atoms: C_19  and  N_38
REMARK    8  A    between atoms: C_20  and  C_36
REMARK    9  A    between atoms: N_28  and  C_31
REMARK   10  A    between atoms: C_31  and  C_32
REMARK   11  A    between atoms: C_32  and  O_34
REMARK   12  A    between atoms: O_34  and  C_35
REMARK                            x       y       z     vdW  Elec       q    Type
REMARK                         _______ _______ _______ _____ _____    ______ ____
ROOT
ATOM      1  C   UNL     1      -3.395  -7.711   0.683  0.00  0.00    +0.101 A 
ATOM      2  C   UNL     1      -4.546  -8.449   0.396  0.00  0.00    +0.066 A 
ATOM      3  C   UNL     1      -4.158  -9.686  -0.038  0.00  0.00    +0.224 A 
ATOM      4  N   UNL     1      -2.809  -9.720  -0.022  0.00  0.00    -0.246 N 
ATOM      5  H   UNL     1      -2.256 -10.474  -0.280  0.00  0.00    +0.192 HD
ATOM      6  N   UNL     1      -2.348  -8.473   0.427  0.00  0.00    -0.171 NA
ATOM      7  O   UNL     1      -5.046 -10.645  -0.399  0.00  0.00    -0.423 OA
ATOM      8  C   UNL     1      -6.331 -10.280  -0.581  0.00  0.00    +0.201 C 
ATOM      9  C   UNL     1      -6.837  -9.089  -0.183  0.00  0.00    +0.110 C 
ATOM     10  C   UNL     1      -5.992  -8.055   0.508  0.00  0.00    +0.145 C 
ATOM     11  C   UNL     1      -6.400  -7.885   1.936  0.00  0.00    -0.001 A 
ATOM     12  C   UNL     1      -6.423  -8.770   2.992  0.00  0.00    +0.007 A 
ATOM     13  C   UNL     1      -6.867  -8.281   4.216  0.00  0.00    +0.000 A 
ATOM     14  C   UNL     1      -7.266  -6.968   4.363  0.00  0.00    +0.002 A 
ATOM     15  C   UNL     1      -7.246  -6.072   3.305  0.00  0.00    +0.024 A 
ATOM     16  C   UNL     1      -6.803  -6.551   2.072  0.00  0.00    +0.042 A 
ATOM     17  N   UNL     1      -6.683  -5.887   0.863  0.00  0.00    -0.259 N 
ATOM     18  C   UNL     1      -6.215  -6.693  -0.113  0.00  0.00    +0.241 C 
ATOM     19  O   UNL     1      -6.011  -6.385  -1.268  0.00  0.00    -0.274 OA
ENDROOT
BRANCH   1  23
ATOM     20  C   UNL     1      -3.283  -3.705   2.111  0.00  0.00    +0.121 A 
ATOM     21  C   UNL     1      -2.461  -4.089   1.061  0.00  0.00    +0.046 A 
ATOM     22  C   UNL     1      -2.495  -5.387   0.596  0.00  0.00    +0.013 A 
ATOM     23  C   UNL     1      -3.356  -6.314   1.181  0.00  0.00    +0.003 A 
ATOM     24  C   UNL     1      -4.179  -5.925   2.236  0.00  0.00    +0.013 A 
ATOM     25  C   UNL     1      -4.138  -4.627   2.700  0.00  0.00    +0.046 A 
BRANCH  20  26
ATOM     26  O   UNL     1      -3.248  -2.425   2.567  0.00  0.00    -0.492 OA
BRANCH  26  27
ATOM     27  C   UNL     1      -2.266  -1.560   1.994  0.00  0.00    +0.229 C 
BRANCH  27  28
ATOM     28  C   UNL     1      -2.462  -0.140   2.531  0.00  0.00    +0.041 C 
BRANCH  28  30
ATOM     29  C   UNL     1      -1.608   2.206   2.454  0.00  0.00    +0.004 C 
ATOM     30  C   UNL     1      -1.411   0.787   1.917  0.00  0.00    -0.000 C 
ENDBRANCH  28  30
ENDBRANCH  27  28
ENDBRANCH  26  27
ENDBRANCH  20  26
ENDBRANCH   1  23
BRANCH   8  31
ATOM     31  N   UNL     1      -7.175 -11.166  -1.203  0.00  0.00    -0.328 N 
ATOM     32  H   UNL     1      -6.840 -12.027  -1.500  0.00  0.00    +0.145 HD
ATOM     33  H   UNL     1      -8.105 -10.932  -1.347  0.00  0.00    +0.145 HD
ENDBRANCH   8  31
BRANCH   9  34
ATOM     34  C   UNL     1      -8.219  -8.805  -0.428  0.00  0.00    +0.102 C 
ATOM     35  N   UNL     1      -9.315  -8.579  -0.623  0.00  0.00    -0.191 NA
ENDBRANCH   9  34
BRANCH  17  36
ATOM     36  C   UNL     1      -7.024  -4.476   0.667  0.00  0.00    +0.234 C 
BRANCH  36  37
ATOM     37  C   UNL     1      -5.812  -3.731   0.169  0.00  0.00    +0.325 C 
ATOM     38  O   UNL     1      -4.792  -4.331  -0.075  0.00  0.00    -0.249 OA
BRANCH  37  39
ATOM     39  O   UNL     1      -5.866  -2.401  -0.003  0.00  0.00    -0.467 OA
ATOM     40  C   UNL     1      -4.702  -1.768  -0.539  0.00  0.00    +0.280 C 
ENDBRANCH  37  39
ENDBRANCH  36  37
ENDBRANCH  17  36
TORSDOF 10
