REMARK  Name = ZINC08569262
REMARK  14 active torsions:
REMARK  status: ('A' for Active; 'I' for Inactive)
REMARK    1  A    between atoms: C_1  and  C_2
REMARK    2  A    between atoms: C_2  and  O_3
REMARK    3  A    between atoms: O_3  and  C_4
REMARK    4  A    between atoms: C_6  and  C_18
REMARK    5  A    between atoms: C_9  and  O_10
REMARK    6  A    between atoms: O_10  and  C_11
REMARK    7  A    between atoms: C_11  and  C_12
REMARK    8  A    between atoms: C_21  and  C_32
REMARK    9  A    between atoms: N_28  and  C_29
REMARK   10  A    between atoms: C_29  and  C_30
REMARK   11  A    between atoms: C_30  and  O_31
REMARK   12  A    between atoms: C_34  and  C_40
REMARK   13  A    between atoms: C_36  and  C_39
REMARK   14  A    between atoms: C_37  and  O_38
REMARK                            x       y       z     vdW  Elec       q    Type
REMARK                         _______ _______ _______ _____ _____    ______ ____
ROOT
ATOM      1  C   UNL     1       0.654  -4.954  -0.018  0.00  0.00    +0.141 C 
ATOM      2  C   UNL     1       0.916  -5.482   1.366  0.00  0.00    +0.035 A 
ATOM      3  C   UNL     1       1.210  -5.205   2.663  0.00  0.00    +0.075 A 
ATOM      4  N   UNL     1       1.274  -6.404   3.314  0.00  0.00    -0.276 N 
ATOM      5  H   UNL     1       1.469  -6.516   4.258  0.00  0.00    +0.189 HD
ATOM      6  N   UNL     1       1.040  -7.363   2.490  0.00  0.00    -0.168 NA
ATOM      7  C   UNL     1       0.811  -6.888   1.282  0.00  0.00    +0.153 A 
ATOM      8  C   UNL     1       0.492  -7.236  -0.114  0.00  0.00    +0.268 C 
ATOM      9  O   UNL     1       0.333  -8.368  -0.528  0.00  0.00    -0.268 OA
ATOM     10  N   UNL     1       0.402  -6.124  -0.867  0.00  0.00    -0.283 N 
ENDROOT
BRANCH   3  11
ATOM     11  C   UNL     1       1.419  -3.866   3.256  0.00  0.00    +0.042 A 
ATOM     12  C   UNL     1       2.670  -3.510   3.758  0.00  0.00    +0.017 A 
ATOM     13  C   UNL     1       2.859  -2.259   4.309  0.00  0.00    -0.049 A 
ATOM     14  C   UNL     1       1.812  -1.356   4.366  0.00  0.00    +0.010 A 
ATOM     15  C   UNL     1       0.568  -1.698   3.871  0.00  0.00    -0.008 A 
ATOM     16  C   UNL     1       0.364  -2.948   3.309  0.00  0.00    +0.129 A 
ATOM     17  C   UNL     1      -0.567  -0.709   3.938  0.00  0.00    +0.047 C 
ATOM     18  C   UNL     1       4.212  -1.875   4.852  0.00  0.00    +0.044 C 
BRANCH  16  19
ATOM     19  O   UNL     1      -0.857  -3.284   2.817  0.00  0.00    -0.506 OA
ATOM     20  H   UNL     1      -1.444  -3.695   3.467  0.00  0.00    +0.292 HD
ENDBRANCH  16  19
ENDBRANCH   3  11
BRANCH   1  23
ATOM     21  C   UNL     1      -1.498  -1.849   0.006  0.00  0.00    +0.162 A 
ATOM     22  C   UNL     1      -0.389  -2.680  -0.003  0.00  0.00    +0.055 A 
ATOM     23  C   UNL     1      -0.553  -4.052  -0.008  0.00  0.00    -0.019 A 
ATOM     24  C   UNL     1      -1.823  -4.600  -0.005  0.00  0.00    +0.009 A 
ATOM     25  C   UNL     1      -2.934  -3.777   0.004  0.00  0.00    +0.050 A 
ATOM     26  C   UNL     1      -2.776  -2.400   0.016  0.00  0.00    +0.162 A 
BRANCH  21  27
ATOM     27  O   UNL     1      -1.339  -0.499   0.012  0.00  0.00    -0.489 OA
BRANCH  27  29
ATOM     28  C   UNL     1      -0.019   1.526   0.010  0.00  0.00    +0.048 C 
ATOM     29  C   UNL     1       0.002  -0.004   0.002  0.00  0.00    +0.226 C 
ENDBRANCH  27  29
ENDBRANCH  21  27
BRANCH  26  30
ATOM     30  O   UNL     1      -3.868  -1.589   0.030  0.00  0.00    -0.484 OA
BRANCH  30  31
ATOM     31  C   UNL     1      -5.148  -2.225   0.039  0.00  0.00    +0.264 C 
BRANCH  31  32
ATOM     32  C   UNL     1      -6.229  -1.175   0.055  0.00  0.00    -0.010 A 
ATOM     33  C   UNL     1      -6.710  -0.696   1.259  0.00  0.00    +0.007 A 
ATOM     34  C   UNL     1      -7.702   0.266   1.274  0.00  0.00    +0.000 A 
ATOM     35  C   UNL     1      -8.213   0.750   0.084  0.00  0.00    +0.000 A 
ATOM     36  C   UNL     1      -7.732   0.272  -1.120  0.00  0.00    +0.000 A 
ATOM     37  C   UNL     1      -6.737  -0.688  -1.135  0.00  0.00    +0.007 A 
ENDBRANCH  31  32
ENDBRANCH  30  31
ENDBRANCH  26  30
ENDBRANCH   1  23
BRANCH  10  38
ATOM     38  C   UNL     1       0.099  -6.087  -2.300  0.00  0.00    +0.137 C 
BRANCH  38  39
ATOM     39  C   UNL     1       1.403  -6.161  -3.098  0.00  0.00    +0.175 C 
BRANCH  39  40
ATOM     40  O   UNL     1       2.026  -7.427  -2.876  0.00  0.00    -0.393 OA
ATOM     41  H   UNL     1       2.860  -7.544  -3.352  0.00  0.00    +0.209 HD
ENDBRANCH  39  40
ENDBRANCH  38  39
ENDBRANCH  10  38
TORSDOF 11
