REMARK  Name = ZINC52607211
REMARK  11 active torsions:
REMARK  status: ('A' for Active; 'I' for Inactive)
REMARK    1  A    between atoms: C_1  and  C_2
REMARK    2  A    between atoms: C_2  and  C_3
REMARK    3  A    between atoms: C_7  and  C_36
REMARK    4  A    between atoms: C_9  and  C_35
REMARK    5  A    between atoms: N_12  and  C_13
REMARK    6  A    between atoms: C_13  and  C_14
REMARK    7  A    between atoms: C_17  and  N_20
REMARK    8  A    between atoms: N_20  and  C_21
REMARK    9  A    between atoms: N_20  and  C_22
REMARK   10  A    between atoms: C_22  and  C_24
REMARK   11  A    between atoms: C_22  and  C_30
REMARK                            x       y       z     vdW  Elec       q    Type
REMARK                         _______ _______ _______ _____ _____    ______ ____
ROOT
ATOM      1  C   UNL     1      -0.839  -4.015  -0.099  0.00  0.00    -0.030 A 
ATOM      2  C   UNL     1      -1.798  -3.299  -0.793  0.00  0.00    +0.007 A 
ATOM      3  C   UNL     1      -2.009  -3.546  -2.135  0.00  0.00    +0.023 A 
ATOM      4  C   UNL     1      -1.258  -4.515  -2.788  0.00  0.00    +0.030 A 
ATOM      5  C   UNL     1      -0.296  -5.232  -2.089  0.00  0.00    +0.023 A 
ATOM      6  C   UNL     1      -0.085  -4.976  -0.748  0.00  0.00    +0.007 A 
ENDROOT
BRANCH   4   7
ATOM      7  N   UNL     1      -1.470  -4.768  -4.146  0.00  0.00    -0.319 N 
ATOM      8  C   UNL     1      -2.567  -4.102  -4.852  0.00  0.00    +0.130 C 
BRANCH   7   9
ATOM      9  C   UNL     1      -0.594  -5.698  -4.863  0.00  0.00    +0.173 C 
BRANCH   9  10
ATOM     10  C   UNL     1      -1.091  -5.868  -6.275  0.00  0.00    -0.020 A 
ATOM     11  C   UNL     1      -1.202  -4.768  -7.105  0.00  0.00    +0.006 A 
ATOM     12  C   UNL     1      -1.658  -4.923  -8.401  0.00  0.00    +0.000 A 
ATOM     13  C   UNL     1      -2.001  -6.179  -8.867  0.00  0.00    +0.000 A 
ATOM     14  C   UNL     1      -1.889  -7.279  -8.037  0.00  0.00    +0.000 A 
ATOM     15  C   UNL     1      -1.429  -7.124  -6.743  0.00  0.00    +0.006 A 
ENDBRANCH   9  10
BRANCH   9  16
ATOM     16  C   UNL     1       0.810  -5.150  -4.886  0.00  0.00    +0.174 A 
ATOM     17  N   UNL     1       1.160  -3.891  -4.789  0.00  0.00    -0.111 NA
ATOM     18  N   UNL     1       2.446  -3.830  -4.851  0.00  0.00    -0.023 NA
ATOM     19  N   UNL     1       2.924  -5.017  -4.984  0.00  0.00    -0.047 NA
ATOM     20  N   UNL     1       1.947  -5.860  -5.004  0.00  0.00    -0.241 N 
ATOM     21  H   UNL     1       2.019  -6.823  -5.091  0.00  0.00    +0.192 HD
ENDBRANCH   9  16
ENDBRANCH   7   9
ENDBRANCH   4   7
BRANCH   1  22
ATOM     22  C   UNL     1      -0.611  -3.742   1.365  0.00  0.00    +0.143 C 
BRANCH  22  31
ATOM     23  C   UNL     1       1.781  -2.692   1.495  0.00  0.00    +0.160 C 
ATOM     24  N   UNL     1       2.255  -1.315   1.681  0.00  0.00    -0.323 N 
ATOM     25  C   UNL     1       1.122  -0.502   1.799  0.00  0.00    +0.070 A 
ATOM     26  C   UNL     1       1.003   0.870   1.988  0.00  0.00    -0.025 A 
ATOM     27  C   UNL     1      -0.269   1.420   2.072  0.00  0.00    +0.026 A 
ATOM     28  C   UNL     1      -1.368   0.593   1.966  0.00  0.00    +0.015 A 
ATOM     29  N   UNL     1      -1.227  -0.706   1.787  0.00  0.00    -0.346 N 
ATOM     30  C   UNL     1      -0.032  -1.277   1.701  0.00  0.00    +0.122 A 
ATOM     31  N   UNL     1       0.316  -2.618   1.514  0.00  0.00    -0.292 N 
ATOM     32  C   UNL     1      -2.752   1.183   2.056  0.00  0.00    +0.063 C 
ATOM     33  C   UNL     1       2.228   1.742   2.100  0.00  0.00    +0.046 C 
ATOM     34  H   UNL     1       3.180  -1.024   1.715  0.00  0.00    +0.148 HD
ATOM     35  H   UNL     1      -2.020  -1.261   1.717  0.00  0.00    +0.167 HD
BRANCH  23  37
ATOM     36  C   UNL     1       3.799  -3.732   2.540  0.00  0.00    +0.007 C 
ATOM     37  C   UNL     1       2.279  -3.580   2.637  0.00  0.00    +0.039 C 
ENDBRANCH  23  37
ENDBRANCH  22  31
ENDBRANCH   1  22
TORSDOF 7
