REMARK  Name = ZINC39666109
REMARK  9 active torsions:
REMARK  status: ('A' for Active; 'I' for Inactive)
REMARK    1  A    between atoms: C_1  and  C_2
REMARK    2  A    between atoms: C_5  and  O_8
REMARK    3  A    between atoms: O_8  and  C_9
REMARK    4  A    between atoms: C_9  and  C_11
REMARK    5  A    between atoms: C_9  and  C_12
REMARK    6  A    between atoms: C_12  and  N_13
REMARK    7  A    between atoms: C_14  and  C_16
REMARK    8  A    between atoms: C_27  and  C_29
REMARK    9  A    between atoms: C_33  and  C_35
REMARK                            x       y       z     vdW  Elec       q    Type
REMARK                         _______ _______ _______ _____ _____    ______ ____
ROOT
ATOM      1  C   UNL     1      -3.998  -6.704   0.533  0.00  0.00    +0.100 C 
ATOM      2  C   UNL     1      -4.652  -5.810   1.611  0.00  0.00    +0.121 C 
ATOM      3  N   UNL     1      -6.043  -6.310   1.718  0.00  0.00    -0.296 N 
ATOM      4  C   UNL     1      -5.915  -7.783   1.609  0.00  0.00    +0.115 C 
ATOM      5  C   UNL     1      -4.829  -7.998   0.536  0.00  0.00    -0.004 C 
ATOM      6  C   UNL     1      -3.951  -9.189   0.906  0.00  0.00    -0.010 C 
ATOM      7  C   UNL     1      -4.786 -10.471   0.846  0.00  0.00    -0.082 C 
ATOM      8  N   UNL     1      -5.329 -10.640  -0.508  0.00  0.00    +0.379 N 
ATOM      9  C   UNL     1      -6.246  -9.537  -0.820  0.00  0.00    -0.082 C 
ATOM     10  C   UNL     1      -5.473  -8.216  -0.830  0.00  0.00    -0.010 C 
ATOM     11  C   UNL     1      -7.170  -5.588   1.878  0.00  0.00    +0.247 C 
ATOM     12  O   UNL     1      -7.106  -4.381   2.012  0.00  0.00    -0.270 OA
ATOM     13  H   UNL     1      -4.572 -10.646  -1.174  0.00  0.00    -0.086 HD
ATOM     14  H   UNL     1      -5.828 -11.516  -0.562  0.00  0.00    -0.086 HD
ENDROOT
BRANCH  11  15
ATOM     15  C   UNL     1      -8.484  -6.263   1.891  0.00  0.00    +0.037 A 
ATOM     16  C   UNL     1      -8.609  -7.543   2.438  0.00  0.00    +0.016 A 
ATOM     17  C   UNL     1      -9.837  -8.168   2.447  0.00  0.00    +0.039 A 
ATOM     18  C   UNL     1     -10.947  -7.530   1.915  0.00  0.00    +0.126 A 
ATOM     19  C   UNL     1     -10.829  -6.260   1.371  0.00  0.00    -0.015 A 
ATOM     20  C   UNL     1      -9.606  -5.623   1.362  0.00  0.00    +0.019 A 
ATOM     21  C   UNL     1     -12.039  -5.573   0.794  0.00  0.00    +0.047 C 
ATOM     22  F   UNL     1     -12.149  -8.147   1.927  0.00  0.00    -0.205 F 
ENDBRANCH  11  15
BRANCH   1  24
ATOM     23  N   UNL     1      -1.653  -7.199  -0.076  0.00  0.00    -0.312 N 
ATOM     24  C   UNL     1      -2.566  -6.999   0.895  0.00  0.00    +0.218 C 
ATOM     25  O   UNL     1      -2.235  -7.058   2.061  0.00  0.00    -0.275 OA
ATOM     26  H   UNL     1      -1.918  -7.153  -1.008  0.00  0.00    +0.149 HD
BRANCH  23  27
ATOM     27  C   UNL     1      -0.260  -7.487   0.277  0.00  0.00    +0.148 C 
BRANCH  27  28
ATOM     28  C   UNL     1       0.562  -7.670  -1.001  0.00  0.00    +0.187 C 
ATOM     29  C   UNL     1       2.016  -7.970  -0.633  0.00  0.00    +0.053 C 
BRANCH  28  30
ATOM     30  O   UNL     1       0.028  -8.758  -1.759  0.00  0.00    -0.488 OA
BRANCH  30  35
ATOM     31  C   UNL     1       1.034  -8.751  -7.301  0.00  0.00    +0.044 C 
ATOM     32  C   UNL     1       0.764  -8.753  -5.818  0.00  0.00    -0.050 A 
ATOM     33  C   UNL     1       1.170  -7.683  -5.042  0.00  0.00    +0.007 A 
ATOM     34  C   UNL     1       0.924  -7.682  -3.682  0.00  0.00    +0.046 A 
ATOM     35  C   UNL     1       0.270  -8.756  -3.096  0.00  0.00    +0.121 A 
ATOM     36  C   UNL     1      -0.136  -9.828  -3.877  0.00  0.00    +0.046 A 
ATOM     37  C   UNL     1       0.107  -9.822  -5.237  0.00  0.00    +0.007 A 
ENDBRANCH  30  35
ENDBRANCH  28  30
ENDBRANCH  27  28
ENDBRANCH  23  27
ENDBRANCH   1  24
TORSDOF 6
