REMARK  Name = ZINC03277368
REMARK  9 active torsions:
REMARK  status: ('A' for Active; 'I' for Inactive)
REMARK    1  A    between atoms: C_1  and  C_2
REMARK    2  A    between atoms: C_2  and  N_14
REMARK    3  A    between atoms: C_3  and  C_4
REMARK    4  A    between atoms: C_4  and  C_5
REMARK    5  A    between atoms: N_14  and  N_15
REMARK    6  A    between atoms: C_16  and  C_18
REMARK    7  A    between atoms: C_22  and  S_24
REMARK    8  A    between atoms: S_24  and  N_27
REMARK    9  A    between atoms: N_27  and  C_28
REMARK                            x       y       z     vdW  Elec       q    Type
REMARK                         _______ _______ _______ _____ _____    ______ ____
ROOT
ATOM      1  N   UNL     1       0.092   4.267  -0.287  0.00  0.00    -0.233 N 
ATOM      2  C   UNL     1      -0.021   5.575  -0.595  0.00  0.00    +0.260 C 
ATOM      3  O   UNL     1      -1.116   6.056  -0.807  0.00  0.00    -0.269 OA
ATOM      4  H   UNL     1       0.967   3.883  -0.118  0.00  0.00    +0.173 HD
ENDROOT
BRANCH   2   5
ATOM      5  C   UNL     1       1.188   6.423  -0.673  0.00  0.00    +0.040 A 
ATOM      6  C   UNL     1       2.447   5.874  -0.424  0.00  0.00    +0.013 A 
ATOM      7  C   UNL     1       3.571   6.670  -0.503  0.00  0.00    +0.003 A 
ATOM      8  C   UNL     1       3.451   8.012  -0.819  0.00  0.00    +0.029 A 
ATOM      9  C   UNL     1       2.206   8.563  -1.062  0.00  0.00    +0.109 A 
ATOM     10  C   UNL     1       1.074   7.777  -0.991  0.00  0.00    +0.042 A 
BRANCH   9  11
ATOM     11  S   UNL     1       2.065  10.273  -1.463  0.00  0.00    +0.072 S 
ATOM     12  O   UNL     1       3.319  10.669  -2.001  0.00  0.00    -0.150 OA
ATOM     13  O   UNL     1       0.847  10.423  -2.179  0.00  0.00    -0.150 OA
BRANCH  11  14
ATOM     14  N   UNL     1       1.880  11.096  -0.038  0.00  0.00    -0.215 N 
ATOM     15  H   UNL     1       1.080  11.621   0.119  0.00  0.00    +0.174 HD
BRANCH  14  16
ATOM     16  C   UNL     1       2.877  11.034   0.939  0.00  0.00    +0.066 A 
ATOM     17  C   UNL     1       4.214  10.975   0.567  0.00  0.00    +0.026 A 
ATOM     18  C   UNL     1       5.198  10.920   1.534  0.00  0.00    +0.002 A 
ATOM     19  C   UNL     1       4.853  10.912   2.874  0.00  0.00    +0.002 A 
ATOM     20  C   UNL     1       3.523  10.965   3.249  0.00  0.00    +0.022 A 
ATOM     21  C   UNL     1       2.534  11.026   2.286  0.00  0.00    +0.063 A 
ATOM     22 CL   UNL     1       0.865  11.092   2.758  0.00  0.00    -0.082 Cl
ENDBRANCH  14  16
ENDBRANCH  11  14
ENDBRANCH   9  11
ENDBRANCH   2   5
BRANCH   1  23
ATOM     23  N   UNL     1      -1.053   3.463  -0.213  0.00  0.00    -0.269 N 
ATOM     24  H   UNL     1      -1.927   3.848  -0.383  0.00  0.00    +0.170 HD
BRANCH  23  26
ATOM     25  C   UNL     1      -2.168   1.252   0.183  0.00  0.00    +0.061 C 
ATOM     26  C   UNL     1      -0.936   2.116   0.103  0.00  0.00    +0.015 C 
ATOM     27  C   UNL     1       0.253   1.593   0.335  0.00  0.00    -0.003 C 
BRANCH  27  28
ATOM     28  C   UNL     1       0.370   0.168   0.811  0.00  0.00    +0.064 C 
BRANCH  28  29
ATOM     29  C   UNL     1       1.197   0.126   2.071  0.00  0.00    -0.040 A 
ATOM     30  C   UNL     1       0.583   0.245   3.303  0.00  0.00    +0.008 A 
ATOM     31  C   UNL     1       1.337   0.206   4.461  0.00  0.00    +0.050 A 
ATOM     32  C   UNL     1       2.711   0.049   4.389  0.00  0.00    +0.166 A 
ATOM     33  C   UNL     1       3.330  -0.071   3.147  0.00  0.00    +0.166 A 
ATOM     34  C   UNL     1       2.567  -0.037   1.991  0.00  0.00    +0.053 A 
ATOM     35  O   UNL     1       4.674  -0.215   3.341  0.00  0.00    -0.453 OA
ATOM     36  C   UNL     1       4.824  -0.591   4.722  0.00  0.00    +0.466 C 
ATOM     37  O   UNL     1       3.667  -0.020   5.361  0.00  0.00    -0.453 OA
ENDBRANCH  28  29
ENDBRANCH  27  28
ENDBRANCH  23  26
ENDBRANCH   1  23
TORSDOF 8
