REMARK  Name = ZINC09730371
REMARK  6 active torsions:
REMARK  status: ('A' for Active; 'I' for Inactive)
REMARK    1  A    between atoms: C_1  and  C_2
REMARK    2  A    between atoms: C_3  and  C_34
REMARK    3  A    between atoms: N_20  and  C_21
REMARK    4  A    between atoms: C_21  and  C_22
REMARK    5  A    between atoms: C_22  and  C_24
REMARK    6  A    between atoms: C_22  and  N_59
REMARK                            x       y       z     vdW  Elec       q    Type
REMARK                         _______ _______ _______ _____ _____    ______ ____
ROOT
ATOM      1  C   UNL     1      -0.503  -9.243   1.626  0.00  0.00    +0.045 C 
ATOM      2  C   UNL     1       0.278  -9.331   0.340  0.00  0.00    -0.026 A 
ATOM      3  C   UNL     1       0.773 -10.507  -0.073  0.00  0.00    -0.008 A 
ATOM      4  S   UNL     1       1.594 -10.098  -1.602  0.00  0.00    -0.073 S 
ATOM      5  C   UNL     1       1.249  -8.358  -1.643  0.00  0.00    +0.116 A 
ATOM      6  C   UNL     1       0.503  -8.143  -0.465  0.00  0.00    +0.077 A 
ATOM      7  C   UNL     1       0.080  -6.800  -0.233  0.00  0.00    +0.283 A 
ATOM      8  O   UNL     1      -0.569  -6.526   0.763  0.00  0.00    -0.265 OA
ATOM      9  N   UNL     1       0.402  -5.836  -1.120  0.00  0.00    -0.175 N 
ATOM     10  C   UNL     1       1.130  -6.137  -2.238  0.00  0.00    +0.167 A 
ATOM     11  N   UNL     1       1.535  -7.373  -2.477  0.00  0.00    -0.220 NA
ATOM     12  C   UNL     1       1.464  -5.064  -3.185  0.00  0.00    +0.030 A 
ATOM     13  C   UNL     1       2.203  -5.308  -4.341  0.00  0.00    +0.012 A 
ATOM     14  C   UNL     1       2.489  -4.267  -5.197  0.00  0.00    +0.001 A 
ATOM     15  C   UNL     1       2.049  -2.980  -4.917  0.00  0.00    +0.001 A 
ATOM     16  C   UNL     1       1.318  -2.717  -3.780  0.00  0.00    +0.012 A 
ATOM     17  C   UNL     1       1.012  -3.757  -2.903  0.00  0.00    +0.027 A 
ATOM     18  C   UNL     1       0.241  -3.531  -1.674  0.00  0.00    +0.148 A 
ATOM     19  N   UNL     1      -0.024  -4.525  -0.872  0.00  0.00    -0.146 NA
ATOM     20  N   UNL     1      -0.213  -2.256  -1.367  0.00  0.00    -0.328 N 
ATOM     21  C   UNL     1       0.662 -11.853   0.595  0.00  0.00    +0.052 C 
ATOM     22  H   UNL     1      -0.017  -1.516  -1.962  0.00  0.00    +0.147 HD
ENDROOT
BRANCH  20  23
ATOM     23  C   UNL     1      -0.987  -2.029  -0.144  0.00  0.00    +0.093 C 
BRANCH  23  24
ATOM     24  C   UNL     1      -1.361  -0.549  -0.045  0.00  0.00    -0.013 C 
BRANCH  24  30
ATOM     25  C   UNL     1      -0.453   1.693   0.076  0.00  0.00    -0.049 C 
ATOM     26  C   UNL     1       0.830   2.514  -0.078  0.00  0.00    +0.141 C 
ATOM     27  O   UNL     1       1.812   2.034   0.845  0.00  0.00    -0.383 OA
ATOM     28  C   UNL     1       2.136   0.652   0.674  0.00  0.00    +0.141 C 
ATOM     29  C   UNL     1       0.866  -0.188   0.836  0.00  0.00    -0.049 C 
ATOM     30  N   UNL     1      -0.134   0.269  -0.153  0.00  0.00    +0.389 N 
ATOM     31  H   UNL     1       0.257   0.161  -1.097  0.00  0.00    -0.081 HD
ENDBRANCH  24  30
BRANCH  24  32
ATOM     32  C   UNL     1      -2.051  -0.292   1.270  0.00  0.00    -0.022 A 
ATOM     33  C   UNL     1      -3.355  -0.009   1.509  0.00  0.00    +0.009 A 
ATOM     34  C   UNL     1      -3.769   0.191   2.813  0.00  0.00    +0.008 A 
ATOM     35  C   UNL     1      -2.859   0.099   3.813  0.00  0.00    +0.045 A 
ATOM     36  S   UNL     1      -1.364  -0.288   2.918  0.00  0.00    -0.103 S 
ENDBRANCH  24  32
ENDBRANCH  23  24
ENDBRANCH  20  23
TORSDOF 4
