REMARK  Name = ZINC10040293
REMARK  12 active torsions:
REMARK  status: ('A' for Active; 'I' for Inactive)
REMARK    1  A    between atoms: C_1  and  C_2
REMARK    2  A    between atoms: C_2  and  C_3
REMARK    3  A    between atoms: C_2  and  C_4
REMARK    4  A    between atoms: C_4  and  C_6
REMARK    5  A    between atoms: C_4  and  N_27
REMARK    6  A    between atoms: N_8  and  N_9
REMARK    7  A    between atoms: C_10  and  C_11
REMARK    8  A    between atoms: C_14  and  C_16
REMARK    9  A    between atoms: C_19  and  N_24
REMARK   10  A    between atoms: C_21  and  O_22
REMARK   11  A    between atoms: O_22  and  C_23
REMARK   12  A    between atoms: C_28  and  C_30
REMARK                            x       y       z     vdW  Elec       q    Type
REMARK                         _______ _______ _______ _____ _____    ______ ____
ROOT
ATOM      1  C   UNL     1      -1.204  -2.269   0.201  0.00  0.00    +0.253 C 
ATOM      2  O   UNL     1      -0.162  -2.832   0.443  0.00  0.00    -0.272 OA
ATOM      3  N   UNL     1      -2.341  -2.981   0.075  0.00  0.00    -0.205 N 
ATOM      4  H   UNL     1      -3.163  -2.539  -0.191  0.00  0.00    +0.177 HD
ENDROOT
BRANCH   3   5
ATOM      5  N   UNL     1      -2.337  -4.250   0.307  0.00  0.00    -0.185 NA
ATOM      6  C   UNL     1      -3.456  -4.949   0.183  0.00  0.00    +0.176 C 
BRANCH   6   7
ATOM      7  C   UNL     1      -3.452  -6.317   0.433  0.00  0.00    +0.148 A 
ATOM      8  C   UNL     1      -4.612  -7.212   0.341  0.00  0.00    +0.051 A 
ATOM      9  C   UNL     1      -4.172  -8.455   0.661  0.00  0.00    +0.050 A 
ATOM     10  C   UNL     1      -2.745  -8.335   0.961  0.00  0.00    +0.139 A 
ATOM     11  O   UNL     1      -2.382  -7.048   0.808  0.00  0.00    -0.454 OA
BRANCH  10  12
ATOM     12  C   UNL     1      -1.893  -9.391   1.346  0.00  0.00    +0.059 A 
ATOM     13  C   UNL     1      -2.262 -10.257   2.396  0.00  0.00    +0.017 A 
ATOM     14  C   UNL     1      -1.435 -11.276   2.759  0.00  0.00    +0.033 A 
ATOM     15  C   UNL     1      -0.219 -11.468   2.109  0.00  0.00    +0.130 A 
ATOM     16  C   UNL     1       0.169 -10.632   1.081  0.00  0.00    +0.079 A 
ATOM     17  C   UNL     1      -0.654  -9.588   0.686  0.00  0.00    +0.133 A 
BRANCH  15  18
ATOM     18  N   UNL     1       0.666 -12.579   2.525  0.00  0.00    +0.057 N 
ATOM     19  O   UNL     1       1.818 -12.766   1.915  0.00  0.00    -0.126 OA
ATOM     20  O   UNL     1       0.302 -13.380   3.504  0.00  0.00    -0.126 OA
ENDBRANCH  15  18
BRANCH  17  21
ATOM     21  O   UNL     1      -0.278  -8.765  -0.320  0.00  0.00    -0.494 OA
ATOM     22  C   UNL     1       0.985  -9.028  -0.936  0.00  0.00    +0.277 C 
ENDBRANCH  17  21
ENDBRANCH  10  12
ENDBRANCH   6   7
ENDBRANCH   3   5
BRANCH   1  23
ATOM     23  C   UNL     1      -1.230  -0.771   0.041  0.00  0.00    +0.163 C 
BRANCH  23  24
ATOM     24  N   UNL     1      -0.151  -0.176   0.833  0.00  0.00    -0.300 N 
ATOM     25  C   UNL     1      -0.254   1.098   1.263  0.00  0.00    +0.245 C 
ATOM     26  O   UNL     1      -1.240   1.754   0.988  0.00  0.00    -0.270 OA
ATOM     27  H   UNL     1       0.637  -0.698   1.049  0.00  0.00    +0.150 HD
BRANCH  25  28
ATOM     28  C   UNL     1       0.835   1.698   2.062  0.00  0.00    +0.038 A 
ATOM     29  C   UNL     1       0.731   3.017   2.509  0.00  0.00    +0.013 A 
ATOM     30  C   UNL     1       1.750   3.572   3.255  0.00  0.00    +0.002 A 
ATOM     31  C   UNL     1       2.873   2.825   3.562  0.00  0.00    +0.020 A 
ATOM     32  C   UNL     1       2.983   1.517   3.122  0.00  0.00    +0.042 A 
ATOM     33  C   UNL     1       1.967   0.948   2.379  0.00  0.00    +0.033 A 
ATOM     34 CL   UNL     1       4.396   0.588   3.512  0.00  0.00    -0.084 Cl
ENDBRANCH  25  28
ENDBRANCH  23  24
BRANCH  23  36
ATOM     35  C   UNL     1      -2.191  -0.992  -2.255  0.00  0.00    +0.009 C 
ATOM     36  C   UNL     1      -1.037  -0.412  -1.434  0.00  0.00    +0.012 C 
ATOM     37  C   UNL     1      -1.014   1.109  -1.591  0.00  0.00    +0.009 C 
ENDBRANCH  23  36
ENDBRANCH   1  23
TORSDOF 9
