REMARK  Name = ZINC38684715
REMARK  17 active torsions:
REMARK  status: ('A' for Active; 'I' for Inactive)
REMARK    1  A    between atoms: C_1  and  C_2
REMARK    2  A    between atoms: C_2  and  C_3
REMARK    3  A    between atoms: C_2  and  C_4
REMARK    4  A    between atoms: C_4  and  C_5
REMARK    5  A    between atoms: C_5  and  O_6
REMARK    6  A    between atoms: O_6  and  C_7
REMARK    7  A    between atoms: C_11  and  C_13
REMARK    8  A    between atoms: C_18  and  O_27
REMARK    9  A    between atoms: C_22  and  N_26
REMARK   10  A    between atoms: C_23  and  C_24
REMARK   11  A    between atoms: O_27  and  C_28
REMARK   12  A    between atoms: C_28  and  C_30
REMARK   13  A    between atoms: C_30  and  O_31
REMARK   14  A    between atoms: O_31  and  C_32
REMARK   15  A    between atoms: C_35  and  C_38
REMARK   16  A    between atoms: C_38  and  C_39
REMARK   17  A    between atoms: C_38  and  C_40
REMARK                            x       y       z     vdW  Elec       q    Type
REMARK                         _______ _______ _______ _____ _____    ______ ____
ROOT
ATOM      1  C   UNL     1      -5.706  -6.460  -0.319  0.00  0.00    +0.098 C 
ATOM      2  C   UNL     1      -5.938  -7.180  -1.621  0.00  0.00    +0.008 A 
ATOM      3  C   UNL     1      -6.297  -6.457  -2.745  0.00  0.00    +0.012 A 
ATOM      4  C   UNL     1      -6.513  -7.101  -3.947  0.00  0.00    +0.047 A 
ATOM      5  C   UNL     1      -6.371  -8.479  -4.031  0.00  0.00    +0.135 A 
ATOM      6  C   UNL     1      -6.012  -9.206  -2.907  0.00  0.00    +0.093 A 
ATOM      7  C   UNL     1      -5.794  -8.557  -1.699  0.00  0.00    +0.138 A 
ATOM      8  O   UNL     1      -5.443  -9.282  -0.609  0.00  0.00    -0.441 OA
ATOM      9  C   UNL     1      -5.603  -8.765   0.621  0.00  0.00    +0.199 C 
ATOM     10  C   UNL     1      -5.732  -7.435   0.823  0.00  0.00    +0.098 C 
ENDROOT
BRANCH   1  15
ATOM     11  C   UNL     1      -3.051  -3.771  -0.260  0.00  0.00    +0.121 A 
ATOM     12  C   UNL     1      -1.897  -4.521  -0.436  0.00  0.00    +0.045 A 
ATOM     13  C   UNL     1      -1.981  -5.893  -0.573  0.00  0.00    +0.004 A 
ATOM     14  C   UNL     1      -3.213  -6.519  -0.535  0.00  0.00    +0.005 A 
ATOM     15  C   UNL     1      -4.365  -5.774  -0.360  0.00  0.00    -0.031 A 
ATOM     16  C   UNL     1      -4.286  -4.402  -0.216  0.00  0.00    +0.050 A 
BRANCH  11  17
ATOM     17  O   UNL     1      -2.971  -2.421  -0.124  0.00  0.00    -0.492 OA
BRANCH  17  18
ATOM     18  C   UNL     1      -1.667  -1.840  -0.179  0.00  0.00    +0.229 C 
BRANCH  18  19
ATOM     19  C   UNL     1      -1.778  -0.323  -0.009  0.00  0.00    +0.044 C 
BRANCH  19  21
ATOM     20  C   UNL     1      -0.500   1.824  -0.022  0.00  0.00    +0.007 C 
ATOM     21  C   UNL     1      -0.381   0.299  -0.067  0.00  0.00    -0.014 C 
ATOM     22  C   UNL     1       0.443  -0.183   1.128  0.00  0.00    +0.007 C 
ENDBRANCH  19  21
ENDBRANCH  18  19
ENDBRANCH  17  18
ENDBRANCH  11  17
ENDBRANCH   1  15
BRANCH   9  23
ATOM     23  N   UNL     1      -5.636  -9.611   1.701  0.00  0.00    -0.328 N 
ATOM     24  H   UNL     1      -5.544 -10.568   1.570  0.00  0.00    +0.145 HD
ATOM     25  H   UNL     1      -5.750  -9.252   2.595  0.00  0.00    +0.145 HD
ENDBRANCH   9  23
BRANCH  10  26
ATOM     26  C   UNL     1      -5.898  -6.947   2.159  0.00  0.00    +0.101 C 
ATOM     27  N   UNL     1      -6.029  -6.560   3.219  0.00  0.00    -0.191 NA
ENDBRANCH  10  26
BRANCH   5  28
ATOM     28  O   UNL     1      -6.584  -9.115  -5.213  0.00  0.00    -0.423 OA
BRANCH  28  29
ATOM     29  C   UNL     1      -7.665  -9.904  -5.319  0.00  0.00    +0.350 C 
ATOM     30  O   UNL     1      -8.468  -9.952  -4.417  0.00  0.00    -0.247 OA
BRANCH  29  31
ATOM     31  C   UNL     1      -7.876 -10.731  -6.561  0.00  0.00    +0.349 C 
BRANCH  31  32
ATOM     32  O   UNL     1      -9.086 -11.480  -6.434  0.00  0.00    -0.481 OA
BRANCH  32  33
ATOM     33  C   UNL     1      -9.426 -12.284  -7.476  0.00  0.00    +0.121 A 
ATOM     34  C   UNL     1      -8.608 -12.354  -8.595  0.00  0.00    +0.046 A 
ATOM     35  C   UNL     1      -8.956 -13.172  -9.653  0.00  0.00    +0.007 A 
ATOM     36  C   UNL     1     -10.118 -13.920  -9.597  0.00  0.00    -0.045 A 
ATOM     37  C   UNL     1     -10.934 -13.851  -8.484  0.00  0.00    +0.007 A 
ATOM     38  C   UNL     1     -10.588 -13.039  -7.421  0.00  0.00    +0.046 A 
BRANCH  36  39
ATOM     39  C   UNL     1     -10.495 -14.811 -10.753  0.00  0.00    +0.013 C 
ATOM     40  C   UNL     1     -10.585 -16.260 -10.271  0.00  0.00    +0.012 C 
ATOM     41  C   UNL     1     -11.850 -14.374 -11.313  0.00  0.00    +0.012 C 
ENDBRANCH  36  39
ENDBRANCH  32  33
ENDBRANCH  31  32
ENDBRANCH  29  31
ENDBRANCH  28  29
ENDBRANCH   5  28
TORSDOF 13
