REMARK  Name = ZINC02764325
REMARK  5 active torsions:
REMARK  status: ('A' for Active; 'I' for Inactive)
REMARK    1  A    between atoms: C_3  and  O_8
REMARK    2  A    between atoms: O_8  and  C_9
REMARK    3  A    between atoms: C_9  and  C_10
REMARK    4  A    between atoms: C_13  and  C_15
REMARK    5  A    between atoms: C_22  and  N_63
REMARK                            x       y       z     vdW  Elec       q    Type
REMARK                         _______ _______ _______ _____ _____    ______ ____
ROOT
ATOM      1  C   UNL     1       1.582   1.269   6.063  0.00  0.00    +0.282 C 
ATOM      2  O   UNL     1       1.223   1.881   7.052  0.00  0.00    -0.267 OA
ATOM      3  N   UNL     1       1.804   1.927   4.908  0.00  0.00    -0.299 N 
ATOM      4  C   UNL     1       1.755   3.396   4.853  0.00  0.00    +0.089 C 
ATOM      5  C   UNL     1       0.827   3.810   3.707  0.00  0.00    -0.059 C 
ATOM      6  C   UNL     1       1.160   1.695   2.568  0.00  0.00    -0.059 C 
ATOM      7  C   UNL     1       2.102   1.194   3.668  0.00  0.00    +0.089 C 
ATOM      8  N   UNL     1       1.294   3.164   2.461  0.00  0.00    +0.384 N 
ATOM      9  H   UNL     1       2.283   3.398   2.315  0.00  0.00    -0.081 HD
ENDROOT
BRANCH   8  10
ATOM     10  C   UNL     1       0.508   3.660   1.311  0.00  0.00    -0.062 C 
ATOM     11  C   UNL     1       0.630   5.183   1.247  0.00  0.00    -0.024 C 
ATOM     12  C   UNL     1       2.103   5.572   1.100  0.00  0.00    +0.005 C 
ATOM     13  C   UNL     1       2.666   4.960  -0.184  0.00  0.00    -0.010 C 
ATOM     14  C   UNL     1       1.879   5.484  -1.387  0.00  0.00    +0.007 C 
ATOM     15  C   UNL     1       0.406   5.096  -1.240  0.00  0.00    -0.010 C 
ATOM     16  C   UNL     1      -0.157   5.707   0.044  0.00  0.00    +0.005 C 
ATOM     17  C   UNL     1       0.285   3.572  -1.175  0.00  0.00    +0.005 C 
ATOM     18  C   UNL     1       1.072   3.048   0.027  0.00  0.00    -0.024 C 
ATOM     19  C   UNL     1       2.545   3.436  -0.119  0.00  0.00    +0.005 C 
ENDBRANCH   8  10
BRANCH   1  23
ATOM     20  C   UNL     1       2.312  -2.234   5.566  0.00  0.00    +0.143 A 
ATOM     21  C   UNL     1       1.804  -2.296   6.817  0.00  0.00    +0.049 A 
ATOM     22  C   UNL     1       1.455  -0.987   7.186  0.00  0.00    +0.055 A 
ATOM     23  C   UNL     1       1.772  -0.183   6.129  0.00  0.00    +0.190 A 
ATOM     24  O   UNL     1       2.287  -0.960   5.153  0.00  0.00    -0.452 OA
BRANCH  20  25
ATOM     25  C   UNL     1       2.820  -3.406   4.766  0.00  0.00    +0.303 C 
BRANCH  25  26
ATOM     26  O   UNL     1       1.747  -3.962   4.003  0.00  0.00    -0.484 OA
BRANCH  26  29
ATOM     27  C   UNL     1       1.341  -6.714   1.657  0.00  0.00    +0.005 A 
ATOM     28  C   UNL     1       1.044  -5.624   2.453  0.00  0.00    +0.046 A 
ATOM     29  C   UNL     1       2.038  -5.034   3.220  0.00  0.00    +0.123 A 
ATOM     30  C   UNL     1       3.330  -5.537   3.183  0.00  0.00    +0.065 A 
ATOM     31  C   UNL     1       3.622  -6.631   2.390  0.00  0.00    +0.044 A 
ATOM     32  C   UNL     1       2.628  -7.217   1.625  0.00  0.00    +0.020 A 
ATOM     33 CL   UNL     1       5.237  -7.265   2.346  0.00  0.00    -0.083 Cl
ENDBRANCH  26  29
ENDBRANCH  25  26
ENDBRANCH  20  25
ENDBRANCH   1  23
TORSDOF 5
