REMARK  Name = ZINC04262747
REMARK  4 active torsions:
REMARK  status: ('A' for Active; 'I' for Inactive)
REMARK    1  A    between atoms: C_3  and  C_9
REMARK    2  A    between atoms: C_12  and  C_23
REMARK    3  A    between atoms: C_18  and  N_22
REMARK    4  A    between atoms: C_19  and  C_20
REMARK                            x       y       z     vdW  Elec       q    Type
REMARK                         _______ _______ _______ _____ _____    ______ ____
ROOT
ATOM      1  C   UNL     1       3.671   2.185  -0.023  0.00  0.00    +0.103 C 
ATOM      2  C   UNL     1       3.750   3.060   1.202  0.00  0.00    +0.058 A 
ATOM      3  C   UNL     1       3.963   2.701   2.526  0.00  0.00    +0.173 A 
ATOM      4  N   UNL     1       3.952   3.795   3.251  0.00  0.00    -0.167 NA
ATOM      5  N   UNL     1       3.731   4.889   2.400  0.00  0.00    -0.246 N 
ATOM      6  H   UNL     1       3.675   5.819   2.669  0.00  0.00    +0.192 HD
ATOM      7  C   UNL     1       3.610   4.419   1.148  0.00  0.00    +0.223 A 
ATOM      8  O   UNL     1       3.393   5.087  -0.012  0.00  0.00    -0.423 OA
ATOM      9  C   UNL     1       3.587   4.416  -1.165  0.00  0.00    +0.200 C 
ATOM     10  C   UNL     1       3.726   3.073  -1.241  0.00  0.00    +0.098 C 
ENDROOT
BRANCH   1  13
ATOM     11  C   UNL     1      -0.017   1.379   0.010  0.00  0.00    +0.020 A 
ATOM     12  C   UNL     1       1.171   2.087   0.002  0.00  0.00    +0.007 A 
ATOM     13  C   UNL     1       2.377   1.413  -0.013  0.00  0.00    -0.016 A 
ATOM     14  C   UNL     1       2.397   0.029  -0.021  0.00  0.00    +0.046 A 
ATOM     15  C   UNL     1       1.210  -0.679  -0.013  0.00  0.00    +0.040 A 
ATOM     16  C   UNL     1       0.002  -0.004   0.002  0.00  0.00    +0.042 A 
ATOM     17 CL   UNL     1      -1.489  -0.893   0.012  0.00  0.00    -0.083 Cl
ATOM     18 CL   UNL     1       3.913  -0.817  -0.041  0.00  0.00    -0.083 Cl
ENDBRANCH   1  13
BRANCH   3  19
ATOM     19  C   UNL     1       4.169   1.300   3.041  0.00  0.00    +0.436 C 
ATOM     20  F   UNL     1       5.534   0.995   3.027  0.00  0.00    -0.164 F 
ATOM     21  F   UNL     1       3.685   1.208   4.350  0.00  0.00    -0.164 F 
ATOM     22  F   UNL     1       3.481   0.397   2.225  0.00  0.00    -0.164 F 
ENDBRANCH   3  19
BRANCH   9  23
ATOM     23  N   UNL     1       3.646   5.138  -2.331  0.00  0.00    -0.328 N 
ATOM     24  H   UNL     1       3.549   6.103  -2.309  0.00  0.00    +0.145 HD
ATOM     25  H   UNL     1       3.784   4.684  -3.177  0.00  0.00    +0.145 HD
ENDBRANCH   9  23
BRANCH  10  26
ATOM     26  C   UNL     1       3.932   2.471  -2.524  0.00  0.00    +0.101 C 
ATOM     27  N   UNL     1       4.096   1.994  -3.542  0.00  0.00    -0.191 NA
ENDBRANCH  10  26
TORSDOF 4
