REMARK  Name = ZINC34967847
REMARK  10 active torsions:
REMARK  status: ('A' for Active; 'I' for Inactive)
REMARK    1  A    between atoms: C_1  and  C_2
REMARK    2  A    between atoms: C_2  and  C_3
REMARK    3  A    between atoms: C_3  and  C_4
REMARK    4  A    between atoms: C_4  and  C_6
REMARK    5  A    between atoms: C_4  and  N_19
REMARK    6  A    between atoms: N_8  and  C_9
REMARK    7  A    between atoms: C_9  and  C_10
REMARK    8  A    between atoms: C_10  and  C_11
REMARK    9  A    between atoms: N_19  and  S_20
REMARK   10  A    between atoms: S_20  and  C_23
REMARK                            x       y       z     vdW  Elec       q    Type
REMARK                         _______ _______ _______ _____ _____    ______ ____
ROOT
ATOM      1  C   UNL     1      -1.494  -2.084  -0.054  0.00  0.00    +0.162 C 
ENDROOT
BRANCH   1   2
ATOM      2  C   UNL     1      -2.883  -2.651  -0.202  0.00  0.00    +0.232 C 
ATOM      3  O   UNL     1      -3.306  -3.439   0.617  0.00  0.00    -0.274 OA
ATOM      4  N   UNL     1      -3.654  -2.282  -1.244  0.00  0.00    -0.314 N 
ATOM      5  H   UNL     1      -3.315  -1.652  -1.899  0.00  0.00    +0.149 HD
BRANCH   4   6
ATOM      6  C   UNL     1      -5.004  -2.833  -1.387  0.00  0.00    +0.109 C 
BRANCH   6   7
ATOM      7  C   UNL     1      -5.660  -2.256  -2.643  0.00  0.00    +0.055 C 
BRANCH   7   8
ATOM      8  C   UNL     1      -7.048  -2.822  -2.790  0.00  0.00    -0.027 A 
ATOM      9  C   UNL     1      -7.261  -3.934  -3.584  0.00  0.00    +0.006 A 
ATOM     10  C   UNL     1      -8.534  -4.454  -3.719  0.00  0.00    +0.020 A 
ATOM     11  C   UNL     1      -9.597  -3.863  -3.060  0.00  0.00    +0.042 A 
ATOM     12  C   UNL     1      -9.385  -2.751  -2.265  0.00  0.00    +0.040 A 
ATOM     13  C   UNL     1      -8.110  -2.233  -2.126  0.00  0.00    +0.046 A 
ATOM     14 CL   UNL     1      -7.842  -0.841  -1.124  0.00  0.00    -0.083 Cl
ATOM     15 CL   UNL     1     -11.196  -4.516  -3.231  0.00  0.00    -0.083 Cl
ENDBRANCH   7   8
ENDBRANCH   6   7
ENDBRANCH   4   6
ENDBRANCH   1   2
BRANCH   1  16
ATOM     16  N   UNL     1      -0.866  -2.637   1.148  0.00  0.00    -0.178 NA
ATOM     17  H   UNL     1      -1.039  -2.235   2.014  0.00  0.00    +0.149 HD
BRANCH  16  18
ATOM     18  S   UNL     1       0.139  -3.948   1.030  0.00  0.00    +0.059 S 
ATOM     19  O   UNL     1       0.592  -4.233   2.346  0.00  0.00    -0.153 OA
ATOM     20  O   UNL     1      -0.540  -4.909   0.233  0.00  0.00    -0.153 OA
BRANCH  18  21
ATOM     21  C   UNL     1       1.552  -3.439   0.110  0.00  0.00    +0.105 A 
ATOM     22  C   UNL     1       1.535  -3.495  -1.272  0.00  0.00    +0.029 A 
ATOM     23  C   UNL     1       2.643  -3.096  -1.994  0.00  0.00    +0.017 A 
ATOM     24  C   UNL     1       3.771  -2.640  -1.335  0.00  0.00    +0.018 A 
ATOM     25  C   UNL     1       3.788  -2.585   0.047  0.00  0.00    +0.017 A 
ATOM     26  C   UNL     1       2.677  -2.979   0.769  0.00  0.00    +0.029 A 
ATOM     27 BR   UNL     1       5.288  -2.094  -2.322  0.00  0.00    -0.050 Br
ENDBRANCH  18  21
ENDBRANCH  16  18
ENDBRANCH   1  16
BRANCH   1  28
ATOM     28  C   UNL     1      -1.575  -0.561   0.066  0.00  0.00    +0.029 C 
BRANCH  28  30
ATOM     29  C   UNL     1      -0.239   1.550   0.117  0.00  0.00    +0.004 C 
ATOM     30  C   UNL     1      -0.161   0.021   0.121  0.00  0.00    -0.001 C 
ENDBRANCH  28  30
ENDBRANCH   1  28
TORSDOF 9
