REMARK  Name = ZINC40530291
REMARK  12 active torsions:
REMARK  status: ('A' for Active; 'I' for Inactive)
REMARK    1  A    between atoms: C_1  and  C_2
REMARK    2  A    between atoms: C_2  and  C_3
REMARK    3  A    between atoms: C_2  and  C_4
REMARK    4  A    between atoms: C_2  and  C_5
REMARK    5  A    between atoms: C_8  and  C_11
REMARK    6  A    between atoms: C_16  and  O_25
REMARK    7  A    between atoms: C_20  and  N_24
REMARK    8  A    between atoms: C_21  and  C_22
REMARK    9  A    between atoms: O_25  and  C_26
REMARK   10  A    between atoms: C_26  and  C_28
REMARK   11  A    between atoms: C_31  and  O_35
REMARK   12  A    between atoms: O_35  and  C_36
REMARK                            x       y       z     vdW  Elec       q    Type
REMARK                         _______ _______ _______ _____ _____    ______ ____
ROOT
ATOM      1  C   UNL     1       2.745  -1.833  -4.789  0.00  0.00    +0.098 C 
ATOM      2  C   UNL     1       3.925  -2.675  -4.382  0.00  0.00    +0.008 A 
ATOM      3  C   UNL     1       3.710  -3.932  -3.845  0.00  0.00    +0.012 A 
ATOM      4  C   UNL     1       4.779  -4.720  -3.466  0.00  0.00    +0.047 A 
ATOM      5  C   UNL     1       6.076  -4.250  -3.625  0.00  0.00    +0.135 A 
ATOM      6  C   UNL     1       6.295  -2.992  -4.162  0.00  0.00    +0.093 A 
ATOM      7  C   UNL     1       5.218  -2.202  -4.542  0.00  0.00    +0.138 A 
ATOM      8  O   UNL     1       5.449  -0.973  -5.067  0.00  0.00    -0.441 OA
ATOM      9  C   UNL     1       4.492  -0.361  -5.785  0.00  0.00    +0.199 C 
ATOM     10  C   UNL     1       3.193  -0.722  -5.697  0.00  0.00    +0.098 C 
ENDROOT
BRANCH   1  14
ATOM     11  C   UNL     1       0.928  -0.167  -1.300  0.00  0.00    -0.042 A 
ATOM     12  C   UNL     1       0.198  -0.996  -2.131  0.00  0.00    +0.004 A 
ATOM     13  C   UNL     1       0.786  -1.535  -3.260  0.00  0.00    +0.005 A 
ATOM     14  C   UNL     1       2.104  -1.244  -3.559  0.00  0.00    -0.035 A 
ATOM     15  C   UNL     1       2.834  -0.414  -2.729  0.00  0.00    +0.005 A 
ATOM     16  C   UNL     1       2.245   0.129  -1.602  0.00  0.00    +0.004 A 
BRANCH  11  18
ATOM     17  C   UNL     1       0.312   1.948  -0.161  0.00  0.00    +0.015 C 
ATOM     18  C   UNL     1       0.287   0.421  -0.070  0.00  0.00    -0.013 C 
ATOM     19  C   UNL     1       1.061  -0.028   1.172  0.00  0.00    +0.015 C 
ATOM     20  C   UNL     1      -1.161  -0.061   0.030  0.00  0.00    +0.015 C 
ENDBRANCH  11  18
ENDBRANCH   1  14
BRANCH   9  21
ATOM     21  N   UNL     1       4.846   0.660  -6.631  0.00  0.00    -0.328 N 
ATOM     22  H   UNL     1       5.774   0.930  -6.704  0.00  0.00    +0.145 HD
ATOM     23  H   UNL     1       4.166   1.112  -7.156  0.00  0.00    +0.145 HD
ENDBRANCH   9  21
BRANCH  10  24
ATOM     24  C   UNL     1       2.222  -0.028  -6.489  0.00  0.00    +0.101 C 
ATOM     25  N   UNL     1       1.452   0.522  -7.117  0.00  0.00    -0.191 NA
ENDBRANCH  10  24
BRANCH   5  26
ATOM     26  O   UNL     1       7.130  -5.024  -3.254  0.00  0.00    -0.422 OA
BRANCH  26  27
ATOM     27  C   UNL     1       7.851  -4.640  -2.182  0.00  0.00    +0.344 C 
ATOM     28  O   UNL     1       7.491  -3.689  -1.517  0.00  0.00    -0.245 OA
BRANCH  27  29
ATOM     29  C   UNL     1       9.076  -5.374  -1.816  0.00  0.00    +0.061 A 
ATOM     30  C   UNL     1       9.496  -6.465  -2.583  0.00  0.00    +0.018 A 
ATOM     31  C   UNL     1      10.641  -7.147  -2.239  0.00  0.00    +0.048 A 
ATOM     32  C   UNL     1      11.380  -6.753  -1.130  0.00  0.00    +0.138 A 
ATOM     33  C   UNL     1      10.967  -5.669  -0.363  0.00  0.00    +0.083 A 
ATOM     34  C   UNL     1       9.825  -4.977  -0.704  0.00  0.00    +0.038 A 
ATOM     35 CL   UNL     1      11.895  -5.181   1.020  0.00  0.00    -0.080 Cl
BRANCH  32  36
ATOM     36  O   UNL     1      12.508  -7.429  -0.794  0.00  0.00    -0.494 OA
ATOM     37  C   UNL     1      12.875  -8.533  -1.624  0.00  0.00    +0.277 C 
ENDBRANCH  32  36
ENDBRANCH  27  29
ENDBRANCH  26  27
ENDBRANCH   5  26
TORSDOF 8
