REMARK  Name = ZINC03416821
REMARK  12 active torsions:
REMARK  status: ('A' for Active; 'I' for Inactive)
REMARK    1  A    between atoms: C_1  and  C_2
REMARK    2  A    between atoms: C_7  and  N_8
REMARK    3  A    between atoms: C_9  and  C_29
REMARK    4  A    between atoms: C_12  and  S_13
REMARK    5  A    between atoms: S_13  and  C_14
REMARK    6  A    between atoms: C_14  and  C_15
REMARK    7  A    between atoms: N_25  and  C_26
REMARK    8  A    between atoms: C_26  and  C_27
REMARK    9  A    between atoms: C_32  and  C_35
REMARK   10  A    between atoms: C_35  and  C_36
REMARK   11  A    between atoms: C_35  and  C_37
REMARK   12  A    between atoms: C_35  and  C_38
REMARK                            x       y       z     vdW  Elec       q    Type
REMARK                         _______ _______ _______ _____ _____    ______ ____
ROOT
ATOM      1  N   UNL     1      -4.451  -3.788   1.325  0.00  0.00    -0.270 N 
ATOM      2  C   UNL     1      -4.246  -4.708   0.320  0.00  0.00    +0.169 A 
ATOM      3  N   UNL     1      -3.286  -4.238  -0.442  0.00  0.00    -0.128 NA
ATOM      4  N   UNL     1      -2.884  -3.103   0.006  0.00  0.00    -0.122 NA
ATOM      5  C   UNL     1      -3.563  -2.776   1.083  0.00  0.00    +0.197 A 
ENDROOT
BRANCH   1  12
ATOM      6  C   UNL     1      -3.634  -5.040   3.747  0.00  0.00    +0.046 C 
ATOM      7  C   UNL     1      -5.019  -4.474   3.572  0.00  0.00    -0.026 A 
ATOM      8  C   UNL     1      -5.933  -4.549   4.605  0.00  0.00    +0.005 A 
ATOM      9  C   UNL     1      -7.206  -4.034   4.444  0.00  0.00    +0.000 A 
ATOM     10  C   UNL     1      -7.567  -3.438   3.249  0.00  0.00    +0.002 A 
ATOM     11  C   UNL     1      -6.657  -3.356   2.214  0.00  0.00    +0.026 A 
ATOM     12  C   UNL     1      -5.378  -3.871   2.374  0.00  0.00    +0.053 A 
ENDBRANCH   1  12
BRANCH   2  13
ATOM     13  C   UNL     1      -4.968  -5.985   0.136  0.00  0.00    +0.020 A 
ATOM     14  C   UNL     1      -6.160  -6.222   0.824  0.00  0.00    +0.012 A 
ATOM     15  C   UNL     1      -6.831  -7.414   0.645  0.00  0.00    +0.005 A 
ATOM     16  C   UNL     1      -6.320  -8.378  -0.206  0.00  0.00    -0.042 A 
ATOM     17  C   UNL     1      -5.136  -8.152  -0.886  0.00  0.00    +0.005 A 
ATOM     18  C   UNL     1      -4.458  -6.962  -0.721  0.00  0.00    +0.012 A 
BRANCH  16  19
ATOM     19  C   UNL     1      -7.055  -9.680  -0.393  0.00  0.00    -0.013 C 
ATOM     20  C   UNL     1      -6.154 -10.840   0.034  0.00  0.00    +0.015 C 
ATOM     21  C   UNL     1      -8.323  -9.677   0.464  0.00  0.00    +0.015 C 
ATOM     22  C   UNL     1      -7.436  -9.844  -1.865  0.00  0.00    +0.015 C 
ENDBRANCH  16  19
ENDBRANCH   2  13
BRANCH   5  23
ATOM     23  S   UNL     1      -3.361  -1.312   2.042  0.00  0.00    -0.078 S 
BRANCH  23  24
ATOM     24  C   UNL     1      -2.032  -0.508   1.113  0.00  0.00    +0.151 C 
BRANCH  24  25
ATOM     25  C   UNL     1      -1.682   0.803   1.768  0.00  0.00    +0.124 A 
ATOM     26  N   UNL     1      -2.335   1.152   2.835  0.00  0.00    -0.233 NA
ATOM     27  C   UNL     1      -2.075   2.317   3.478  0.00  0.00    +0.078 A 
ATOM     28  C   UNL     1      -2.776   2.693   4.625  0.00  0.00    +0.028 A 
ATOM     29  C   UNL     1      -2.479   3.885   5.247  0.00  0.00    +0.002 A 
ATOM     30  C   UNL     1      -1.488   4.720   4.747  0.00  0.00    +0.001 A 
ATOM     31  C   UNL     1      -0.781   4.371   3.617  0.00  0.00    +0.015 A 
ATOM     32  C   UNL     1      -1.068   3.169   2.973  0.00  0.00    +0.065 A 
ATOM     33  C   UNL     1      -0.343   2.741   1.767  0.00  0.00    +0.263 A 
ATOM     34  O   UNL     1       0.540   3.426   1.283  0.00  0.00    -0.267 OA
ATOM     35  N   UNL     1      -0.698   1.558   1.213  0.00  0.00    -0.282 N 
BRANCH  35  36
ATOM     36  C   UNL     1      -0.013   1.086   0.008  0.00  0.00    +0.245 C 
BRANCH  36  37
ATOM     37  C   UNL     1      -0.725   1.573  -1.185  0.00  0.00    +0.084 C 
ATOM     38  N   UNL     1      -1.274   1.950  -2.105  0.00  0.00    -0.195 NA
ENDBRANCH  36  37
ENDBRANCH  35  36
ENDBRANCH  24  25
ENDBRANCH  23  24
ENDBRANCH   5  23
TORSDOF 8
