REMARK  Name = ZINC39684412
REMARK  9 active torsions:
REMARK  status: ('A' for Active; 'I' for Inactive)
REMARK    1  A    between atoms: C_1  and  C_2
REMARK    2  A    between atoms: C_2  and  C_4
REMARK    3  A    between atoms: C_2  and  N_8
REMARK    4  A    between atoms: C_4  and  C_5
REMARK    5  A    between atoms: C_4  and  C_6
REMARK    6  A    between atoms: C_4  and  C_7
REMARK    7  A    between atoms: C_9  and  C_11
REMARK    8  A    between atoms: C_22  and  C_24
REMARK    9  A    between atoms: C_27  and  C_31
REMARK                            x       y       z     vdW  Elec       q    Type
REMARK                         _______ _______ _______ _____ _____    ______ ____
ROOT
ATOM      1  C   UNL     1       0.557  -0.465  -3.539  0.00  0.00    +0.100 C 
ATOM      2  C   UNL     1       1.778   0.307  -4.088  0.00  0.00    +0.121 C 
ATOM      3  N   UNL     1       1.670   0.180  -5.561  0.00  0.00    -0.296 N 
ATOM      4  C   UNL     1       0.219   0.312  -5.837  0.00  0.00    +0.115 C 
ATOM      5  C   UNL     1      -0.464  -0.459  -4.689  0.00  0.00    -0.004 C 
ATOM      6  C   UNL     1      -0.776  -1.887  -5.126  0.00  0.00    -0.010 C 
ATOM      7  C   UNL     1      -1.836  -1.857  -6.231  0.00  0.00    -0.082 C 
ATOM      8  N   UNL     1      -3.049  -1.201  -5.731  0.00  0.00    +0.379 N 
ATOM      9  C   UNL     1      -2.761   0.200  -5.400  0.00  0.00    -0.082 C 
ATOM     10  C   UNL     1      -1.740   0.257  -4.260  0.00  0.00    -0.010 C 
ATOM     11  C   UNL     1       2.665  -0.011  -6.449  0.00  0.00    +0.247 C 
ATOM     12  O   UNL     1       3.799  -0.211  -6.058  0.00  0.00    -0.270 OA
ATOM     13  H   UNL     1      -3.766  -1.236  -6.440  0.00  0.00    -0.086 HD
ATOM     14  H   UNL     1      -3.373  -1.680  -4.904  0.00  0.00    -0.086 HD
ENDROOT
BRANCH  11  15
ATOM     15  C   UNL     1       2.379   0.021  -7.899  0.00  0.00    +0.040 A 
ATOM     16  C   UNL     1       1.238   0.671  -8.374  0.00  0.00    +0.014 A 
ATOM     17  C   UNL     1       0.976   0.699  -9.728  0.00  0.00    +0.016 A 
ATOM     18  C   UNL     1       1.839   0.084 -10.616  0.00  0.00    +0.090 A 
ATOM     19  C   UNL     1       2.973  -0.564 -10.153  0.00  0.00    +0.136 A 
ATOM     20  C   UNL     1       3.250  -0.593  -8.799  0.00  0.00    +0.052 A 
ATOM     21  F   UNL     1       3.812  -1.163 -11.026  0.00  0.00    -0.205 F 
BRANCH  18  22
ATOM     22  C   UNL     1       1.546   0.118 -12.094  0.00  0.00    +0.420 C 
ATOM     23  F   UNL     1       0.358   0.823 -12.317  0.00  0.00    -0.166 F 
ATOM     24  F   UNL     1       2.597   0.754 -12.764  0.00  0.00    -0.166 F 
ATOM     25  F   UNL     1       1.410  -1.189 -12.573  0.00  0.00    -0.166 F 
ENDBRANCH  18  22
ENDBRANCH  11  15
BRANCH   1  27
ATOM     26  N   UNL     1      -0.636  -0.471  -1.373  0.00  0.00    -0.312 N 
ATOM     27  C   UNL     1      -0.008   0.237  -2.332  0.00  0.00    +0.218 C 
ATOM     28  O   UNL     1       0.102   1.440  -2.223  0.00  0.00    -0.275 OA
ATOM     29  H   UNL     1      -0.724  -1.433  -1.459  0.00  0.00    +0.149 HD
BRANCH  26  31
ATOM     30  C   UNL     1      -0.087   0.383   0.852  0.00  0.00    +0.028 C 
ATOM     31  C   UNL     1      -1.185   0.212  -0.199  0.00  0.00    +0.075 C 
BRANCH  31  32
ATOM     32  C   UNL     1      -2.327  -0.621   0.388  0.00  0.00    -0.020 C 
ATOM     33  C   UNL     1      -2.901   0.092   1.614  0.00  0.00    +0.012 C 
ATOM     34  C   UNL     1      -3.425  -0.793  -0.663  0.00  0.00    +0.012 C 
ATOM     35  C   UNL     1      -1.796  -1.996   0.800  0.00  0.00    +0.012 C 
ENDBRANCH  31  32
ENDBRANCH  26  31
ENDBRANCH   1  27
TORSDOF 5
