REMARK  Name = ZINC65182103
REMARK  7 active torsions:
REMARK  status: ('A' for Active; 'I' for Inactive)
REMARK    1  A    between atoms: C_1  and  C_2
REMARK    2  A    between atoms: C_7  and  C_12
REMARK    3  A    between atoms: C_15  and  C_18
REMARK    4  A    between atoms: C_18  and  C_19
REMARK    5  A    between atoms: C_19  and  N_20
REMARK    6  A    between atoms: N_20  and  C_21
REMARK    7  A    between atoms: C_22  and  C_24
REMARK                            x       y       z     vdW  Elec       q    Type
REMARK                         _______ _______ _______ _____ _____    ______ ____
ROOT
ATOM      1  C   UNL     1       0.543  -5.726   1.312  0.00  0.00    +0.318 C 
ATOM      2  N   UNL     1       0.930  -7.023   0.736  0.00  0.00    -0.291 N 
ATOM      3  C   UNL     1       2.084  -6.812   0.018  0.00  0.00    +0.139 C 
ATOM      4  N   UNL     1       2.455  -5.585   0.073  0.00  0.00    -0.072 NA
ATOM      5  O   UNL     1       1.560  -4.817   0.860  0.00  0.00    -0.367 OA
ATOM      6  H   UNL     1       0.461  -7.866   0.841  0.00  0.00    +0.151 HD
ENDROOT
BRANCH   1  13
ATOM      7  C   UNL     1      -2.079   0.263  -1.355  0.00  0.00    +0.044 C 
ATOM      8  C   UNL     1      -1.736  -1.195  -1.185  0.00  0.00    -0.050 A 
ATOM      9  C   UNL     1      -1.503  -1.978  -2.324  0.00  0.00    +0.005 A 
ATOM     10  C   UNL     1      -1.190  -3.289  -2.256  0.00  0.00    +0.026 A 
ATOM     11  C   UNL     1      -1.084  -3.938  -0.995  0.00  0.00    +0.043 A 
ATOM     12  N   UNL     1      -0.800  -5.176  -0.671  0.00  0.00    -0.373 N 
ATOM     13  C   UNL     1      -0.829  -5.296   0.791  0.00  0.00    +0.165 C 
ATOM     14  C   UNL     1      -1.180  -3.921   1.313  0.00  0.00    +0.012 C 
ATOM     15  C   UNL     1      -1.326  -3.132   0.224  0.00  0.00    -0.004 A 
ATOM     16  C   UNL     1      -1.655  -1.711   0.062  0.00  0.00    +0.013 A 
ATOM     17  H   UNL     1      -0.604  -5.893  -1.294  0.00  0.00    +0.160 HD
ENDBRANCH   1  13
BRANCH   3  18
ATOM     18  C   UNL     1       2.822  -7.887  -0.737  0.00  0.00    +0.094 C 
BRANCH  18  19
ATOM     19  C   UNL     1       4.055  -7.283  -1.411  0.00  0.00    +0.115 C 
BRANCH  19  20
ATOM     20  N   UNL     1       4.772  -8.328  -2.146  0.00  0.00    -0.298 N 
ATOM     21  C   UNL     1       4.441  -8.597  -3.547  0.00  0.00    +0.132 C 
ATOM     22  C   UNL     1       5.736  -9.043  -1.532  0.00  0.00    +0.282 C 
ATOM     23  O   UNL     1       5.945  -8.887  -0.343  0.00  0.00    -0.267 OA
BRANCH  22  24
ATOM     24  C   UNL     1       6.532 -10.007  -2.296  0.00  0.00    +0.191 A 
ATOM     25  C   UNL     1       7.451 -10.876  -1.781  0.00  0.00    +0.056 A 
ATOM     26  C   UNL     1       7.969 -11.605  -2.862  0.00  0.00    +0.058 A 
ATOM     27  C   UNL     1       7.351 -11.153  -3.978  0.00  0.00    +0.171 A 
ATOM     28  O   UNL     1       6.482 -10.195  -3.632  0.00  0.00    -0.444 OA
ATOM     29 BR   UNL     1       7.658 -11.779  -5.736  0.00  0.00    -0.008 Br
ENDBRANCH  22  24
ENDBRANCH  19  20
ENDBRANCH  18  19
ENDBRANCH   3  18
TORSDOF 5
