REMARK  Name = ZINC63491408
REMARK  12 active torsions:
REMARK  status: ('A' for Active; 'I' for Inactive)
REMARK    1  A    between atoms: C_1  and  C_2
REMARK    2  A    between atoms: C_7  and  O_32
REMARK    3  A    between atoms: C_13  and  C_15
REMARK    4  A    between atoms: C_15  and  C_16
REMARK    5  A    between atoms: N_18  and  C_19
REMARK    6  A    between atoms: C_19  and  C_20
REMARK    7  A    between atoms: C_20  and  C_21
REMARK    8  A    between atoms: C_25  and  O_30
REMARK    9  A    between atoms: O_30  and  C_31
REMARK   10  A    between atoms: O_32  and  C_33
REMARK   11  A    between atoms: C_33  and  C_34
REMARK   12  A    between atoms: C_34  and  C_36
REMARK                            x       y       z     vdW  Elec       q    Type
REMARK                         _______ _______ _______ _____ _____    ______ ____
ROOT
ATOM      1  C   UNL     1       1.114  -1.984   1.061  0.00  0.00    +0.111 C 
ENDROOT
BRANCH   1  13
ATOM      2  C   UNL     1      -0.019   1.526   0.010  0.00  0.00    +0.013 C 
ATOM      3  C   UNL     1       0.002  -0.004   0.002  0.00  0.00    +0.034 C 
ATOM      4  C   UNL     1      -1.413  -0.524   0.009  0.00  0.00    +0.000 A 
ATOM      5  C   UNL     1      -2.113  -0.549  -1.188  0.00  0.00    +0.031 A 
ATOM      6  C   UNL     1      -3.413  -1.010  -1.230  0.00  0.00    +0.083 A 
ATOM      7  C   UNL     1      -4.029  -1.452  -0.066  0.00  0.00    +0.143 A 
ATOM      8  C   UNL     1      -3.333  -1.432   1.131  0.00  0.00    +0.093 A 
ATOM      9  C   UNL     1      -2.021  -0.971   1.169  0.00  0.00    +0.139 A 
ATOM     10  O   UNL     1      -1.367  -0.986   2.362  0.00  0.00    -0.425 OA
ATOM     11  C   UNL     1      -0.179  -0.353   2.429  0.00  0.00    +0.316 C 
ATOM     12  O   UNL     1       0.133   0.308   3.392  0.00  0.00    -0.250 OA
ATOM     13  C   UNL     1       0.747  -0.510   1.241  0.00  0.00    +0.114 C 
ATOM     14 CL   UNL     1      -4.279  -1.037  -2.734  0.00  0.00    -0.080 Cl
BRANCH   7  15
ATOM     15  O   UNL     1      -5.311  -1.903  -0.101  0.00  0.00    -0.486 OA
BRANCH  15  16
ATOM     16  C   UNL     1      -5.878  -2.342   1.135  0.00  0.00    +0.259 C 
BRANCH  16  17
ATOM     17  C   UNL     1      -7.294  -2.803   0.901  0.00  0.00    -0.043 C 
ATOM     18  C   UNL     1      -7.808  -2.757  -0.303  0.00  0.00    +0.011 C 
ATOM     19  C   UNL     1      -8.118  -3.318   2.053  0.00  0.00    +0.042 C 
ENDBRANCH  16  17
ENDBRANCH  15  16
ENDBRANCH   7  15
ENDBRANCH   1  13
BRANCH   1  20
ATOM     20  C   UNL     1       1.951  -2.440   2.228  0.00  0.00    +0.214 C 
ATOM     21  O   UNL     1       2.227  -1.662   3.117  0.00  0.00    -0.276 OA
ATOM     22  N   UNL     1       2.393  -3.712   2.284  0.00  0.00    -0.315 N 
ATOM     23  H   UNL     1       2.173  -4.334   1.574  0.00  0.00    +0.149 HD
BRANCH  22  24
ATOM     24  C   UNL     1       3.207  -4.155   3.419  0.00  0.00    +0.108 C 
BRANCH  24  25
ATOM     25  C   UNL     1       3.574  -5.629   3.239  0.00  0.00    +0.052 C 
BRANCH  25  26
ATOM     26  C   UNL     1       4.411  -6.085   4.406  0.00  0.00    -0.040 C 
ATOM     27  C   UNL     1       3.976  -6.708   5.523  0.00  0.00    -0.001 A 
ATOM     28  C   UNL     1       2.641  -7.132   5.967  0.00  0.00    +0.013 A 
ATOM     29  C   UNL     1       2.512  -7.748   7.162  0.00  0.00    +0.046 A 
ATOM     30  C   UNL     1       3.624  -7.993   7.990  0.00  0.00    +0.122 A 
ATOM     31  C   UNL     1       4.885  -7.629   7.645  0.00  0.00    +0.071 A 
ATOM     32  C   UNL     1       5.130  -6.977   6.411  0.00  0.00    +0.046 A 
ATOM     33  N   UNL     1       6.238  -6.535   5.862  0.00  0.00    -0.380 N 
ATOM     34  C   UNL     1       5.909  -5.942   4.560  0.00  0.00    +0.144 C 
ATOM     35  H   UNL     1       7.125  -6.593   6.250  0.00  0.00    +0.160 HD
BRANCH  30  36
ATOM     36  O   UNL     1       3.427  -8.615   9.179  0.00  0.00    -0.495 OA
ATOM     37  C   UNL     1       2.084  -8.981   9.505  0.00  0.00    +0.277 C 
ENDBRANCH  30  36
ENDBRANCH  25  26
ENDBRANCH  24  25
ENDBRANCH  22  24
ENDBRANCH   1  20
TORSDOF 9
