REMARK  Name = ZINC08705850
REMARK  8 active torsions:
REMARK  status: ('A' for Active; 'I' for Inactive)
REMARK    1  A    between atoms: C_5  and  N_7
REMARK    2  A    between atoms: N_7  and  S_8
REMARK    3  A    between atoms: S_8  and  C_11
REMARK    4  A    between atoms: C_14  and  C_17
REMARK    5  A    between atoms: N_19  and  C_20
REMARK    6  A    between atoms: C_20  and  C_21
REMARK    7  A    between atoms: C_21  and  C_23
REMARK    8  A    between atoms: C_21  and  N_56
REMARK                            x       y       z     vdW  Elec       q    Type
REMARK                         _______ _______ _______ _____ _____    ______ ____
ROOT
ATOM      1  C   UNL     1      -1.112  -2.310   2.506  0.00  0.00    +0.109 A 
ATOM      2  C   UNL     1       0.136  -2.278   3.102  0.00  0.00    +0.029 A 
ATOM      3  C   UNL     1       0.253  -2.019   4.452  0.00  0.00    +0.015 A 
ATOM      4  C   UNL     1      -0.892  -1.800   5.219  0.00  0.00    +0.037 A 
ATOM      5  C   UNL     1      -2.149  -1.839   4.613  0.00  0.00    +0.015 A 
ATOM      6  C   UNL     1      -2.251  -2.094   3.261  0.00  0.00    +0.029 A 
ENDROOT
BRANCH   4   7
ATOM      7  C   UNL     1      -0.774  -1.527   6.667  0.00  0.00    +0.244 C 
ATOM      8  O   UNL     1      -1.773  -1.336   7.333  0.00  0.00    -0.270 OA
ATOM      9  N   UNL     1       0.441  -1.490   7.250  0.00  0.00    -0.312 N 
ATOM     10  H   UNL     1       1.238  -1.642   6.718  0.00  0.00    +0.149 HD
BRANCH   9  11
ATOM     11  C   UNL     1       0.557  -1.219   8.685  0.00  0.00    +0.097 C 
BRANCH  11  12
ATOM     12  C   UNL     1       2.035  -1.107   9.064  0.00  0.00    +0.016 C 
BRANCH  12  17
ATOM     13  C   UNL     1       1.585  -2.057  11.261  0.00  0.00    -0.078 C 
ATOM     14  C   UNL     1       2.247  -1.937  12.656  0.00  0.00    -0.020 C 
ATOM     15  C   UNL     1       3.679  -1.462  12.320  0.00  0.00    -0.020 C 
ATOM     16  C   UNL     1       3.573  -0.822  10.923  0.00  0.00    -0.078 C 
ATOM     17  N   UNL     1       2.163  -0.912  10.540  0.00  0.00    +0.387 N 
ATOM     18  H   UNL     1       1.675  -0.050  10.809  0.00  0.00    -0.081 HD
ENDBRANCH  12  17
BRANCH  12  19
ATOM     19  C   UNL     1       2.652   0.062   8.342  0.00  0.00    +0.093 A 
ATOM     20  C   UNL     1       3.400  -0.008   7.226  0.00  0.00    +0.043 A 
ATOM     21  C   UNL     1       3.768   1.317   6.896  0.00  0.00    +0.041 A 
ATOM     22  C   UNL     1       3.223   2.117   7.829  0.00  0.00    +0.195 A 
ATOM     23  O   UNL     1       2.543   1.352   8.699  0.00  0.00    -0.469 OA
ENDBRANCH  12  19
ENDBRANCH  11  12
ENDBRANCH   9  11
ENDBRANCH   4   7
BRANCH   1  24
ATOM     24  S   UNL     1      -1.252  -2.635   0.780  0.00  0.00    +0.072 S 
ATOM     25  O   UNL     1      -2.557  -3.157   0.570  0.00  0.00    -0.150 OA
ATOM     26  O   UNL     1      -0.079  -3.343   0.404  0.00  0.00    -0.150 OA
BRANCH  24  27
ATOM     27  N   UNL     1      -1.195  -1.175   0.001  0.00  0.00    -0.213 N 
ATOM     28  H   UNL     1      -1.942  -0.889  -0.548  0.00  0.00    +0.174 HD
BRANCH  27  33
ATOM     29  C   UNL     1       2.305  -0.107   0.354  0.00  0.00    +0.002 A 
ATOM     30  C   UNL     1       2.158   1.267   0.393  0.00  0.00    +0.003 A 
ATOM     31  C   UNL     1       0.900   1.834   0.302  0.00  0.00    +0.040 A 
ATOM     32  C   UNL     1      -0.215   1.027   0.172  0.00  0.00    +0.146 A 
ATOM     33  C   UNL     1      -0.070  -0.356   0.133  0.00  0.00    +0.083 A 
ATOM     34  C   UNL     1       1.195  -0.920   0.225  0.00  0.00    +0.027 A 
ATOM     35  F   UNL     1      -1.444   1.581   0.077  0.00  0.00    -0.204 F 
ENDBRANCH  27  33
ENDBRANCH  24  27
ENDBRANCH   1  24
TORSDOF 8
