REMARK  Name = ZINC40291456
REMARK  7 active torsions:
REMARK  status: ('A' for Active; 'I' for Inactive)
REMARK    1  A    between atoms: C_1  and  C_2
REMARK    2  A    between atoms: C_6  and  O_8
REMARK    3  A    between atoms: O_8  and  C_9
REMARK    4  A    between atoms: C_10  and  C_17
REMARK    5  A    between atoms: C_11  and  C_16
REMARK    6  A    between atoms: C_12  and  C_15
REMARK    7  A    between atoms: C_17  and  N_19
REMARK                            x       y       z     vdW  Elec       q    Type
REMARK                         _______ _______ _______ _____ _____    ______ ____
ROOT
ATOM      1  C   UNL     1       0.083  -2.043   3.510  0.00  0.00    +0.250 A 
ATOM      2  C   UNL     1       0.188  -2.731   4.732  0.00  0.00    +0.071 A 
ATOM      3  C   UNL     1       0.364  -1.968   5.894  0.00  0.00    -0.013 A 
ATOM      4  C   UNL     1       0.424  -0.591   5.761  0.00  0.00    +0.064 A 
ATOM      5  N   UNL     1       0.315  -0.035   4.570  0.00  0.00    -0.151 NA
ATOM      6  N   UNL     1       0.159  -0.721   3.497  0.00  0.00    -0.110 NA
ATOM      7  C   UNL     1       0.612   0.275   6.980  0.00  0.00    +0.068 C 
ATOM      8  C   UNL     1       0.485  -2.625   7.244  0.00  0.00    +0.046 C 
ENDROOT
BRANCH   2   9
ATOM      9  C   UNL     1       0.114  -4.204   4.788  0.00  0.00    +0.082 C 
ATOM     10  S   UNL     1       1.550  -5.135   4.757  0.00  0.00    -0.035 S 
BRANCH   9  11
ATOM     11  N   UNL     1      -1.085  -4.816   4.865  0.00  0.00    -0.352 N 
ATOM     12  H   UNL     1      -1.900  -4.294   4.808  0.00  0.00    +0.143 HD
ATOM     13  H   UNL     1      -1.131  -5.778   4.977  0.00  0.00    +0.143 HD
ENDBRANCH   9  11
ENDBRANCH   2   9
BRANCH   1  14
ATOM     14  O   UNL     1      -0.089  -2.728   2.353  0.00  0.00    -0.435 OA
BRANCH  14  20
ATOM     15  C   UNL     1      -2.637  -0.432  -1.119  0.00  0.00    +0.044 C 
ATOM     16  C   UNL     1      -1.327  -0.888  -0.531  0.00  0.00    -0.047 A 
ATOM     17  C   UNL     1      -0.140  -0.590  -1.175  0.00  0.00    +0.005 A 
ATOM     18  C   UNL     1       1.064  -1.007  -0.640  0.00  0.00    +0.024 A 
ATOM     19  C   UNL     1       1.085  -1.724   0.542  0.00  0.00    +0.083 A 
ATOM     20  C   UNL     1      -0.105  -2.024   1.191  0.00  0.00    +0.149 A 
ATOM     21  C   UNL     1      -1.312  -1.599   0.654  0.00  0.00    +0.051 A 
ATOM     22 CL   UNL     1       2.597  -2.249   1.215  0.00  0.00    -0.080 Cl
ENDBRANCH  14  20
ENDBRANCH   1  14
TORSDOF 4
