REMARK  Name = ZINC44890857
REMARK  3 active torsions:
REMARK  status: ('A' for Active; 'I' for Inactive)
REMARK    1  A    between atoms: C_1  and  C_2
REMARK    2  A    between atoms: C_7  and  C_8
REMARK    3  A    between atoms: C_11  and  C_26
REMARK                            x       y       z     vdW  Elec       q    Type
REMARK                         _______ _______ _______ _____ _____    ______ ____
ROOT
ATOM      1  C   UNL     1      -0.121   0.447   1.984  0.00  0.00    +0.112 C 
ATOM      2  C   UNL     1       1.204   0.809   2.580  0.00  0.00    +0.033 A 
ATOM      3  C   UNL     1       2.367   0.047   2.337  0.00  0.00    +0.067 A 
ATOM      4  N   UNL     1       3.365   0.589   2.973  0.00  0.00    -0.168 NA
ATOM      5  N   UNL     1       2.893   1.715   3.647  0.00  0.00    -0.200 N 
ATOM      6  C   UNL     1       1.543   1.833   3.393  0.00  0.00    +0.135 A 
ATOM      7  N   UNL     1       0.804   2.855   3.938  0.00  0.00    -0.269 N 
ATOM      8  C   UNL     1      -0.432   3.244   3.846  0.00  0.00    +0.228 C 
ATOM      9  O   UNL     1      -0.682   4.284   4.417  0.00  0.00    -0.275 OA
ATOM     10  C   UNL     1      -1.581   2.621   3.156  0.00  0.00    +0.166 C 
ATOM     11  S   UNL     1      -1.131   1.875   1.583  0.00  0.00    -0.138 S 
ATOM     12  C   UNL     1       3.655   2.574   4.443  0.00  0.00    +0.156 A 
ATOM     13  C   UNL     1       4.822   2.108   5.037  0.00  0.00    +0.048 A 
ATOM     14  C   UNL     1       5.568   2.969   5.822  0.00  0.00    +0.005 A 
ATOM     15  C   UNL     1       5.118   4.272   5.987  0.00  0.00    +0.020 A 
ATOM     16  C   UNL     1       3.949   4.667   5.367  0.00  0.00    +0.113 A 
ATOM     17  N   UNL     1       3.262   3.825   4.620  0.00  0.00    -0.236 NA
ATOM     18  C   UNL     1       2.441  -1.191   1.481  0.00  0.00    +0.068 C 
ATOM     19  H   UNL     1       1.328   3.417   4.530  0.00  0.00    +0.156 HD
ENDROOT
BRANCH   1  26
ATOM     20  C   UNL     1      -0.832  -2.352   1.883  0.00  0.00    +0.044 C 
ATOM     21  C   UNL     1      -0.224  -1.685   0.676  0.00  0.00    -0.046 A 
ATOM     22  C   UNL     1      -0.011  -2.411  -0.481  0.00  0.00    +0.003 A 
ATOM     23  C   UNL     1       0.547  -1.800  -1.588  0.00  0.00    +0.000 A 
ATOM     24  C   UNL     1       0.892  -0.462  -1.538  0.00  0.00    +0.000 A 
ATOM     25  C   UNL     1       0.679   0.264  -0.382  0.00  0.00    +0.005 A 
ATOM     26  C   UNL     1       0.117  -0.346   0.724  0.00  0.00    -0.027 A 
ENDBRANCH   1  26
TORSDOF 1
