REMARK  Name = ZINC64870810
REMARK  10 active torsions:
REMARK  status: ('A' for Active; 'I' for Inactive)
REMARK    1  A    between atoms: C_1  and  C_2
REMARK    2  A    between atoms: C_2  and  C_3
REMARK    3  A    between atoms: C_2  and  O_4
REMARK    4  A    between atoms: O_4  and  C_5
REMARK    5  A    between atoms: C_8  and  C_11
REMARK    6  A    between atoms: C_14  and  C_18
REMARK    7  A    between atoms: N_28  and  C_31
REMARK    8  A    between atoms: C_31  and  C_32
REMARK    9  A    between atoms: C_32  and  C_33
REMARK   10  A    between atoms: C_33  and  C_34
REMARK                            x       y       z     vdW  Elec       q    Type
REMARK                         _______ _______ _______ _____ _____    ______ ____
ROOT
ATOM      1  C   UNL     1      -4.317  -6.695  -4.887  0.00  0.00    -0.000 A 
ATOM      2  C   UNL     1      -4.783  -5.441  -5.253  0.00  0.00    +0.008 A 
ATOM      3  C   UNL     1      -5.700  -5.308  -6.274  0.00  0.00    +0.016 A 
ATOM      4  C   UNL     1      -6.158  -6.444  -6.937  0.00  0.00    +0.063 A 
ATOM      5  C   UNL     1      -5.686  -7.715  -6.565  0.00  0.00    +0.056 A 
ATOM      6  C   UNL     1      -4.759  -7.828  -5.540  0.00  0.00    +0.034 A 
ATOM      7  N   UNL     1      -6.159  -8.828  -7.244  0.00  0.00    -0.307 N 
ATOM      8  H   UNL     1      -5.842  -9.711  -6.997  0.00  0.00    +0.170 HD
ATOM      9  C   UNL     1      -7.053  -8.695  -8.239  0.00  0.00    +0.330 A 
ATOM     10  O   UNL     1      -7.443  -9.697  -8.808  0.00  0.00    -0.246 OA
ATOM     11  N   UNL     1      -7.534  -7.505  -8.630  0.00  0.00    -0.261 N 
ATOM     12  C   UNL     1      -7.138  -6.359  -8.035  0.00  0.00    +0.264 A 
ATOM     13  O   UNL     1      -7.578  -5.285  -8.396  0.00  0.00    -0.267 OA
ENDROOT
BRANCH   1  16
ATOM     14  C   UNL     1      -2.167  -5.641  -2.132  0.00  0.00    +0.180 C 
ATOM     15  N   UNL     1      -3.503  -5.729  -2.779  0.00  0.00    -0.265 NA
ATOM     16  C   UNL     1      -3.314  -6.821  -3.769  0.00  0.00    +0.242 C 
ATOM     17  O   UNL     1      -1.977  -6.637  -4.269  0.00  0.00    -0.274 OA
ATOM     18  N   UNL     1      -1.221  -5.901  -3.242  0.00  0.00    -0.177 NA
ATOM     19  H   UNL     1      -4.216  -5.970  -2.106  0.00  0.00    +0.127 HD
ATOM     20  H   UNL     1      -0.426  -6.435  -2.923  0.00  0.00    +0.156 HD
BRANCH  14  24
ATOM     21  C   UNL     1      -1.538  -1.739  -0.505  0.00  0.00    +0.121 A 
ATOM     22  C   UNL     1      -0.465  -2.468  -0.997  0.00  0.00    +0.046 A 
ATOM     23  C   UNL     1      -0.671  -3.729  -1.522  0.00  0.00    +0.010 A 
ATOM     24  C   UNL     1      -1.945  -4.265  -1.558  0.00  0.00    -0.014 A 
ATOM     25  C   UNL     1      -3.017  -3.540  -1.070  0.00  0.00    +0.010 A 
ATOM     26  C   UNL     1      -2.815  -2.281  -0.538  0.00  0.00    +0.046 A 
BRANCH  21  27
ATOM     27  O   UNL     1      -1.339  -0.499   0.012  0.00  0.00    -0.489 OA
BRANCH  27  29
ATOM     28  C   UNL     1      -1.982   1.168   1.640  0.00  0.00    +0.051 C 
ATOM     29  C   UNL     1      -2.466   0.143   0.612  0.00  0.00    +0.167 C 
ATOM     30  C   UNL     1      -3.283   0.853  -0.469  0.00  0.00    +0.051 C 
ENDBRANCH  27  29
ENDBRANCH  21  27
ENDBRANCH  14  24
ENDBRANCH   1  16
BRANCH  11  31
ATOM     31  C   UNL     1      -8.507  -7.448  -9.724  0.00  0.00    +0.130 C 
BRANCH  31  32
ATOM     32  C   UNL     1      -9.922  -7.550  -9.153  0.00  0.00    +0.026 C 
BRANCH  32  33
ATOM     33  C   UNL     1     -10.938  -7.490 -10.295  0.00  0.00    +0.037 C 
BRANCH  33  34
ATOM     34  C   UNL     1     -12.333  -7.591  -9.733  0.00  0.00    -0.047 A 
ATOM     35  C   UNL     1     -12.926  -8.829  -9.572  0.00  0.00    +0.003 A 
ATOM     36  C   UNL     1     -14.205  -8.922  -9.056  0.00  0.00    +0.000 A 
ATOM     37  C   UNL     1     -14.891  -7.776  -8.701  0.00  0.00    +0.000 A 
ATOM     38  C   UNL     1     -14.298  -6.537  -8.861  0.00  0.00    +0.000 A 
ATOM     39  C   UNL     1     -13.017  -6.445  -9.373  0.00  0.00    +0.003 A 
ENDBRANCH  33  34
ENDBRANCH  32  33
ENDBRANCH  31  32
ENDBRANCH  11  31
TORSDOF 8
