REMARK  Name = ZINC53147973
REMARK  5 active torsions:
REMARK  status: ('A' for Active; 'I' for Inactive)
REMARK    1  A    between atoms: C_6  and  C_7
REMARK    2  A    between atoms: C_7  and  N_8
REMARK    3  A    between atoms: N_8  and  S_9
REMARK    4  A    between atoms: S_9  and  C_12
REMARK    5  A    between atoms: C_17  and  N_18
REMARK                            x       y       z     vdW  Elec       q    Type
REMARK                         _______ _______ _______ _____ _____    ______ ____
ROOT
ATOM      1  S   UNL     1      -2.836  -2.265  -1.732  0.00  0.00    +0.060 S 
ATOM      2  O   UNL     1      -3.037  -2.425  -3.129  0.00  0.00    -0.153 OA
ATOM      3  O   UNL     1      -2.368  -3.321  -0.903  0.00  0.00    -0.153 OA
ENDROOT
BRANCH   1   4
ATOM      4  C   UNL     1      -4.377  -1.742  -1.058  0.00  0.00    +0.126 A 
ATOM      5  C   UNL     1      -4.903  -2.385   0.046  0.00  0.00    +0.031 A 
ATOM      6  C   UNL     1      -6.112  -1.976   0.576  0.00  0.00    +0.017 A 
ATOM      7  C   UNL     1      -6.800  -0.920   0.003  0.00  0.00    +0.020 A 
ATOM      8  C   UNL     1      -6.280  -0.273  -1.101  0.00  0.00    +0.040 A 
ATOM      9  C   UNL     1      -5.062  -0.679  -1.632  0.00  0.00    +0.052 A 
ATOM     10 BR   UNL     1      -8.454  -0.364   0.731  0.00  0.00    -0.050 Br
BRANCH   9  11
ATOM     11  N   UNL     1      -4.530  -0.024  -2.745  0.00  0.00    -0.356 N 
ATOM     12  H   UNL     1      -3.642  -0.250  -3.062  0.00  0.00    +0.142 HD
ATOM     13  H   UNL     1      -5.049   0.657  -3.201  0.00  0.00    +0.142 HD
ENDBRANCH   9  11
ENDBRANCH   1   4
BRANCH   1  14
ATOM     14  N   UNL     1      -1.770  -1.011  -1.547  0.00  0.00    -0.186 NA
ATOM     15  H   UNL     1      -1.405  -0.566  -2.328  0.00  0.00    +0.148 HD
BRANCH  14  16
ATOM     16  C   UNL     1      -1.378  -0.574  -0.205  0.00  0.00    +0.141 C 
BRANCH  16  22
ATOM     17  C   UNL     1      -0.282   1.662  -0.454  0.00  0.00    +0.008 A 
ATOM     18  C   UNL     1       0.843   2.460  -0.539  0.00  0.00    +0.040 A 
ATOM     19  C   UNL     1       2.103   1.891  -0.469  0.00  0.00    +0.142 A 
ATOM     20  C   UNL     1       2.234   0.520  -0.313  0.00  0.00    +0.076 A 
ATOM     21  C   UNL     1       1.107  -0.277  -0.228  0.00  0.00    +0.027 A 
ATOM     22  C   UNL     1      -0.150   0.294  -0.298  0.00  0.00    -0.030 A 
ATOM     23 CL   UNL     1       3.813  -0.197  -0.226  0.00  0.00    -0.081 Cl
ATOM     24  F   UNL     1       3.203   2.670  -0.553  0.00  0.00    -0.204 F 
ENDBRANCH  16  22
ENDBRANCH  14  16
ENDBRANCH   1  14
TORSDOF 5
