REMARK  Name = ZINC20764672
REMARK  11 active torsions:
REMARK  status: ('A' for Active; 'I' for Inactive)
REMARK    1  A    between atoms: C_1  and  C_2
REMARK    2  A    between atoms: C_2  and  O_3
REMARK    3  A    between atoms: O_3  and  C_4
REMARK    4  A    between atoms: C_8  and  C_11
REMARK    5  A    between atoms: C_9  and  O_10
REMARK    6  A    between atoms: C_14  and  C_29
REMARK    7  A    between atoms: C_16  and  C_19
REMARK    8  A    between atoms: C_22  and  C_25
REMARK    9  A    between atoms: C_25  and  O_27
REMARK   10  A    between atoms: O_27  and  C_28
REMARK   11  A    between atoms: C_32  and  C_35
REMARK                            x       y       z     vdW  Elec       q    Type
REMARK                         _______ _______ _______ _____ _____    ______ ____
ROOT
ATOM      1  C   UNL     1      -0.730   1.580   1.268  0.00  0.00    -0.028 C 
ATOM      2  C   UNL     1      -0.013   1.086   0.008  0.00  0.00    +0.044 C 
ATOM      3  C   UNL     1      -0.740   1.584  -1.210  0.00  0.00    +0.040 C 
ATOM      4  N   UNL     1      -1.603   2.528  -1.172  0.00  0.00    -0.299 NA
ATOM      5  C   UNL     1      -1.996   3.228   0.045  0.00  0.00    +0.081 C 
ATOM      6  N   UNL     1      -1.005   3.018   1.107  0.00  0.00    +0.401 N 
ATOM      7  H   UNL     1      -1.397   3.424   2.051  0.00  0.00    -0.081 HD
ATOM      8  H   UNL     1      -0.075   3.542   0.841  0.00  0.00    -0.081 HD
ENDROOT
BRANCH   3   9
ATOM      9  C   UNL     1      -0.445   0.953  -2.512  0.00  0.00    -0.004 A 
ATOM     10  C   UNL     1       0.494  -0.077  -2.595  0.00  0.00    +0.010 A 
ATOM     11  C   UNL     1       0.761  -0.665  -3.814  0.00  0.00    +0.004 A 
ATOM     12  C   UNL     1       0.109  -0.230  -4.954  0.00  0.00    -0.050 A 
ATOM     13  C   UNL     1      -0.819   0.794  -4.879  0.00  0.00    +0.004 A 
ATOM     14  C   UNL     1      -1.099   1.388  -3.666  0.00  0.00    +0.010 A 
ATOM     15  C   UNL     1       0.410  -0.873  -6.283  0.00  0.00    +0.044 C 
ENDBRANCH   3   9
BRANCH   1  20
ATOM     16  C   UNL     1       1.044  -0.090   4.166  0.00  0.00    +0.162 A 
ATOM     17  C   UNL     1       1.771   0.969   4.686  0.00  0.00    +0.049 A 
ATOM     18  C   UNL     1       1.687   2.219   4.100  0.00  0.00    +0.004 A 
ATOM     19  C   UNL     1       0.883   2.413   2.992  0.00  0.00    +0.006 A 
ATOM     20  C   UNL     1       0.150   1.362   2.472  0.00  0.00    -0.016 A 
ATOM     21  C   UNL     1       0.230   0.108   3.055  0.00  0.00    +0.160 A 
BRANCH  21  22
ATOM     22  O   UNL     1      -0.485  -0.929   2.541  0.00  0.00    -0.503 OA
ATOM     23  H   UNL     1      -1.128  -0.771   1.663  0.00  0.00    +0.292 HD
ENDBRANCH  21  22
BRANCH  16  24
ATOM     24  O   UNL     1       1.125  -1.319   4.742  0.00  0.00    -0.489 OA
BRANCH  24  26
ATOM     25  C   UNL     1       1.941  -2.891   6.386  0.00  0.00    +0.048 C 
ATOM     26  C   UNL     1       1.980  -1.448   5.880  0.00  0.00    +0.226 C 
ENDBRANCH  24  26
ENDBRANCH  16  24
ENDBRANCH   1  20
BRANCH   5  27
ATOM     27  C   UNL     1      -2.107   4.703  -0.245  0.00  0.00    -0.040 A 
ATOM     28  C   UNL     1      -1.856   5.623   0.757  0.00  0.00    +0.004 A 
ATOM     29  C   UNL     1      -1.951   6.974   0.497  0.00  0.00    +0.015 A 
ATOM     30  C   UNL     1      -2.313   7.413  -0.778  0.00  0.00    +0.059 A 
ATOM     31  C   UNL     1      -2.570   6.479  -1.784  0.00  0.00    +0.015 A 
ATOM     32  C   UNL     1      -2.466   5.131  -1.511  0.00  0.00    +0.004 A 
BRANCH  30  33
ATOM     33  C   UNL     1      -2.422   8.858  -1.062  0.00  0.00    +0.339 C 
ATOM     34  O   UNL     1      -2.736   9.237  -2.173  0.00  0.00    -0.245 OA
BRANCH  33  35
ATOM     35  O   UNL     1      -2.173   9.757  -0.090  0.00  0.00    -0.464 OA
ATOM     36  C   UNL     1      -2.300  11.160  -0.441  0.00  0.00    +0.280 C 
ENDBRANCH  33  35
ENDBRANCH  30  33
ENDBRANCH   5  27
TORSDOF 8
