REMARK  Name = ZINC54726364
REMARK  14 active torsions:
REMARK  status: ('A' for Active; 'I' for Inactive)
REMARK    1  A    between atoms: C_1  and  C_2
REMARK    2  A    between atoms: C_4  and  C_25
REMARK    3  A    between atoms: N_6  and  C_8
REMARK    4  A    between atoms: C_8  and  C_9
REMARK    5  A    between atoms: C_8  and  C_10
REMARK    6  A    between atoms: C_8  and  C_11
REMARK    7  A    between atoms: C_11  and  N_12
REMARK    8  A    between atoms: N_15  and  C_16
REMARK    9  A    between atoms: N_15  and  C_17
REMARK   10  A    between atoms: C_17  and  C_18
REMARK   11  A    between atoms: N_20  and  C_21
REMARK   12  A    between atoms: C_21  and  C_22
REMARK   13  A    between atoms: C_21  and  C_23
REMARK   14  A    between atoms: C_21  and  C_24
REMARK                            x       y       z     vdW  Elec       q    Type
REMARK                         _______ _______ _______ _____ _____    ______ ____
ROOT
ATOM      1  N   UNL     1       2.806  -0.371   2.299  0.00  0.00    -0.301 N 
ATOM      2  C   UNL     1       3.888   0.404   2.081  0.00  0.00    +0.302 C 
ATOM      3  O   UNL     1       4.960  -0.108   1.825  0.00  0.00    -0.253 OA
ATOM      4  N   UNL     1       3.780   1.745   2.148  0.00  0.00    -0.280 N 
ATOM      5  C   UNL     1       2.487   2.362   2.457  0.00  0.00    +0.134 C 
ATOM      6  H   UNL     1       1.950   0.037   2.503  0.00  0.00    +0.150 HD
ENDROOT
BRANCH   1   7
ATOM      7  C   UNL     1       2.923  -1.829   2.226  0.00  0.00    +0.093 C 
BRANCH   7   8
ATOM      8  C   UNL     1       1.595  -2.469   2.635  0.00  0.00    -0.055 C 
ATOM      9  C   UNL     1       1.743  -3.992   2.642  0.00  0.00    -0.008 C 
ATOM     10  C   UNL     1       0.506  -2.067   1.639  0.00  0.00    -0.008 C 
BRANCH   8  16
ATOM     11  C   UNL     1       3.045  -2.192   7.303  0.00  0.00    +0.005 C 
ATOM     12  C   UNL     1       1.940  -1.815   6.315  0.00  0.00    -0.031 C 
ATOM     13  C   UNL     1       0.611  -2.417   6.781  0.00  0.00    +0.003 C 
ATOM     14  C   UNL     1      -0.473  -2.100   5.746  0.00  0.00    -0.031 C 
ATOM     15  C   UNL     1      -0.039  -2.639   4.381  0.00  0.00    -0.075 C 
ATOM     16  N   UNL     1       1.223  -2.007   3.979  0.00  0.00    +0.384 N 
ATOM     17  C   UNL     1       2.284  -2.365   4.929  0.00  0.00    -0.075 C 
ATOM     18  C   UNL     1      -0.668  -0.586   5.658  0.00  0.00    +0.005 C 
ATOM     19  H   UNL     1       1.107  -1.005   3.968  0.00  0.00    -0.081 HD
ENDBRANCH   8  16
ENDBRANCH   7   8
ENDBRANCH   1   7
BRANCH   4  20
ATOM     20  C   UNL     1       4.955   2.587   1.912  0.00  0.00    +0.204 C 
BRANCH  20  21
ATOM     21  C   UNL     1       5.048   2.920   0.445  0.00  0.00    +0.231 C 
ATOM     22  O   UNL     1       4.214   2.496  -0.327  0.00  0.00    -0.274 OA
ATOM     23  N   UNL     1       6.057   3.689  -0.009  0.00  0.00    -0.309 N 
ATOM     24  H   UNL     1       6.724   4.029   0.609  0.00  0.00    +0.149 HD
BRANCH  23  25
ATOM     25  C   UNL     1       6.148   4.013  -1.435  0.00  0.00    +0.026 C 
ATOM     26  C   UNL     1       4.887   4.764  -1.868  0.00  0.00    +0.031 C 
ATOM     27  C   UNL     1       7.375   4.892  -1.681  0.00  0.00    +0.031 C 
ATOM     28  C   UNL     1       6.275   2.721  -2.244  0.00  0.00    +0.031 C 
ENDBRANCH  23  25
ENDBRANCH  20  21
ENDBRANCH   4  20
TORSDOF 6
