REMARK  Name = ZINC39134118
REMARK  3 active torsions:
REMARK  status: ('A' for Active; 'I' for Inactive)
REMARK    1  A    between atoms: C_1  and  N_2
REMARK    2  A    between atoms: C_5  and  C_10
REMARK    3  A    between atoms: N_8  and  C_9
REMARK                            x       y       z     vdW  Elec       q    Type
REMARK                         _______ _______ _______ _____ _____    ______ ____
ROOT
ATOM      1  C   UNL     1      -0.018   1.461   0.010  0.00  0.00    +0.174 C 
ATOM      2  N   UNL     1       0.002  -0.004   0.002  0.00  0.00    -0.249 N 
ATOM      3  C   UNL     1       0.008  -0.788  -1.103  0.00  0.00    +0.288 A 
ATOM      4  O   UNL     1      -0.002  -0.399  -2.265  0.00  0.00    -0.265 OA
ATOM      5  C   UNL     1       0.029  -2.130  -0.677  0.00  0.00    +0.183 A 
ATOM      6  C   UNL     1       0.035  -2.120   0.730  0.00  0.00    +0.288 A 
ATOM      7  O   UNL     1       0.053  -3.104   1.460  0.00  0.00    -0.265 OA
ATOM      8  N   UNL     1       0.024  -0.826   1.134  0.00  0.00    -0.249 N 
ATOM      9  C   UNL     1       0.031  -0.365   2.525  0.00  0.00    +0.174 C 
ENDROOT
BRANCH   5  10
ATOM     10  C   UNL     1       0.041  -3.288  -1.519  0.00  0.00    +0.110 C 
ATOM     11  N   UNL     1       0.051  -4.207  -2.186  0.00  0.00    -0.191 NA
ENDBRANCH   5  10
TORSDOF 1
