REMARK  Name = ZINC19947896
REMARK  3 active torsions:
REMARK  status: ('A' for Active; 'I' for Inactive)
REMARK    1  A    between atoms: C_1  and  C_2
REMARK    2  A    between atoms: C_5  and  N_8
REMARK    3  A    between atoms: C_12  and  C_17
REMARK                            x       y       z     vdW  Elec       q    Type
REMARK                         _______ _______ _______ _____ _____    ______ ____
ROOT
ATOM      1  N   UNL     1       1.346   3.096  -0.807  0.00  0.00    -0.298 N 
ATOM      2  C   UNL     1      -0.041   3.540  -1.101  0.00  0.00    +0.127 C 
ATOM      3  C   UNL     1      -0.907   2.713  -0.112  0.00  0.00    +0.129 C 
ATOM      4  N   UNL     1      -0.183   1.422  -0.107  0.00  0.00    -0.269 N 
ATOM      5  C   UNL     1       1.238   1.830  -0.072  0.00  0.00    +0.208 C 
ATOM      6  C   UNL     1       1.989   0.682  -0.765  0.00  0.00    +0.067 C 
ATOM      7  C   UNL     1       1.082  -0.524  -0.413  0.00  0.00    +0.100 C 
ATOM      8  C   UNL     1      -0.286   0.091  -0.190  0.00  0.00    +0.218 C 
ATOM      9  O   UNL     1      -1.322  -0.533  -0.100  0.00  0.00    -0.276 OA
ENDROOT
BRANCH   1  14
ATOM     10  C   UNL     1       4.318   2.421  -5.590  0.00  0.00    +0.044 C 
ATOM     11  C   UNL     1       3.528   2.601  -4.319  0.00  0.00    -0.050 A 
ATOM     12  C   UNL     1       2.204   2.205  -4.268  0.00  0.00    +0.005 A 
ATOM     13  C   UNL     1       1.478   2.367  -3.105  0.00  0.00    +0.023 A 
ATOM     14  C   UNL     1       2.078   2.929  -1.985  0.00  0.00    +0.032 A 
ATOM     15  C   UNL     1       3.407   3.331  -2.042  0.00  0.00    +0.023 A 
ATOM     16  C   UNL     1       4.129   3.161  -3.206  0.00  0.00    +0.005 A 
ENDBRANCH   1  14
BRANCH   5  17
ATOM     17  C   UNL     1       1.708   1.983   1.351  0.00  0.00    +0.397 C 
ATOM     18  O   UNL     1       2.349   2.954   1.675  0.00  0.00    -0.242 OA
ATOM     19  O   UNL     1       1.414   1.040   2.260  0.00  0.00    -0.242 OA
ENDBRANCH   5  17
TORSDOF 2
