REMARK  Name = ZINC55992854
REMARK  5 active torsions:
REMARK  status: ('A' for Active; 'I' for Inactive)
REMARK    1  A    between atoms: C_1  and  C_2
REMARK    2  A    between atoms: C_2  and  C_4
REMARK    3  A    between atoms: C_2  and  N_23
REMARK    4  A    between atoms: C_10  and  C_12
REMARK    5  A    between atoms: N_14  and  C_15
REMARK                            x       y       z     vdW  Elec       q    Type
REMARK                         _______ _______ _______ _____ _____    ______ ____
ROOT
ATOM      1  C   UNL     1      -1.597  -0.564   0.490  0.00  0.00    +0.236 C 
ATOM      2  O   UNL     1      -2.115  -1.256   1.341  0.00  0.00    -0.274 OA
ATOM      3  N   UNL     1      -2.280  -0.243  -0.626  0.00  0.00    -0.288 N 
ATOM      4  C   UNL     1      -1.772   0.581  -1.738  0.00  0.00    +0.109 C 
ATOM      5  C   UNL     1      -2.612   0.151  -2.967  0.00  0.00    +0.021 C 
ATOM      6  C   UNL     1      -4.006  -0.079  -2.325  0.00  0.00    +0.033 C 
ATOM      7  C   UNL     1      -3.655  -0.661  -0.940  0.00  0.00    +0.162 C 
ENDROOT
BRANCH   7   8
ATOM      8  C   UNL     1      -3.736  -2.166  -0.977  0.00  0.00    +0.238 C 
ATOM      9  O   UNL     1      -2.746  -2.832  -0.763  0.00  0.00    -0.273 OA
ATOM     10  N   UNL     1      -4.910  -2.770  -1.248  0.00  0.00    -0.284 N 
ATOM     11  H   UNL     1      -5.718  -2.241  -1.343  0.00  0.00    +0.155 HD
BRANCH  10  12
ATOM     12  C   UNL     1      -4.964  -4.161  -1.391  0.00  0.00    +0.036 A 
ATOM     13  C   UNL     1      -6.098  -4.858  -0.995  0.00  0.00    +0.043 A 
ATOM     14  C   UNL     1      -6.149  -6.231  -1.139  0.00  0.00    +0.044 A 
ATOM     15  C   UNL     1      -5.071  -6.912  -1.677  0.00  0.00    +0.040 A 
ATOM     16  C   UNL     1      -3.940  -6.221  -2.072  0.00  0.00    +0.044 A 
ATOM     17  C   UNL     1      -3.886  -4.846  -1.936  0.00  0.00    +0.043 A 
ATOM     18 CL   UNL     1      -2.590  -7.079  -2.747  0.00  0.00    -0.083 Cl
ATOM     19 CL   UNL     1      -7.566  -7.103  -0.643  0.00  0.00    -0.083 Cl
ENDBRANCH  10  12
ENDBRANCH   7   8
BRANCH   1  21
ATOM     20  C   UNL     1      -0.185   1.466   0.673  0.00  0.00    +0.038 C 
ATOM     21  C   UNL     1      -0.188  -0.064   0.681  0.00  0.00    +0.157 C 
BRANCH  21  22
ATOM     22  N   UNL     1       0.332  -0.546   1.962  0.00  0.00    -0.289 N 
ATOM     23  C   UNL     1       1.661  -0.677   2.144  0.00  0.00    +0.298 C 
ATOM     24  O   UNL     1       2.428  -0.394   1.244  0.00  0.00    -0.253 OA
ATOM     25  N   UNL     1       2.140  -1.121   3.323  0.00  0.00    -0.313 N 
ATOM     26  H   UNL     1      -0.280  -0.772   2.680  0.00  0.00    +0.151 HD
ATOM     27  H   UNL     1       1.528  -1.347   4.041  0.00  0.00    +0.146 HD
ATOM     28  H   UNL     1       3.096  -1.215   3.454  0.00  0.00    +0.146 HD
ENDBRANCH  21  22
ENDBRANCH   1  21
TORSDOF 4
