REMARK  Name = ZINC54619261
REMARK  8 active torsions:
REMARK  status: ('A' for Active; 'I' for Inactive)
REMARK    1  A    between atoms: C_1  and  C_2
REMARK    2  A    between atoms: C_2  and  C_3
REMARK    3  A    between atoms: C_8  and  N_9
REMARK    4  A    between atoms: N_9  and  C_10
REMARK    5  A    between atoms: C_10  and  C_12
REMARK    6  A    between atoms: C_10  and  C_24
REMARK    7  A    between atoms: C_18  and  C_23
REMARK    8  A    between atoms: C_21  and  O_22
REMARK                            x       y       z     vdW  Elec       q    Type
REMARK                         _______ _______ _______ _____ _____    ______ ____
ROOT
ATOM      1  C   UNL     1      -2.021  -0.497   3.775  0.00  0.00    +0.171 C 
ENDROOT
BRANCH   1   2
ATOM      2  C   UNL     1      -3.502  -0.580   3.510  0.00  0.00    +0.024 A 
ATOM      3  C   UNL     1      -4.000  -0.196   2.268  0.00  0.00    +0.010 A 
ATOM      4  C   UNL     1      -5.333  -0.259   1.998  0.00  0.00    +0.010 A 
ATOM      5  C   UNL     1      -6.223  -0.718   2.983  0.00  0.00    +0.004 A 
ATOM      6  C   UNL     1      -7.607  -0.798   2.740  0.00  0.00    +0.012 A 
ATOM      7  C   UNL     1      -8.412  -1.255   3.745  0.00  0.00    +0.023 A 
ATOM      8  C   UNL     1      -7.855  -1.625   4.968  0.00  0.00    +0.039 A 
ATOM      9  N   UNL     1      -6.566  -1.549   5.189  0.00  0.00    -0.248 NA
ATOM     10  C   UNL     1      -5.724  -1.111   4.249  0.00  0.00    +0.113 A 
ATOM     11  C   UNL     1      -4.336  -1.037   4.491  0.00  0.00    +0.148 A 
ATOM     12  C   UNL     1      -8.760  -2.125   6.064  0.00  0.00    +0.065 C 
BRANCH  11  13
ATOM     13  O   UNL     1      -3.832  -1.413   5.695  0.00  0.00    -0.504 OA
ATOM     14  H   UNL     1      -3.786  -0.697   6.343  0.00  0.00    +0.292 HD
ENDBRANCH  11  13
ENDBRANCH   1   2
BRANCH   1  15
ATOM     15  C   UNL     1      -1.696   0.836   4.398  0.00  0.00    +0.129 A 
ATOM     16  C   UNL     1      -1.489   1.063   5.708  0.00  0.00    +0.047 A 
ATOM     17  C   UNL     1      -1.217   2.443   5.846  0.00  0.00    +0.041 A 
ATOM     18  C   UNL     1      -1.274   2.978   4.613  0.00  0.00    +0.195 A 
ATOM     19  O   UNL     1      -1.559   1.998   3.739  0.00  0.00    -0.466 OA
ENDBRANCH   1  15
BRANCH   1  20
ATOM     20  N   UNL     1      -1.291  -0.637   2.512  0.00  0.00    -0.330 N 
ATOM     21  H   UNL     1      -1.725  -0.412   1.674  0.00  0.00    +0.147 HD
BRANCH  20  27
ATOM     22  C   UNL     1       0.722  -1.226   1.319  0.00  0.00    -0.027 A 
ATOM     23  C   UNL     1       2.029  -1.672   1.327  0.00  0.00    +0.005 A 
ATOM     24  C   UNL     1       2.646  -1.992   2.523  0.00  0.00    +0.000 A 
ATOM     25  C   UNL     1       1.956  -1.866   3.715  0.00  0.00    +0.002 A 
ATOM     26  C   UNL     1       0.649  -1.420   3.715  0.00  0.00    +0.023 A 
ATOM     27  C   UNL     1       0.029  -1.093   2.516  0.00  0.00    +0.031 A 
BRANCH  22  29
ATOM     28  C   UNL     1       0.187   0.624  -0.243  0.00  0.00    +0.009 C 
ATOM     29  C   UNL     1       0.051  -0.878   0.016  0.00  0.00    +0.033 C 
ENDBRANCH  22  29
ENDBRANCH  20  27
ENDBRANCH   1  20
TORSDOF 6
