REMARK  Name = ZINC08306450
REMARK  5 active torsions:
REMARK  status: ('A' for Active; 'I' for Inactive)
REMARK    1  A    between atoms: C_1  and  C_2
REMARK    2  A    between atoms: N_12  and  S_13
REMARK    3  A    between atoms: S_13  and  O_15
REMARK    4  A    between atoms: O_15  and  C_16
REMARK    5  A    between atoms: C_19  and  N_22
REMARK                            x       y       z     vdW  Elec       q    Type
REMARK                         _______ _______ _______ _____ _____    ______ ____
ROOT
ATOM      1  C   UNL     1      -3.755   3.182   0.053  0.00  0.00    +0.068 C 
ATOM      2  C   UNL     1      -2.418   3.878   0.044  0.00  0.00    +0.068 A 
ATOM      3  C   UNL     1      -1.225   3.131   0.030  0.00  0.00    +0.008 A 
ATOM      4  C   UNL     1      -1.208   1.730   0.017  0.00  0.00    +0.010 A 
ATOM      5  C   UNL     1      -0.013   1.076   0.008  0.00  0.00    +0.001 A 
ATOM      6  C   UNL     1       1.191   1.778   0.000  0.00  0.00    +0.001 A 
ATOM      7  C   UNL     1       1.210   3.141   0.006  0.00  0.00    +0.012 A 
ATOM      8  C   UNL     1       0.001   3.845   0.021  0.00  0.00    +0.026 A 
ATOM      9  C   UNL     1      -0.062   5.257   0.028  0.00  0.00    +0.162 A 
ATOM     10  N   UNL     1      -1.248   5.840   0.042  0.00  0.00    -0.133 NA
ATOM     11  N   UNL     1      -2.350   5.189   0.049  0.00  0.00    -0.152 NA
ATOM     12  N   UNL     1       1.097   6.016   0.020  0.00  0.00    -0.214 N 
ATOM     13  H   UNL     1       1.963   5.578   0.009  0.00  0.00    +0.167 HD
ENDROOT
BRANCH  12  14
ATOM     14  S   UNL     1       1.005   7.669   0.028  0.00  0.00    +0.310 S 
ATOM     15  O   UNL     1       0.534   7.993  -1.273  0.00  0.00    -0.193 OA
BRANCH  14  16
ATOM     16  O   UNL     1       2.459   8.119   0.015  0.00  0.00    -0.386 OA
BRANCH  16  17
ATOM     17  C   UNL     1       2.620   9.469   0.020  0.00  0.00    +0.143 A 
ATOM     18  C   UNL     1       2.696  10.162  -1.180  0.00  0.00    +0.049 A 
ATOM     19  C   UNL     1       2.855  11.534  -1.176  0.00  0.00    +0.026 A 
ATOM     20  C   UNL     1       2.950  12.218   0.028  0.00  0.00    +0.025 A 
ATOM     21  C   UNL     1       2.878  11.524   1.228  0.00  0.00    +0.026 A 
ATOM     22  C   UNL     1       2.714  10.152   1.223  0.00  0.00    +0.049 A 
BRANCH  20  23
ATOM     23  N   UNL     1       3.115  13.608   0.033  0.00  0.00    -0.358 N 
ATOM     24  H   UNL     1       3.181  14.086   0.874  0.00  0.00    +0.142 HD
ATOM     25  H   UNL     1       3.165  14.093  -0.806  0.00  0.00    +0.142 HD
ENDBRANCH  20  23
ENDBRANCH  16  17
ENDBRANCH  14  16
ENDBRANCH  12  14
TORSDOF 4
