REMARK  Name = ZINC64436069
REMARK  3 active torsions:
REMARK  status: ('A' for Active; 'I' for Inactive)
REMARK    1  A    between atoms: N_10  and  C_12
REMARK    2  A    between atoms: C_12  and  C_13
REMARK    3  A    between atoms: N_15  and  C_16
REMARK                            x       y       z     vdW  Elec       q    Type
REMARK                         _______ _______ _______ _____ _____    ______ ____
ROOT
ATOM      1  C   UNL     1       5.874  -0.957   2.600  0.00  0.00    +0.223 C 
ENDROOT
BRANCH   1  10
ATOM      2  C   UNL     1      -0.141   1.232   0.079  0.00  0.00    +0.000 C 
ATOM      3  C   UNL     1       1.229   1.860   0.070  0.00  0.00    +0.002 C 
ATOM      4  C   UNL     1       1.994   1.574   1.335  0.00  0.00    +0.025 C 
ATOM      5  C   UNL     1       2.668   0.236   1.403  0.00  0.00    +0.099 C 
ATOM      6  C   UNL     1       1.745  -0.888   1.744  0.00  0.00    -0.046 C 
ATOM      7  C   UNL     1       2.245  -1.974   2.361  0.00  0.00    +0.069 C 
ATOM      8  C   UNL     1       3.684  -2.017   2.666  0.00  0.00    +0.253 C 
ATOM      9  O   UNL     1       4.207  -3.053   3.030  0.00  0.00    -0.269 OA
ATOM     10  N   UNL     1       4.412  -0.892   2.534  0.00  0.00    -0.224 N 
ATOM     11  N   UNL     1       3.781   0.297   2.358  0.00  0.00    -0.230 NA
ATOM     12  C   UNL     1       0.290  -0.919   1.399  0.00  0.00    +0.032 C 
ATOM     13  C   UNL     1      -0.055  -0.279   0.051  0.00  0.00    +0.004 C 
ATOM     14  H   UNL     1       3.484   0.697   3.235  0.00  0.00    +0.145 HD
ENDBRANCH   1  10
BRANCH   1  15
ATOM     15  C   UNL     1       6.315  -0.903   4.040  0.00  0.00    +0.236 C 
ATOM     16  O   UNL     1       5.489  -0.819   4.924  0.00  0.00    -0.274 OA
ATOM     17  N   UNL     1       7.627  -0.949   4.346  0.00  0.00    -0.284 N 
ATOM     18  H   UNL     1       8.283  -1.089   3.645  0.00  0.00    +0.155 HD
BRANCH  17  19
ATOM     19  C   UNL     1       8.042  -0.795   5.674  0.00  0.00    +0.032 C 
ATOM     20  C   UNL     1       8.905   0.194   5.966  0.00  0.00    +0.027 C 
ATOM     21  C   UNL     1       9.399   0.335   7.376  0.00  0.00    +0.160 C 
ATOM     22  C   UNL     1       8.330  -0.224   8.296  0.00  0.00    -0.018 C 
ATOM     23  C   UNL     1       8.149   0.709   9.246  0.00  0.00    +0.025 C 
ATOM     24  C   UNL     1       8.887   1.867   8.912  0.00  0.00    +0.106 C 
ATOM     25  N   UNL     1       9.591   1.706   7.826  0.00  0.00    -0.279 NA
ATOM     26  C   UNL     1       7.636  -1.417   8.010  0.00  0.00    +0.008 C 
ATOM     27  C   UNL     1       7.514  -1.713   6.684  0.00  0.00    +0.023 C 
ENDBRANCH  17  19
ENDBRANCH   1  15
TORSDOF 3
