REMARK  Name = ZINC20462960
REMARK  6 active torsions:
REMARK  status: ('A' for Active; 'I' for Inactive)
REMARK    1  A    between atoms: C_1  and  C_2
REMARK    2  A    between atoms: C_7  and  N_12
REMARK    3  A    between atoms: C_9  and  C_11
REMARK    4  A    between atoms: N_12  and  C_13
REMARK    5  A    between atoms: N_20  and  C_23
REMARK    6  A    between atoms: C_23  and  C_24
REMARK                            x       y       z     vdW  Elec       q    Type
REMARK                         _______ _______ _______ _____ _____    ______ ____
ROOT
ATOM      1  C   UNL     1       2.057  -3.740   2.406  0.00  0.00    +0.086 C 
ATOM      2  C   UNL     1       2.812  -4.156   3.487  0.00  0.00    +0.113 C 
ATOM      3  C   UNL     1       2.905  -3.349   4.716  0.00  0.00    +0.258 C 
ATOM      4  O   UNL     1       2.317  -2.288   4.813  0.00  0.00    -0.270 OA
ATOM      5  N   UNL     1       3.661  -3.817   5.731  0.00  0.00    -0.235 N 
ATOM      6  C   UNL     1       4.315  -4.983   5.637  0.00  0.00    +0.316 C 
ATOM      7  O   UNL     1       4.979  -5.348   6.587  0.00  0.00    -0.252 OA
ATOM      8  N   UNL     1       4.275  -5.768   4.551  0.00  0.00    -0.217 N 
ATOM      9  C   UNL     1       3.554  -5.429   3.462  0.00  0.00    +0.261 C 
ATOM     10  O   UNL     1       3.522  -6.152   2.484  0.00  0.00    -0.269 OA
ATOM     11  H   UNL     1       3.733  -3.298   6.547  0.00  0.00    +0.159 HD
ENDROOT
BRANCH   1  12
ATOM     12  N   UNL     1       1.520  -2.504   2.395  0.00  0.00    -0.346 N 
ATOM     13  H   UNL     1       1.730  -1.877   3.105  0.00  0.00    +0.146 HD
BRANCH  12  19
ATOM     14  C   UNL     1      -0.268   1.354  -0.129  0.00  0.00    +0.008 C 
ATOM     15  C   UNL     1      -0.294  -0.168   0.024  0.00  0.00    -0.009 C 
ATOM     16  C   UNL     1      -1.718  -0.624   0.350  0.00  0.00    +0.003 C 
ATOM     17  C   UNL     1      -1.744  -2.146   0.502  0.00  0.00    +0.002 C 
ATOM     18  C   UNL     1      -0.804  -2.561   1.635  0.00  0.00    +0.022 C 
ATOM     19  C   UNL     1       0.620  -2.106   1.310  0.00  0.00    +0.073 C 
ATOM     20  C   UNL     1       0.646  -0.584   1.157  0.00  0.00    +0.009 C 
ATOM     21  C   UNL     1       0.189   0.068   2.464  0.00  0.00    +0.009 C 
ENDBRANCH  12  19
ENDBRANCH   1  12
BRANCH   8  22
ATOM     22  C   UNL     1       5.027  -7.026   4.549  0.00  0.00    +0.153 C 
BRANCH  22  23
ATOM     23  C   UNL     1       4.153  -8.133   5.079  0.00  0.00    -0.030 A 
ATOM     24  C   UNL     1       4.134  -8.410   6.433  0.00  0.00    +0.005 A 
ATOM     25  C   UNL     1       3.333  -9.426   6.920  0.00  0.00    +0.000 A 
ATOM     26  C   UNL     1       2.551 -10.166   6.052  0.00  0.00    +0.000 A 
ATOM     27  C   UNL     1       2.570  -9.889   4.697  0.00  0.00    +0.000 A 
ATOM     28  C   UNL     1       3.368  -8.870   4.212  0.00  0.00    +0.005 A 
ENDBRANCH  22  23
ENDBRANCH   8  22
TORSDOF 4
