REMARK  Name = ZINC38942927
REMARK  10 active torsions:
REMARK  status: ('A' for Active; 'I' for Inactive)
REMARK    1  A    between atoms: C_1  and  C_2
REMARK    2  A    between atoms: C_2  and  C_3
REMARK    3  A    between atoms: C_2  and  C_4
REMARK    4  A    between atoms: C_4  and  C_5
REMARK    5  A    between atoms: C_5  and  N_6
REMARK    6  A    between atoms: C_9  and  N_20
REMARK    7  A    between atoms: C_15  and  C_18
REMARK    8  A    between atoms: C_15  and  C_19
REMARK    9  A    between atoms: C_21  and  C_23
REMARK   10  A    between atoms: C_23  and  N_24
REMARK                            x       y       z     vdW  Elec       q    Type
REMARK                         _______ _______ _______ _____ _____    ______ ____
ROOT
ATOM      1  N   UNL     1      -3.812  -0.719  -1.602  0.00  0.00    -0.268 N 
ATOM      2  C   UNL     1      -4.170  -1.996  -2.053  0.00  0.00    +0.080 A 
ATOM      3  C   UNL     1      -3.388  -3.097  -1.747  0.00  0.00    +0.050 A 
ATOM      4  C   UNL     1      -3.755  -4.354  -2.206  0.00  0.00    +0.035 A 
ATOM      5  C   UNL     1      -4.904  -4.506  -2.971  0.00  0.00    +0.027 A 
ATOM      6  C   UNL     1      -5.686  -3.408  -3.276  0.00  0.00    +0.049 A 
ATOM      7  C   UNL     1      -5.326  -2.152  -2.817  0.00  0.00    +0.142 A 
ATOM      8  O   UNL     1      -6.097  -1.069  -3.102  0.00  0.00    -0.489 OA
ATOM      9  C   UNL     1      -6.910  -0.554  -2.051  0.00  0.00    +0.244 C 
ATOM     10  C   UNL     1      -6.121  -0.497  -0.745  0.00  0.00    +0.076 C 
ATOM     11  C   UNL     1      -4.740   0.052  -0.992  0.00  0.00    +0.229 C 
ATOM     12  O   UNL     1      -4.464   1.183  -0.650  0.00  0.00    -0.275 OA
ATOM     13  C   UNL     1      -6.853   0.404   0.252  0.00  0.00    +0.024 C 
ATOM     14  C   UNL     1      -6.005  -1.906  -0.160  0.00  0.00    +0.024 C 
ENDROOT
BRANCH   4  15
ATOM     15  N   UNL     1      -2.966  -5.470  -1.899  0.00  0.00    -0.284 N 
ATOM     16  C   UNL     1      -3.548  -6.664  -1.670  0.00  0.00    +0.237 C 
ATOM     17  O   UNL     1      -4.745  -6.793  -1.815  0.00  0.00    -0.274 OA
ATOM     18  H   UNL     1      -2.001  -5.384  -1.850  0.00  0.00    +0.155 HD
BRANCH  16  19
ATOM     19  C   UNL     1      -2.711  -7.839  -1.234  0.00  0.00    +0.224 C 
BRANCH  19  20
ATOM     20  N   UNL     1      -3.571  -9.011  -1.052  0.00  0.00    -0.265 N 
ATOM     21  C   UNL     1      -4.220  -9.383   0.124  0.00  0.00    +0.091 A 
ATOM     22  C   UNL     1      -4.274  -8.835   1.396  0.00  0.00    +0.030 A 
ATOM     23  C   UNL     1      -5.024  -9.451   2.379  0.00  0.00    +0.002 A 
ATOM     24  C   UNL     1      -5.721 -10.613   2.097  0.00  0.00    +0.004 A 
ATOM     25  C   UNL     1      -5.672 -11.165   0.832  0.00  0.00    +0.048 A 
ATOM     26  C   UNL     1      -4.922 -10.554  -0.161  0.00  0.00    +0.157 A 
ATOM     27  O   UNL     1      -4.690 -10.856  -1.462  0.00  0.00    -0.407 OA
ATOM     28  C   UNL     1      -3.884  -9.924  -1.994  0.00  0.00    +0.422 A 
ATOM     29  O   UNL     1      -3.493  -9.907  -3.145  0.00  0.00    -0.223 OA
ENDBRANCH  19  20
ENDBRANCH  16  19
ENDBRANCH   4  15
BRANCH   1  30
ATOM     30  C   UNL     1      -2.445  -0.226  -1.784  0.00  0.00    +0.114 C 
BRANCH  30  31
ATOM     31  C   UNL     1      -1.597  -0.616  -0.571  0.00  0.00    +0.022 C 
BRANCH  31  33
ATOM     32  C   UNL     1      -0.175   1.428  -0.775  0.00  0.00    +0.007 C 
ATOM     33  C   UNL     1      -0.169  -0.102  -0.761  0.00  0.00    -0.016 C 
ATOM     34  C   UNL     1       0.709  -0.598   0.390  0.00  0.00    +0.007 C 
ENDBRANCH  31  33
ENDBRANCH  30  31
ENDBRANCH   1  30
TORSDOF 6
