REMARK  Name = ZINC65944062
REMARK  5 active torsions:
REMARK  status: ('A' for Active; 'I' for Inactive)
REMARK    1  A    between atoms: C_2  and  C_11
REMARK    2  A    between atoms: C_3  and  O_10
REMARK    3  A    between atoms: C_11  and  N_12
REMARK    4  A    between atoms: C_16  and  C_18
REMARK    5  A    between atoms: N_20  and  C_21
REMARK                            x       y       z     vdW  Elec       q    Type
REMARK                         _______ _______ _______ _____ _____    ______ ____
ROOT
ATOM      1  N   UNL     1       1.509   4.086   1.347  0.00  0.00    +0.383 N 
ATOM      2  C   UNL     1       0.486   3.667   2.313  0.00  0.00    -0.078 C 
ATOM      3  C   UNL     1       0.900   4.104   3.720  0.00  0.00    -0.018 C 
ATOM      4  C   UNL     1       1.044   5.628   3.754  0.00  0.00    +0.009 C 
ATOM      5  C   UNL     1       2.058   6.059   2.691  0.00  0.00    +0.058 C 
ATOM      6  C   UNL     1       1.602   5.550   1.322  0.00  0.00    -0.066 C 
ATOM      7  H   UNL     1       2.401   3.697   1.615  0.00  0.00    -0.081 HD
ENDROOT
BRANCH   5   8
ATOM      8  C   UNL     1       2.151   7.563   2.664  0.00  0.00    +0.215 C 
ATOM      9  O   UNL     1       1.882   8.169   1.648  0.00  0.00    -0.276 OA
ATOM     10  N   UNL     1       2.532   8.235   3.768  0.00  0.00    -0.312 N 
ATOM     11  H   UNL     1       2.747   7.751   4.580  0.00  0.00    +0.149 HD
BRANCH  10  12
ATOM     12  C   UNL     1       2.621   9.697   3.742  0.00  0.00    +0.073 C 
ATOM     13  C   UNL     1       3.988  10.115   3.194  0.00  0.00    +0.022 C 
ATOM     14  C   UNL     1       4.081  11.642   3.166  0.00  0.00    +0.002 C 
ATOM     15  C   UNL     1       3.911  12.189   4.585  0.00  0.00    +0.000 C 
ATOM     16  C   UNL     1       2.545  11.771   5.132  0.00  0.00    +0.002 C 
ATOM     17  C   UNL     1       2.451  10.244   5.160  0.00  0.00    +0.022 C 
ENDBRANCH  10  12
ENDBRANCH   5   8
BRANCH   1  18
ATOM     18  C   UNL     1       1.146   3.597   0.010  0.00  0.00    -0.039 C 
BRANCH  18  20
ATOM     19  C   UNL     1      -0.017   1.381   0.010  0.00  0.00    +0.055 A 
ATOM     20  C   UNL     1       1.170   2.090   0.002  0.00  0.00    -0.019 A 
ATOM     21  C   UNL     1       2.382   1.417  -0.013  0.00  0.00    +0.122 A 
ATOM     22  C   UNL     1       2.406   0.030  -0.021  0.00  0.00    +0.095 A 
ATOM     23  C   UNL     1       1.219  -0.682  -0.014  0.00  0.00    +0.170 A 
ATOM     24  C   UNL     1       0.002  -0.004   0.002  0.00  0.00    +0.167 A 
ATOM     25  O   UNL     1      -1.009  -0.923   0.007  0.00  0.00    -0.453 OA
ATOM     26  C   UNL     1      -0.406  -2.159  -0.418  0.00  0.00    +0.466 C 
ATOM     27  O   UNL     1       0.970  -2.025  -0.019  0.00  0.00    -0.452 OA
BRANCH  21  28
ATOM     28  O   UNL     1       3.548   2.117  -0.021  0.00  0.00    -0.506 OA
ATOM     29  H   UNL     1       3.894   2.315   0.861  0.00  0.00    +0.292 HD
ENDBRANCH  21  28
ENDBRANCH  18  20
ENDBRANCH   1  18
TORSDOF 5
