REMARK  Name = ZINC33307870
REMARK  10 active torsions:
REMARK  status: ('A' for Active; 'I' for Inactive)
REMARK    1  A    between atoms: C_1  and  C_2
REMARK    2  A    between atoms: C_5  and  C_7
REMARK    3  A    between atoms: C_9  and  S_21
REMARK    4  A    between atoms: N_11  and  C_12
REMARK    5  A    between atoms: C_12  and  C_13
REMARK    6  A    between atoms: S_21  and  N_24
REMARK    7  A    between atoms: N_24  and  C_25
REMARK    8  A    between atoms: C_25  and  C_26
REMARK    9  A    between atoms: C_26  and  N_27
REMARK   10  A    between atoms: C_32  and  C_34
REMARK                            x       y       z     vdW  Elec       q    Type
REMARK                         _______ _______ _______ _____ _____    ______ ____
ROOT
ATOM      1  C   UNL     1      -1.166   2.242   0.020  0.00  0.00    +0.077 A 
ATOM      2  C   UNL     1      -2.483   1.883   0.019  0.00  0.00    +0.058 A 
ATOM      3  C   UNL     1      -3.239   3.064   0.034  0.00  0.00    +0.123 A 
ATOM      4  C   UNL     1      -2.376   4.105   0.036  0.00  0.00    +0.115 A 
ATOM      5  N   UNL     1      -1.105   3.614   0.027  0.00  0.00    -0.334 N 
ENDROOT
BRANCH   1  10
ATOM      6  C   UNL     1       1.124  -2.176  -0.020  0.00  0.00    +0.066 C 
ATOM      7  C   UNL     1       1.134  -0.669  -0.012  0.00  0.00    +0.046 A 
ATOM      8  C   UNL     1       2.315   0.004  -0.020  0.00  0.00    +0.070 A 
ATOM      9  S   UNL     1       1.733   1.695  -0.005  0.00  0.00    -0.074 S 
ATOM     10  C   UNL     1      -0.016   1.324   0.009  0.00  0.00    +0.125 A 
ATOM     11  N   UNL     1       0.002  -0.004   0.002  0.00  0.00    -0.243 NA
ENDBRANCH   1  10
BRANCH   3  12
ATOM     12  S   UNL     1      -4.997   3.173   0.042  0.00  0.00    +0.060 S 
ATOM     13  O   UNL     1      -5.477   1.952   0.589  0.00  0.00    -0.153 OA
ATOM     14  O   UNL     1      -5.324   4.438   0.601  0.00  0.00    -0.153 OA
BRANCH  12  15
ATOM     15  N   UNL     1      -5.493   3.211  -1.537  0.00  0.00    -0.192 NA
ATOM     16  H   UNL     1      -5.835   4.162  -1.970  0.00  0.00    +0.148 HD
BRANCH  15  17
ATOM     17  C   UNL     1      -5.272   2.049  -2.402  0.00  0.00    +0.087 C 
BRANCH  17  18
ATOM     18  C   UNL     1      -6.130   2.182  -3.663  0.00  0.00    -0.061 C 
BRANCH  18  19
ATOM     19  N   UNL     1      -5.909   1.017  -4.530  0.00  0.00    +0.382 N 
ATOM     20  C   UNL     1      -5.944  -0.230  -3.756  0.00  0.00    -0.078 C 
ATOM     21  C   UNL     1      -5.567  -1.405  -4.661  0.00  0.00    -0.019 C 
ATOM     22  C   UNL     1      -6.554  -1.479  -5.830  0.00  0.00    -0.003 C 
ATOM     23  C   UNL     1      -6.533  -0.151  -6.591  0.00  0.00    -0.016 C 
ATOM     24  C   UNL     1      -6.882   0.988  -5.629  0.00  0.00    -0.072 C 
ATOM     25  C   UNL     1      -6.843   2.320  -6.381  0.00  0.00    -0.013 C 
ATOM     26  H   UNL     1      -4.906   1.109  -4.973  0.00  0.00    -0.081 HD
ENDBRANCH  18  19
ENDBRANCH  17  18
ENDBRANCH  15  17
ENDBRANCH  12  15
ENDBRANCH   3  12
BRANCH   5  27
ATOM     27  C   UNL     1       0.121   4.416   0.026  0.00  0.00    +0.217 C 
BRANCH  27  28
ATOM     28  C   UNL     1       0.602   4.595  -1.391  0.00  0.00    +0.235 C 
ATOM     29  O   UNL     1      -0.018   4.101  -2.309  0.00  0.00    -0.274 OA
ATOM     30  N   UNL     1       1.722   5.304  -1.637  0.00  0.00    -0.300 N 
ATOM     31  C   UNL     1       2.480   5.913  -0.536  0.00  0.00    +0.108 C 
ATOM     32  C   UNL     1       3.943   5.454  -0.638  0.00  0.00    +0.019 C 
ATOM     33  C   UNL     1       4.481   5.788  -2.031  0.00  0.00    +0.003 C 
ATOM     34  C   UNL     1       3.666   5.037  -3.087  0.00  0.00    +0.019 C 
ATOM     35  C   UNL     1       2.204   5.487  -3.013  0.00  0.00    +0.108 C 
ENDBRANCH  27  28
ENDBRANCH   5  27
TORSDOF 8
