REMARK  Name = ZINC09944576
REMARK  12 active torsions:
REMARK  status: ('A' for Active; 'I' for Inactive)
REMARK    1  A    between atoms: C_1  and  C_2
REMARK    2  A    between atoms: C_2  and  C_4
REMARK    3  A    between atoms: C_2  and  S_11
REMARK    4  A    between atoms: N_9  and  C_10
REMARK    5  A    between atoms: S_11  and  C_12
REMARK    6  A    between atoms: C_15  and  C_20
REMARK    7  A    between atoms: N_16  and  C_17
REMARK    8  A    between atoms: C_17  and  C_18
REMARK    9  A    between atoms: C_27  and  C_30
REMARK   10  A    between atoms: C_30  and  C_31
REMARK   11  A    between atoms: C_30  and  C_32
REMARK   12  A    between atoms: C_30  and  C_33
REMARK                            x       y       z     vdW  Elec       q    Type
REMARK                         _______ _______ _______ _____ _____    ______ ____
ROOT
ATOM      1  C   UNL     1      -3.996   1.969  -0.596  0.00  0.00    +0.193 A 
ATOM      2  N   UNL     1      -3.961   3.239  -0.261  0.00  0.00    -0.122 NA
ATOM      3  N   UNL     1      -5.123   3.767  -0.403  0.00  0.00    -0.128 NA
ATOM      4  C   UNL     1      -5.978   2.863  -0.831  0.00  0.00    +0.172 A 
ATOM      5  N   UNL     1      -5.280   1.683  -0.967  0.00  0.00    -0.298 N 
ENDROOT
BRANCH   4   6
ATOM      6  C   UNL     1      -7.407   3.072  -1.111  0.00  0.00    +0.057 A 
ATOM      7  C   UNL     1      -8.215   4.115  -0.744  0.00  0.00    +0.023 A 
ATOM      8  C   UNL     1      -9.553   4.115  -1.118  0.00  0.00    -0.036 A 
ATOM      9  C   UNL     1      -9.986   3.046  -1.846  0.00  0.00    -0.006 A 
ATOM     10  S   UNL     1      -8.540   2.036  -2.025  0.00  0.00    -0.090 S 
ATOM     11  C   UNL     1     -11.364   2.800  -2.369  0.00  0.00    +0.043 C 
ATOM     12  C   UNL     1     -12.330   3.757  -1.656  0.00  0.00    +0.009 C 
ATOM     13  C   UNL     1     -11.732   5.167  -1.681  0.00  0.00    -0.001 C 
ATOM     14  C   UNL     1     -10.519   5.238  -0.752  0.00  0.00    +0.040 C 
BRANCH  13  15
ATOM     15  C   UNL     1     -12.786   6.174  -1.217  0.00  0.00    -0.035 C 
ATOM     16  C   UNL     1     -13.227   5.831   0.207  0.00  0.00    +0.011 C 
ATOM     17  C   UNL     1     -12.191   7.583  -1.242  0.00  0.00    +0.011 C 
ATOM     18  C   UNL     1     -13.995   6.114  -2.153  0.00  0.00    +0.011 C 
ENDBRANCH  13  15
ENDBRANCH   4   6
BRANCH   1  19
ATOM     19  S   UNL     1      -2.642   0.842  -0.565  0.00  0.00    -0.073 S 
BRANCH  19  21
ATOM     20  C   UNL     1      -1.646   2.404   1.444  0.00  0.00    +0.029 C 
ATOM     21  C   UNL     1      -1.330   1.944   0.019  0.00  0.00    +0.137 C 
BRANCH  21  22
ATOM     22  C   UNL     1      -0.014   1.208   0.009  0.00  0.00    +0.233 C 
ATOM     23  O   UNL     1       0.002  -0.004   0.002  0.00  0.00    -0.274 OA
ATOM     24  N   UNL     1       1.143   1.898   0.001  0.00  0.00    -0.239 N 
ATOM     25  C   UNL     1       2.320   1.240  -0.013  0.00  0.00    +0.306 C 
ATOM     26  O   UNL     1       2.336   0.025  -0.020  0.00  0.00    -0.252 OA
ATOM     27  N   UNL     1       3.478   1.930  -0.021  0.00  0.00    -0.302 N 
ATOM     28  C   UNL     1       4.756   1.214  -0.037  0.00  0.00    +0.129 C 
ATOM     29  H   UNL     1       1.130   2.868   0.007  0.00  0.00    +0.159 HD
ATOM     30  H   UNL     1       3.465   2.900  -0.015  0.00  0.00    +0.150 HD
ENDBRANCH  21  22
ENDBRANCH  19  21
ENDBRANCH   1  19
BRANCH   5  31
ATOM     31  C   UNL     1      -5.806   0.390  -1.415  0.00  0.00    +0.152 C 
BRANCH  31  32
ATOM     32  C   UNL     1      -6.298  -0.392  -0.225  0.00  0.00    -0.013 C 
ATOM     33  C   UNL     1      -7.527  -0.844  -0.201  0.00  0.00    +0.005 C 
ENDBRANCH  31  32
ENDBRANCH   5  31
TORSDOF 7
