REMARK  Name = ZINC59310201
REMARK  9 active torsions:
REMARK  status: ('A' for Active; 'I' for Inactive)
REMARK    1  A    between atoms: C_1  and  C_2
REMARK    2  A    between atoms: C_2  and  S_3
REMARK    3  A    between atoms: S_3  and  C_4
REMARK    4  A    between atoms: C_9  and  N_10
REMARK    5  A    between atoms: C_11  and  C_13
REMARK    6  A    between atoms: C_13  and  S_14
REMARK    7  A    between atoms: S_14  and  C_15
REMARK    8  A    between atoms: N_20  and  N_21
REMARK    9  A    between atoms: C_22  and  C_23
REMARK                            x       y       z     vdW  Elec       q    Type
REMARK                         _______ _______ _______ _____ _____    ______ ____
ROOT
ATOM      1  C   UNL     1       4.284  -3.164   8.149  0.00  0.00    +0.211 A 
ATOM      2  N   UNL     1       4.824  -3.717   9.240  0.00  0.00    -0.186 NA
ATOM      3  C   UNL     1       5.221  -2.771  10.065  0.00  0.00    +0.232 A 
ATOM      4  N   UNL     1       4.934  -1.578   9.501  0.00  0.00    -0.245 N 
ATOM      5  N   UNL     1       4.335  -1.858   8.263  0.00  0.00    -0.144 NA
ATOM      6  N   UNL     1       5.825  -2.965  11.293  0.00  0.00    -0.205 N 
ATOM      7  H   UNL     1       6.083  -2.201  11.833  0.00  0.00    +0.177 HD
ATOM      8  H   UNL     1       5.111  -0.701   9.876  0.00  0.00    +0.192 HD
ENDROOT
BRANCH   6   9
ATOM      9  N   UNL     1       6.065  -4.264  11.759  0.00  0.00    -0.188 NA
ATOM     10  C   UNL     1       6.635  -4.447  12.915  0.00  0.00    +0.139 C 
BRANCH  10  11
ATOM     11  C   UNL     1       6.886  -5.806  13.402  0.00  0.00    +0.010 A 
ATOM     12  C   UNL     1       7.390  -6.017  14.702  0.00  0.00    -0.009 A 
ATOM     13  C   UNL     1       7.662  -4.937  15.559  0.00  0.00    +0.009 A 
ATOM     14  C   UNL     1       8.148  -5.174  16.807  0.00  0.00    +0.001 A 
ATOM     15  C   UNL     1       8.385  -6.469  17.265  0.00  0.00    +0.001 A 
ATOM     16  C   UNL     1       8.143  -7.556  16.487  0.00  0.00    +0.008 A 
ATOM     17  C   UNL     1       7.637  -7.378  15.181  0.00  0.00    -0.017 A 
ATOM     18  C   UNL     1       7.377  -8.474  14.357  0.00  0.00    +0.017 A 
ATOM     19  C   UNL     1       6.878  -8.274  13.069  0.00  0.00    -0.017 A 
ATOM     20  C   UNL     1       6.620  -6.920  12.578  0.00  0.00    -0.009 A 
ATOM     21  C   UNL     1       6.113  -6.755  11.277  0.00  0.00    +0.009 A 
ATOM     22  C   UNL     1       5.868  -7.850  10.508  0.00  0.00    +0.001 A 
ATOM     23  C   UNL     1       6.107  -9.141  10.975  0.00  0.00    +0.001 A 
ATOM     24  C   UNL     1       6.608  -9.367  12.218  0.00  0.00    +0.008 A 
ENDBRANCH  10  11
ENDBRANCH   6   9
BRANCH   1  25
ATOM     25  S   UNL     1       3.618  -4.046   6.777  0.00  0.00    -0.075 S 
BRANCH  25  26
ATOM     26  C   UNL     1       3.061  -2.743   5.645  0.00  0.00    +0.173 C 
BRANCH  26  28
ATOM     27  N   UNL     1       1.978  -2.589   3.426  0.00  0.00    -0.284 N 
ATOM     28  C   UNL     1       2.462  -3.370   4.413  0.00  0.00    +0.228 C 
ATOM     29  O   UNL     1       2.415  -4.578   4.308  0.00  0.00    -0.275 OA
ATOM     30  H   UNL     1       2.088  -1.627   3.472  0.00  0.00    +0.155 HD
BRANCH  27  36
ATOM     31  C   UNL     1       1.264  -2.498   1.113  0.00  0.00    +0.029 A 
ATOM     32  C   UNL     1       0.611  -3.080   0.035  0.00  0.00    +0.016 A 
ATOM     33  C   UNL     1       0.009  -4.316   0.177  0.00  0.00    +0.001 A 
ATOM     34  C   UNL     1       0.055  -4.976   1.391  0.00  0.00    +0.002 A 
ATOM     35  C   UNL     1       0.704  -4.405   2.470  0.00  0.00    +0.024 A 
ATOM     36  C   UNL     1       1.315  -3.168   2.336  0.00  0.00    +0.047 A 
BRANCH  31  37
ATOM     37  S   UNL     1       2.033  -0.923   0.935  0.00  0.00    -0.124 S 
BRANCH  37  39
ATOM     38  C   UNL     1       2.327   0.900  -1.083  0.00  0.00    +0.015 C 
ATOM     39  C   UNL     1       1.705  -0.467  -0.790  0.00  0.00    +0.071 C 
ENDBRANCH  37  39
ENDBRANCH  31  37
ENDBRANCH  27  36
ENDBRANCH  26  28
ENDBRANCH  25  26
ENDBRANCH   1  25
TORSDOF 8
