REMARK  Name = ZINC21257894
REMARK  8 active torsions:
REMARK  status: ('A' for Active; 'I' for Inactive)
REMARK    1  A    between atoms: C_1  and  C_2
REMARK    2  A    between atoms: C_2  and  C_3
REMARK    3  A    between atoms: C_2  and  O_4
REMARK    4  A    between atoms: O_4  and  C_5
REMARK    5  A    between atoms: C_8  and  C_13
REMARK    6  A    between atoms: C_10  and  O_11
REMARK    7  A    between atoms: O_11  and  C_12
REMARK    8  A    between atoms: C_18  and  C_28
REMARK                            x       y       z     vdW  Elec       q    Type
REMARK                         _______ _______ _______ _____ _____    ______ ____
ROOT
ATOM      1  C   UNL     1       0.833  -0.505   0.471  0.00  0.00    +0.032 C 
ATOM      2  C   UNL     1       2.075   0.029  -0.240  0.00  0.00    +0.059 C 
ATOM      3  C   UNL     1       2.133   1.543  -0.118  0.00  0.00    +0.017 C 
ATOM      4  C   UNL     1       1.002   2.265  -0.065  0.00  0.00    +0.036 C 
ATOM      5  C   UNL     1       0.914   3.767   0.062  0.00  0.00    +0.137 C 
ATOM      6  N   UNL     1       2.170   4.458  -0.136  0.00  0.00    -0.331 N 
ATOM      7  C   UNL     1       3.236   4.272   0.741  0.00  0.00    +0.049 A 
ATOM      8  C   UNL     1       3.682   5.299   1.560  0.00  0.00    +0.025 A 
ATOM      9  C   UNL     1       4.691   5.051   2.474  0.00  0.00    +0.002 A 
ATOM     10  C   UNL     1       5.253   3.792   2.573  0.00  0.00    +0.002 A 
ATOM     11  C   UNL     1       4.827   2.770   1.741  0.00  0.00    +0.025 A 
ATOM     12  C   UNL     1       3.831   3.022   0.814  0.00  0.00    +0.052 A 
ATOM     13  N   UNL     1       3.389   2.059  -0.087  0.00  0.00    -0.316 N 
ATOM     14  C   UNL     1      -0.258   1.622  -0.115  0.00  0.00    +0.163 C 
ATOM     15  O   UNL     1      -1.265   2.303  -0.099  0.00  0.00    -0.292 OA
ATOM     16  C   UNL     1      -0.394   0.131  -0.194  0.00  0.00    +0.088 C 
ATOM     17  H   UNL     1       2.294   5.141  -0.989  0.00  0.00    +0.147 HD
ATOM     18  H   UNL     1       4.143   1.715  -0.811  0.00  0.00    +0.152 HD
ENDROOT
BRANCH   5  19
ATOM     19  C   UNL     1       0.398   4.098   1.439  0.00  0.00    -0.004 A 
ATOM     20  C   UNL     1       0.516   3.175   2.462  0.00  0.00    +0.008 A 
ATOM     21  C   UNL     1       0.048   3.480   3.726  0.00  0.00    +0.020 A 
ATOM     22  C   UNL     1      -0.549   4.705   3.966  0.00  0.00    +0.042 A 
ATOM     23  C   UNL     1      -0.673   5.627   2.941  0.00  0.00    +0.040 A 
ATOM     24  C   UNL     1      -0.199   5.323   1.677  0.00  0.00    +0.048 A 
ATOM     25 CL   UNL     1      -0.353   6.479   0.392  0.00  0.00    -0.083 Cl
ATOM     26 CL   UNL     1      -1.144   5.086   5.551  0.00  0.00    -0.083 Cl
ENDBRANCH   5  19
BRANCH   1  30
ATOM     27  C   UNL     1       0.652  -4.759   0.074  0.00  0.00    +0.162 A 
ATOM     28  C   UNL     1       0.680  -3.956  -1.055  0.00  0.00    +0.050 A 
ATOM     29  C   UNL     1       0.738  -2.581  -0.923  0.00  0.00    +0.008 A 
ATOM     30  C   UNL     1       0.769  -2.004   0.333  0.00  0.00    -0.040 A 
ATOM     31  C   UNL     1       0.747  -2.800   1.463  0.00  0.00    +0.053 A 
ATOM     32  C   UNL     1       0.683  -4.179   1.338  0.00  0.00    +0.162 A 
BRANCH  32  33
ATOM     33  O   UNL     1       0.655  -4.963   2.449  0.00  0.00    -0.491 OA
ATOM     34  C   UNL     1       0.689  -4.298   3.713  0.00  0.00    +0.277 C 
ENDBRANCH  32  33
BRANCH  27  35
ATOM     35  O   UNL     1       0.596  -6.112  -0.054  0.00  0.00    -0.486 OA
BRANCH  35  37
ATOM     36  C   UNL     1       1.223  -8.075  -1.315  0.00  0.00    +0.051 C 
ATOM     37  C   UNL     1       0.688  -6.643  -1.377  0.00  0.00    +0.167 C 
ATOM     38  C   UNL     1      -0.698  -6.643  -2.025  0.00  0.00    +0.051 C 
ENDBRANCH  35  37
ENDBRANCH  27  35
ENDBRANCH   1  30
TORSDOF 5
