REMARK  Name = ZINC06197967
REMARK  10 active torsions:
REMARK  status: ('A' for Active; 'I' for Inactive)
REMARK    1  A    between atoms: C_1  and  C_2
REMARK    2  A    between atoms: C_2  and  C_3
REMARK    3  A    between atoms: C_10  and  C_15
REMARK    4  A    between atoms: C_15  and  C_17
REMARK    5  A    between atoms: C_15  and  N_69
REMARK    6  A    between atoms: N_21  and  C_22
REMARK    7  A    between atoms: C_28  and  C_29
REMARK    8  A    between atoms: C_28  and  N_69
REMARK    9  A    between atoms: C_30  and  C_31
REMARK   10  A    between atoms: C_30  and  N_69
REMARK                            x       y       z     vdW  Elec       q    Type
REMARK                         _______ _______ _______ _____ _____    ______ ____
ROOT
ATOM      1  C   UNL     1       6.061  -0.211   0.666  0.00  0.00    +0.039 C 
ENDROOT
BRANCH   1   9
ATOM      2  C   UNL     1       0.828   2.022   3.098  0.00  0.00    -0.047 A 
ATOM      3  C   UNL     1       1.165   3.364   2.987  0.00  0.00    +0.005 A 
ATOM      4  C   UNL     1       2.377   3.743   2.451  0.00  0.00    +0.026 A 
ATOM      5  C   UNL     1       3.273   2.772   2.016  0.00  0.00    +0.049 A 
ATOM      6  C   UNL     1       2.928   1.412   2.131  0.00  0.00    -0.001 A 
ATOM      7  C   UNL     1       1.692   1.051   2.678  0.00  0.00    +0.013 A 
ATOM      8  C   UNL     1       3.878   0.398   1.670  0.00  0.00    +0.017 A 
ATOM      9  C   UNL     1       5.061   0.807   1.149  0.00  0.00    +0.011 A 
ATOM     10  C   UNL     1       5.359   2.184   1.057  0.00  0.00    +0.251 A 
ATOM     11  O   UNL     1       6.428   2.530   0.585  0.00  0.00    -0.268 OA
ATOM     12  N   UNL     1       4.492   3.123   1.477  0.00  0.00    -0.322 N 
ATOM     13  H   UNL     1       4.736   4.089   1.397  0.00  0.00    +0.169 HD
BRANCH   2  15
ATOM     14  C   UNL     1      -1.548   1.542   2.574  0.00  0.00    +0.009 C 
ATOM     15  C   UNL     1      -0.503   1.633   3.688  0.00  0.00    +0.032 C 
ENDBRANCH   2  15
ENDBRANCH   1   9
BRANCH   1  16
ATOM     16  C   UNL     1       6.188  -0.118  -0.833  0.00  0.00    +0.143 A 
ATOM     17  N   UNL     1       6.572   0.928  -1.522  0.00  0.00    -0.115 NA
ATOM     18  N   UNL     1       6.551   0.612  -2.771  0.00  0.00    -0.023 NA
ATOM     19  N   UNL     1       6.165  -0.610  -2.896  0.00  0.00    -0.044 NA
ATOM     20  N   UNL     1       5.936  -1.096  -1.723  0.00  0.00    -0.227 N 
BRANCH  20  21
ATOM     21  C   UNL     1       5.485  -2.456  -1.417  0.00  0.00    +0.111 C 
ATOM     22  C   UNL     1       6.440  -3.466  -2.056  0.00  0.00    +0.027 C 
ATOM     23  C   UNL     1       5.968  -4.886  -1.737  0.00  0.00    +0.002 C 
ATOM     24  C   UNL     1       4.558  -5.093  -2.295  0.00  0.00    +0.000 C 
ATOM     25  C   UNL     1       3.604  -4.083  -1.655  0.00  0.00    +0.002 C 
ATOM     26  C   UNL     1       4.075  -2.663  -1.975  0.00  0.00    +0.027 C 
ENDBRANCH  20  21
ENDBRANCH   1  16
BRANCH   1  27
ATOM     27  N   UNL     1       7.372   0.081   1.282  0.00  0.00    +0.392 N 
ATOM     28  H   UNL     1       7.585   1.078   1.158  0.00  0.00    -0.080 HD
BRANCH  27  29
ATOM     29  C   UNL     1       7.330  -0.225   2.728  0.00  0.00    -0.080 C 
ATOM     30  C   UNL     1       6.638   0.931   3.452  0.00  0.00    -0.017 C 
ENDBRANCH  27  29
BRANCH  27  31
ATOM     31  C   UNL     1       8.428  -0.720   0.627  0.00  0.00    -0.042 C 
BRANCH  31  32
ATOM     32  C   UNL     1       9.114   0.142  -0.400  0.00  0.00    -0.064 A 
ATOM     33  C   UNL     1       8.882  -0.069  -1.747  0.00  0.00    +0.002 A 
ATOM     34  C   UNL     1       9.508   0.726  -2.689  0.00  0.00    +0.000 A 
ATOM     35  C   UNL     1      10.374   1.725  -2.285  0.00  0.00    +0.000 A 
ATOM     36  C   UNL     1      10.610   1.933  -0.939  0.00  0.00    +0.000 A 
ATOM     37  C   UNL     1       9.980   1.142   0.003  0.00  0.00    +0.002 A 
ENDBRANCH  31  32
ENDBRANCH  27  31
ENDBRANCH   1  27
TORSDOF 8
