REMARK  Name = ZINC33479163
REMARK  11 active torsions:
REMARK  status: ('A' for Active; 'I' for Inactive)
REMARK    1  A    between atoms: C_1  and  C_2
REMARK    2  A    between atoms: C_2  and  N_3
REMARK    3  A    between atoms: C_4  and  N_30
REMARK    4  A    between atoms: C_5  and  C_13
REMARK    5  A    between atoms: C_6  and  C_12
REMARK    6  A    between atoms: C_7  and  C_10
REMARK    7  A    between atoms: N_17  and  C_21
REMARK    8  A    between atoms: C_21  and  C_23
REMARK    9  A    between atoms: C_21  and  C_24
REMARK   10  A    between atoms: N_33  and  C_36
REMARK   11  A    between atoms: C_36  and  C_37
REMARK                            x       y       z     vdW  Elec       q    Type
REMARK                         _______ _______ _______ _____ _____    ______ ____
ROOT
ATOM      1  N   UNL     1      -5.678  -1.641   1.628  0.00  0.00    -0.295 N 
ATOM      2  C   UNL     1      -4.782  -2.200   0.773  0.00  0.00    +0.112 A 
ATOM      3  C   UNL     1      -5.135  -3.318   0.001  0.00  0.00    +0.019 A 
ATOM      4  C   UNL     1      -6.429  -3.856   0.114  0.00  0.00    -0.017 A 
ATOM      5  C   UNL     1      -7.330  -3.262   0.994  0.00  0.00    +0.120 A 
ATOM      6  C   UNL     1      -6.923  -2.134   1.751  0.00  0.00    +0.270 A 
ATOM      7  O   UNL     1      -7.707  -1.609   2.522  0.00  0.00    -0.266 OA
ATOM      8  C   UNL     1      -6.834  -5.056  -0.703  0.00  0.00    +0.046 C 
ENDROOT
BRANCH   3   9
ATOM      9  C   UNL     1      -4.164  -3.920  -0.915  0.00  0.00    +0.032 C 
ATOM     10  C   UNL     1      -4.368  -3.860  -2.259  0.00  0.00    +0.077 C 
ATOM     11  C   UNL     1      -3.617  -4.454  -3.319  0.00  0.00    +0.259 C 
ATOM     12  O   UNL     1      -2.632  -5.131  -3.087  0.00  0.00    -0.269 OA
ATOM     13  N   UNL     1      -4.026  -4.248  -4.559  0.00  0.00    -0.248 N 
ATOM     14  C   UNL     1      -5.116  -3.491  -4.816  0.00  0.00    +0.121 C 
ATOM     15  S   UNL     1      -5.812  -3.092  -6.328  0.00  0.00    -0.027 S 
ATOM     16  S   UNL     1      -5.645  -3.012  -3.179  0.00  0.00    -0.061 S 
BRANCH  13  17
ATOM     17  C   UNL     1      -3.283  -4.846  -5.672  0.00  0.00    +0.110 C 
ATOM     18  C   UNL     1      -1.993  -5.476  -5.144  0.00  0.00    +0.033 C 
BRANCH  17  19
ATOM     19  C   UNL     1      -4.129  -5.906  -6.328  0.00  0.00    -0.027 A 
ATOM     20  C   UNL     1      -4.963  -6.698  -5.561  0.00  0.00    +0.005 A 
ATOM     21  C   UNL     1      -5.742  -7.668  -6.164  0.00  0.00    +0.000 A 
ATOM     22  C   UNL     1      -5.679  -7.853  -7.533  0.00  0.00    +0.000 A 
ATOM     23  C   UNL     1      -4.841  -7.064  -8.299  0.00  0.00    +0.000 A 
ATOM     24  C   UNL     1      -4.066  -6.091  -7.697  0.00  0.00    +0.005 A 
ENDBRANCH  17  19
ENDBRANCH  13  17
ENDBRANCH   3   9
BRANCH   2  25
ATOM     25  N   UNL     1      -3.528  -1.673   0.668  0.00  0.00    -0.320 N 
ATOM     26  C   UNL     1      -2.516  -2.622   1.153  0.00  0.00    +0.088 C 
ATOM     27  C   UNL     1      -1.135  -1.966   1.093  0.00  0.00    -0.060 C 
ATOM     28  N   UNL     1      -0.850  -1.557  -0.290  0.00  0.00    +0.382 N 
ATOM     29  C   UNL     1      -1.861  -0.608  -0.774  0.00  0.00    -0.060 C 
ATOM     30  C   UNL     1      -3.243  -1.264  -0.714  0.00  0.00    +0.088 C 
ATOM     31  H   UNL     1      -0.893  -2.454  -0.925  0.00  0.00    -0.082 HD
BRANCH  28  32
ATOM     32  C   UNL     1       0.501  -0.991  -0.403  0.00  0.00    -0.082 C 
ATOM     33  C   UNL     1       0.856  -0.808  -1.880  0.00  0.00    -0.017 C 
ENDBRANCH  28  32
ENDBRANCH   2  25
BRANCH   1  35
ATOM     34  C   UNL     1      -5.710   0.803   1.709  0.00  0.00    +0.027 C 
ATOM     35  C   UNL     1      -5.281  -0.478   2.426  0.00  0.00    +0.123 C 
ENDBRANCH   1  35
BRANCH   5  36
ATOM     36  C   UNL     1      -8.655  -3.785   1.132  0.00  0.00    +0.105 C 
ATOM     37  N   UNL     1      -9.707  -4.200   1.242  0.00  0.00    -0.191 NA
ENDBRANCH   5  36
TORSDOF 7
