REMARK  Name = ZINC45311243
REMARK  9 active torsions:
REMARK  status: ('A' for Active; 'I' for Inactive)
REMARK    1  A    between atoms: C_1  and  C_2
REMARK    2  A    between atoms: C_2  and  O_3
REMARK    3  A    between atoms: O_3  and  C_4
REMARK    4  A    between atoms: C_4  and  C_6
REMARK    5  A    between atoms: C_7  and  C_14
REMARK    6  A    between atoms: C_8  and  C_12
REMARK    7  A    between atoms: C_9  and  N_11
REMARK    8  A    between atoms: C_14  and  N_15
REMARK    9  A    between atoms: C_18  and  C_21
REMARK                            x       y       z     vdW  Elec       q    Type
REMARK                         _______ _______ _______ _____ _____    ______ ____
ROOT
ATOM      1  C   UNL     1       1.474  -2.354   2.430  0.00  0.00    +0.100 A 
ATOM      2  C   UNL     1       1.693  -3.679   2.752  0.00  0.00    -0.024 A 
ATOM      3  C   UNL     1       2.390  -3.913   3.928  0.00  0.00    +0.082 A 
ATOM      4  C   UNL     1       2.802  -2.805   4.670  0.00  0.00    +0.081 A 
ATOM      5  S   UNL     1       2.256  -1.491   3.778  0.00  0.00    -0.066 S 
ENDROOT
BRANCH   4   6
ATOM      6  N   UNL     1       3.498  -2.792   5.857  0.00  0.00    -0.352 N 
ATOM      7  H   UNL     1       3.762  -3.628   6.274  0.00  0.00    +0.143 HD
ATOM      8  H   UNL     1       3.727  -1.948   6.277  0.00  0.00    +0.143 HD
ENDBRANCH   4   6
BRANCH   1   9
ATOM      9  C   UNL     1       0.801  -1.815   1.305  0.00  0.00    +0.346 C 
ATOM     10  O   UNL     1       0.321  -2.558   0.469  0.00  0.00    -0.244 OA
BRANCH   9  11
ATOM     11  O   UNL     1       0.693  -0.477   1.160  0.00  0.00    -0.461 OA
BRANCH  11  13
ATOM     12  C   UNL     1      -0.019   1.526   0.010  0.00  0.00    +0.048 C 
ATOM     13  C   UNL     1       0.002  -0.004   0.002  0.00  0.00    +0.229 C 
ENDBRANCH  11  13
ENDBRANCH   9  11
ENDBRANCH   1   9
BRANCH   3  14
ATOM     14  C   UNL     1       2.676  -5.246   4.365  0.00  0.00    +0.102 C 
ATOM     15  N   UNL     1       2.904  -6.304   4.713  0.00  0.00    -0.191 NA
ENDBRANCH   3  14
BRANCH   2  16
ATOM     16  C   UNL     1       1.203  -4.804   1.877  0.00  0.00    -0.040 C 
BRANCH  16  17
ATOM     17  N   UNL     1       2.237  -5.143   0.890  0.00  0.00    +0.382 N 
ATOM     18  C   UNL     1       3.421  -5.666   1.584  0.00  0.00    -0.078 C 
ATOM     19  C   UNL     1       4.530  -5.945   0.568  0.00  0.00    -0.006 C 
ATOM     20  C   UNL     1       4.036  -6.977  -0.450  0.00  0.00    +0.071 C 
ATOM     21  C   UNL     1       2.759  -6.452  -1.114  0.00  0.00    -0.006 C 
ATOM     22  C   UNL     1       1.715  -6.155  -0.036  0.00  0.00    -0.078 C 
ATOM     23  H   UNL     1       2.492  -4.315   0.373  0.00  0.00    -0.081 HD
BRANCH  20  24
ATOM     24  C   UNL     1       5.095  -7.198  -1.499  0.00  0.00    +0.213 C 
ATOM     25  O   UNL     1       6.144  -6.591  -1.439  0.00  0.00    -0.276 OA
ATOM     26  N   UNL     1       4.878  -8.070  -2.503  0.00  0.00    -0.329 N 
ATOM     27  H   UNL     1       4.040  -8.556  -2.550  0.00  0.00    +0.145 HD
ATOM     28  H   UNL     1       5.560  -8.213  -3.178  0.00  0.00    +0.145 HD
ENDBRANCH  20  24
ENDBRANCH  16  17
ENDBRANCH   2  16
TORSDOF 8
