REMARK  Name = ZINC09135470
REMARK  12 active torsions:
REMARK  status: ('A' for Active; 'I' for Inactive)
REMARK    1  A    between atoms: C_1  and  C_2
REMARK    2  A    between atoms: C_2  and  C_3
REMARK    3  A    between atoms: C_2  and  C_4
REMARK    4  A    between atoms: C_7  and  N_10
REMARK    5  A    between atoms: C_11  and  C_13
REMARK    6  A    between atoms: N_15  and  C_16
REMARK    7  A    between atoms: C_16  and  C_17
REMARK    8  A    between atoms: C_17  and  C_19
REMARK    9  A    between atoms: C_17  and  N_65
REMARK   10  A    between atoms: N_28  and  C_29
REMARK   11  A    between atoms: C_30  and  N_65
REMARK   12  A    between atoms: C_31  and  N_65
REMARK                            x       y       z     vdW  Elec       q    Type
REMARK                         _______ _______ _______ _____ _____    ______ ____
ROOT
ATOM      1  C   UNL     1      -3.657   0.763  -4.890  0.00  0.00    +0.299 C 
ATOM      2  O   UNL     1      -3.403   1.725  -5.586  0.00  0.00    -0.265 OA
ATOM      3  N   UNL     1      -3.743   0.903  -3.553  0.00  0.00    -0.309 N 
ATOM      4  H   UNL     1      -3.946   0.134  -2.997  0.00  0.00    +0.149 HD
ENDROOT
BRANCH   1   6
ATOM      5  N   UNL     1      -3.789  -0.715  -6.855  0.00  0.00    -0.278 N 
ATOM      6  C   UNL     1      -3.875  -0.575  -5.517  0.00  0.00    +0.303 C 
ATOM      7  O   UNL     1      -4.129  -1.537  -4.821  0.00  0.00    -0.265 OA
ATOM      8  H   UNL     1      -3.512   0.035  -7.404  0.00  0.00    +0.155 HD
BRANCH   5  12
ATOM      9  C   UNL     1      -4.711  -4.367  -8.631  0.00  0.00    -0.045 A 
ATOM     10  C   UNL     1      -5.382  -3.966  -7.490  0.00  0.00    +0.006 A 
ATOM     11  C   UNL     1      -5.078  -2.755  -6.898  0.00  0.00    +0.023 A 
ATOM     12  C   UNL     1      -4.098  -1.940  -7.450  0.00  0.00    +0.034 A 
ATOM     13  C   UNL     1      -3.430  -2.344  -8.600  0.00  0.00    +0.023 A 
ATOM     14  C   UNL     1      -3.735  -3.558  -9.183  0.00  0.00    +0.006 A 
BRANCH   9  16
ATOM     15  C   UNL     1      -5.527  -5.452 -10.706  0.00  0.00    +0.012 C 
ATOM     16  C   UNL     1      -5.045  -5.689  -9.273  0.00  0.00    +0.013 C 
ATOM     17  C   UNL     1      -3.797  -6.574  -9.294  0.00  0.00    +0.012 C 
ENDBRANCH   9  16
ENDBRANCH   5  12
ENDBRANCH   1   6
BRANCH   3  18
ATOM     18  C   UNL     1      -3.530   2.216  -2.938  0.00  0.00    +0.094 C 
BRANCH  18  19
ATOM     19  C   UNL     1      -3.563   2.077  -1.415  0.00  0.00    -0.021 C 
BRANCH  19  20
ATOM     20  C   UNL     1      -3.301   3.419  -0.782  0.00  0.00    -0.059 A 
ATOM     21  C   UNL     1      -2.025   3.952  -0.791  0.00  0.00    +0.004 A 
ATOM     22  C   UNL     1      -1.788   5.181  -0.215  0.00  0.00    +0.023 A 
ATOM     23  C   UNL     1      -2.828   5.890   0.390  0.00  0.00    +0.033 A 
ATOM     24  C   UNL     1      -4.102   5.352   0.398  0.00  0.00    -0.026 A 
ATOM     25  C   UNL     1      -4.333   4.117  -0.188  0.00  0.00    +0.007 A 
ATOM     26  C   UNL     1      -5.270   6.071   1.025  0.00  0.00    +0.038 C 
ATOM     27  C   UNL     1      -4.758   7.194   1.930  0.00  0.00    +0.024 C 
ATOM     28  C   UNL     1      -3.693   7.978   1.153  0.00  0.00    +0.105 C 
ATOM     29  N   UNL     1      -2.521   7.121   0.969  0.00  0.00    -0.333 N 
ATOM     30  C   UNL     1      -1.476   7.816   0.205  0.00  0.00    +0.129 C 
ENDBRANCH  19  20
BRANCH  19  33
ATOM     31  C   UNL     1      -1.384   1.142  -1.907  0.00  0.00    -0.096 C 
ATOM     32  C   UNL     1      -2.102   1.395   0.392  0.00  0.00    -0.096 C 
ATOM     33  N   UNL     1      -2.541   1.098  -0.988  0.00  0.00    +0.382 N 
ATOM     34  H   UNL     1      -2.950   0.157  -1.012  0.00  0.00    -0.082 HD
ENDBRANCH  19  33
ENDBRANCH  18  19
ENDBRANCH   3  18
TORSDOF 7
