REMARK  Name = ZINC41005980
REMARK  8 active torsions:
REMARK  status: ('A' for Active; 'I' for Inactive)
REMARK    1  A    between atoms: C_1  and  C_2
REMARK    2  A    between atoms: C_2  and  O_3
REMARK    3  A    between atoms: O_3  and  C_4
REMARK    4  A    between atoms: C_6  and  C_21
REMARK    5  A    between atoms: C_9  and  O_10
REMARK    6  A    between atoms: O_10  and  C_11
REMARK    7  A    between atoms: C_11  and  C_12
REMARK    8  A    between atoms: C_27  and  C_31
REMARK                            x       y       z     vdW  Elec       q    Type
REMARK                         _______ _______ _______ _____ _____    ______ ____
ROOT
ATOM      1  C   UNL     1      -1.498  -1.849   0.006  0.00  0.00    +0.164 A 
ATOM      2  C   UNL     1      -0.391  -2.676  -0.003  0.00  0.00    +0.061 A 
ATOM      3  C   UNL     1      -0.558  -4.062  -0.008  0.00  0.00    +0.022 A 
ATOM      4  C   UNL     1      -1.843  -4.608  -0.004  0.00  0.00    +0.030 A 
ATOM      5  C   UNL     1      -2.945  -3.777   0.005  0.00  0.00    +0.064 A 
ATOM      6  C   UNL     1      -2.778  -2.399   0.016  0.00  0.00    +0.176 A 
ATOM      7 BR   UNL     1      -4.684  -4.518   0.010  0.00  0.00    -0.046 Br
ENDROOT
BRANCH   3   8
ATOM      8  C   UNL     1       0.624  -4.951  -0.019  0.00  0.00    +0.139 A 
ATOM      9  N   UNL     1       0.580  -6.319  -0.030  0.00  0.00    -0.338 N 
ATOM     10  H   UNL     1      -0.219  -6.869  -0.032  0.00  0.00    +0.167 HD
ATOM     11  C   UNL     1       1.886  -6.769  -0.038  0.00  0.00    +0.066 A 
ATOM     12  C   UNL     1       2.471  -8.028  -0.050  0.00  0.00    +0.028 A 
ATOM     13  C   UNL     1       3.845  -8.143  -0.055  0.00  0.00    +0.005 A 
ATOM     14  C   UNL     1       4.646  -7.010  -0.047  0.00  0.00    -0.048 A 
ATOM     15  C   UNL     1       4.089  -5.763  -0.035  0.00  0.00    +0.033 A 
ATOM     16  C   UNL     1       2.697  -5.621  -0.031  0.00  0.00    +0.090 A 
ATOM     17  N   UNL     1       1.871  -4.547  -0.024  0.00  0.00    -0.228 NA
ATOM     18  C   UNL     1       6.146  -7.156  -0.051  0.00  0.00    +0.044 C 
ENDBRANCH   3   8
BRANCH   1  19
ATOM     19  O   UNL     1      -1.339  -0.499   0.012  0.00  0.00    -0.489 OA
BRANCH  19  21
ATOM     20  C   UNL     1      -0.019   1.526   0.010  0.00  0.00    +0.048 C 
ATOM     21  C   UNL     1       0.002  -0.004   0.002  0.00  0.00    +0.226 C 
ENDBRANCH  19  21
ENDBRANCH   1  19
BRANCH   6  22
ATOM     22  O   UNL     1      -3.866  -1.585   0.030  0.00  0.00    -0.483 OA
BRANCH  22  23
ATOM     23  C   UNL     1      -4.397  -1.190  -1.236  0.00  0.00    +0.266 C 
BRANCH  23  24
ATOM     24  C   UNL     1      -5.592  -0.295  -1.023  0.00  0.00    +0.008 A 
ATOM     25  C   UNL     1      -5.999   0.020   0.260  0.00  0.00    +0.010 A 
ATOM     26  C   UNL     1      -7.094   0.840   0.456  0.00  0.00    +0.020 A 
ATOM     27  C   UNL     1      -7.783   1.347  -0.632  0.00  0.00    +0.042 A 
ATOM     28  C   UNL     1      -7.375   1.032  -1.915  0.00  0.00    +0.040 A 
ATOM     29  C   UNL     1      -6.276   0.215  -2.111  0.00  0.00    +0.049 A 
ATOM     30 CL   UNL     1      -5.761  -0.175  -3.723  0.00  0.00    -0.083 Cl
ATOM     31 CL   UNL     1      -9.159   2.376  -0.385  0.00  0.00    -0.083 Cl
ENDBRANCH  23  24
ENDBRANCH  22  23
ENDBRANCH   6  22
TORSDOF 6
