REMARK  Name = ZINC01200818
REMARK  4 active torsions:
REMARK  status: ('A' for Active; 'I' for Inactive)
REMARK    1  A    between atoms: C_3  and  N_25
REMARK    2  A    between atoms: C_4  and  C_8
REMARK    3  A    between atoms: N_10  and  C_11
REMARK    4  A    between atoms: C_12  and  C_22
REMARK                            x       y       z     vdW  Elec       q    Type
REMARK                         _______ _______ _______ _____ _____    ______ ____
ROOT
ATOM      1  C   UNL     1      -2.430   1.808   3.232  0.00  0.00    +0.085 A 
ATOM      2  C   UNL     1      -1.685   2.887   2.803  0.00  0.00    +0.068 A 
ATOM      3  C   UNL     1      -0.775   2.697   1.666  0.00  0.00    -0.023 A 
ATOM      4  C   UNL     1      -0.839   1.474   1.116  0.00  0.00    -0.004 A 
ATOM      5  S   UNL     1      -1.972   0.557   2.128  0.00  0.00    -0.077 S 
ATOM      6  C   UNL     1      -0.131   0.953  -0.103  0.00  0.00    +0.043 C 
ATOM      7  C   UNL     1      -0.923   1.455  -1.324  0.00  0.00    +0.005 C 
ATOM      8  C   UNL     1      -1.069   2.978  -1.209  0.00  0.00    +0.000 C 
ATOM      9  C   UNL     1       0.343   3.521  -1.244  0.00  0.00    +0.000 C 
ATOM     10  C   UNL     1       1.054   3.487   0.098  0.00  0.00    +0.005 C 
ATOM     11  C   UNL     1       0.135   3.855   1.257  0.00  0.00    +0.037 C 
ENDROOT
BRANCH   2  12
ATOM     12  C   UNL     1      -1.793   4.188   3.470  0.00  0.00    +0.244 C 
ATOM     13  O   UNL     1      -2.609   5.004   3.084  0.00  0.00    -0.270 OA
ATOM     14  N   UNL     1      -0.989   4.481   4.511  0.00  0.00    -0.325 N 
ATOM     15  H   UNL     1      -0.338   3.830   4.819  0.00  0.00    +0.145 HD
ATOM     16  H   UNL     1      -1.060   5.341   4.952  0.00  0.00    +0.145 HD
ENDBRANCH   2  12
BRANCH   1  19
ATOM     17  C   UNL     1      -3.972   0.590   4.552  0.00  0.00    +0.251 C 
ATOM     18  O   UNL     1      -3.766  -0.394   3.867  0.00  0.00    -0.270 OA
ATOM     19  N   UNL     1      -3.327   1.743   4.285  0.00  0.00    -0.275 N 
ATOM     20  H   UNL     1      -3.492   2.528   4.831  0.00  0.00    +0.156 HD
BRANCH  17  24
ATOM     21  C   UNL     1      -6.724   0.390   7.781  0.00  0.00    +0.022 A 
ATOM     22  C   UNL     1      -5.667  -0.500   7.721  0.00  0.00    +0.035 A 
ATOM     23  C   UNL     1      -4.770  -0.441   6.675  0.00  0.00    +0.138 A 
ATOM     24  C   UNL     1      -4.930   0.521   5.675  0.00  0.00    +0.069 A 
ATOM     25  C   UNL     1      -5.995   1.420   5.744  0.00  0.00    +0.035 A 
ATOM     26  C   UNL     1      -6.890   1.346   6.794  0.00  0.00    +0.042 A 
ATOM     27 CL   UNL     1      -8.220   2.458   6.878  0.00  0.00    -0.084 Cl
BRANCH  23  28
ATOM     28  N   UNL     1      -3.639  -1.394   6.612  0.00  0.00    +0.057 N 
ATOM     29  O   UNL     1      -3.567  -2.306   7.416  0.00  0.00    -0.126 OA
ATOM     30  O   UNL     1      -2.782  -1.267   5.756  0.00  0.00    -0.126 OA
ENDBRANCH  23  28
ENDBRANCH  17  24
ENDBRANCH   1  19
TORSDOF 4
