REMARK  Name = ZINC09135812
REMARK  9 active torsions:
REMARK  status: ('A' for Active; 'I' for Inactive)
REMARK    1  A    between atoms: C_1  and  N_2
REMARK    2  A    between atoms: C_10  and  C_12
REMARK    3  A    between atoms: C_12  and  C_14
REMARK    4  A    between atoms: C_12  and  N_70
REMARK    5  A    between atoms: C_14  and  N_15
REMARK    6  A    between atoms: C_16  and  C_18
REMARK    7  A    between atoms: N_20  and  C_21
REMARK    8  A    between atoms: C_21  and  C_22
REMARK    9  A    between atoms: C_22  and  C_23
REMARK                            x       y       z     vdW  Elec       q    Type
REMARK                         _______ _______ _______ _____ _____    ______ ____
ROOT
ATOM      1  N   UNL     1       4.718  -3.728   5.146  0.00  0.00    -0.309 N 
ATOM      2  C   UNL     1       5.861  -4.443   5.136  0.00  0.00    +0.299 C 
ATOM      3  O   UNL     1       6.484  -4.575   4.103  0.00  0.00    -0.265 OA
ATOM      4  H   UNL     1       4.220  -3.623   5.972  0.00  0.00    +0.149 HD
ENDROOT
BRANCH   2   5
ATOM      5  C   UNL     1       6.360  -5.073   6.395  0.00  0.00    +0.299 C 
ATOM      6  O   UNL     1       5.737  -4.941   7.428  0.00  0.00    -0.265 OA
ATOM      7  N   UNL     1       7.502  -5.788   6.385  0.00  0.00    -0.307 N 
ATOM      8  H   UNL     1       8.001  -5.894   5.559  0.00  0.00    +0.149 HD
BRANCH   7   9
ATOM      9  C   UNL     1       7.992  -6.406   7.620  0.00  0.00    +0.109 C 
BRANCH   9  10
ATOM     10  C   UNL     1       9.296  -7.154   7.334  0.00  0.00    +0.056 C 
BRANCH  10  11
ATOM     11  C   UNL     1       9.799  -7.789   8.604  0.00  0.00    -0.021 A 
ATOM     12  C   UNL     1      10.703  -7.273   9.452  0.00  0.00    +0.087 A 
ATOM     13  N   UNL     1      10.909  -8.133  10.496  0.00  0.00    -0.360 N 
ATOM     14  H   UNL     1      11.517  -7.977  11.235  0.00  0.00    +0.165 HD
ATOM     15  C   UNL     1      10.129  -9.256  10.337  0.00  0.00    +0.047 A 
ATOM     16  C   UNL     1       9.399  -9.090   9.146  0.00  0.00    +0.003 A 
ATOM     17  C   UNL     1       8.513 -10.084   8.727  0.00  0.00    +0.010 A 
ATOM     18  C   UNL     1       8.359 -11.216   9.478  0.00  0.00    +0.001 A 
ATOM     19  C   UNL     1       9.077 -11.385  10.654  0.00  0.00    +0.002 A 
ATOM     20  C   UNL     1       9.956 -10.416  11.086  0.00  0.00    +0.026 A 
ENDBRANCH  10  11
ENDBRANCH   9  10
ENDBRANCH   7   9
ENDBRANCH   2   5
BRANCH   1  21
ATOM     21  C   UNL     1       4.229  -3.111   3.911  0.00  0.00    +0.094 C 
BRANCH  21  22
ATOM     22  C   UNL     1       2.842  -2.512   4.155  0.00  0.00    -0.020 C 
BRANCH  22  32
ATOM     23  C   UNL     1       0.311  -0.093  -1.103  0.00  0.00    +0.129 C 
ATOM     24  N   UNL     1       1.346   0.616  -0.338  0.00  0.00    -0.333 N 
ATOM     25  C   UNL     1       0.926   1.985  -0.032  0.00  0.00    +0.105 C 
ATOM     26  C   UNL     1       2.029   2.665   0.789  0.00  0.00    +0.024 C 
ATOM     27  C   UNL     1       2.079   1.989   2.161  0.00  0.00    +0.038 C 
ATOM     28  C   UNL     1       2.074   0.491   1.989  0.00  0.00    -0.026 A 
ATOM     29  C   UNL     1       1.716  -0.109   0.794  0.00  0.00    +0.033 A 
ATOM     30  C   UNL     1       1.720  -1.502   0.698  0.00  0.00    +0.023 A 
ATOM     31  C   UNL     1       2.082  -2.274   1.781  0.00  0.00    +0.004 A 
ATOM     32  C   UNL     1       2.443  -1.670   2.971  0.00  0.00    -0.059 A 
ATOM     33  C   UNL     1       2.439  -0.292   3.072  0.00  0.00    +0.007 A 
ENDBRANCH  22  32
BRANCH  22  38
ATOM     34  C   UNL     1       1.979  -4.192   5.691  0.00  0.00    -0.078 C 
ATOM     35  C   UNL     1       0.609  -4.889   5.887  0.00  0.00    -0.020 C 
ATOM     36  C   UNL     1      -0.377  -3.910   5.210  0.00  0.00    -0.020 C 
ATOM     37  C   UNL     1       0.482  -3.085   4.234  0.00  0.00    -0.078 C 
ATOM     38  N   UNL     1       1.845  -3.607   4.348  0.00  0.00    +0.385 N 
ATOM     39  H   UNL     1       1.998  -4.332   3.637  0.00  0.00    -0.081 HD
ENDBRANCH  22  38
ENDBRANCH  21  22
ENDBRANCH   1  21
TORSDOF 8
