REMARK  Name = ZINC08969568
REMARK  11 active torsions:
REMARK  status: ('A' for Active; 'I' for Inactive)
REMARK    1  A    between atoms: C_1  and  C_2
REMARK    2  A    between atoms: C_4  and  O_33
REMARK    3  A    between atoms: C_5  and  S_9
REMARK    4  A    between atoms: C_7  and  C_8
REMARK    5  A    between atoms: S_9  and  N_12
REMARK    6  A    between atoms: N_12  and  C_13
REMARK    7  A    between atoms: C_13  and  C_14
REMARK    8  A    between atoms: C_14  and  C_16
REMARK    9  A    between atoms: C_14  and  S_25
REMARK   10  A    between atoms: S_25  and  C_28
REMARK   11  A    between atoms: O_33  and  C_34
REMARK                            x       y       z     vdW  Elec       q    Type
REMARK                         _______ _______ _______ _____ _____    ______ ____
ROOT
ATOM      1  C   UNL     1      -2.893   4.532   1.806  0.00  0.00    +0.182 C 
ENDROOT
BRANCH   1   2
ATOM      2  C   UNL     1      -1.672   5.118   2.466  0.00  0.00    -0.018 A 
ATOM      3  C   UNL     1      -0.485   4.410   2.473  0.00  0.00    +0.009 A 
ATOM      4  C   UNL     1       0.640   4.946   3.073  0.00  0.00    +0.050 A 
ATOM      5  C   UNL     1       0.576   6.190   3.678  0.00  0.00    +0.166 A 
ATOM      6  C   UNL     1      -0.621   6.902   3.676  0.00  0.00    +0.167 A 
ATOM      7  C   UNL     1      -1.743   6.361   3.068  0.00  0.00    +0.055 A 
ATOM      8  O   UNL     1      -0.427   8.085   4.328  0.00  0.00    -0.453 OA
ATOM      9  C   UNL     1       1.000   8.270   4.372  0.00  0.00    +0.466 C 
ATOM     10  O   UNL     1       1.520   6.928   4.332  0.00  0.00    -0.453 OA
ENDBRANCH   1   2
BRANCH   1  11
ATOM     11  S   UNL     1      -2.551   4.243   0.049  0.00  0.00    +0.011 S 
ATOM     12  O   UNL     1      -2.046   5.427  -0.553  0.00  0.00    -0.168 OA
ATOM     13  O   UNL     1      -3.625   3.528  -0.548  0.00  0.00    -0.168 OA
BRANCH  11  14
ATOM     14  C   UNL     1      -1.196   3.116   0.030  0.00  0.00    +0.126 A 
ATOM     15  C   UNL     1      -1.213   1.761   0.017  0.00  0.00    +0.035 A 
ATOM     16  C   UNL     1      -0.013   1.076   0.008  0.00  0.00    +0.009 A 
ATOM     17  C   UNL     1       1.146   1.780   0.001  0.00  0.00    +0.047 A 
ATOM     18  S   UNL     1       0.555   3.464   0.015  0.00  0.00    -0.078 S 
ENDBRANCH  11  14
ENDBRANCH   1  11
BRANCH   1  19
ATOM     19  C   UNL     1      -3.251   3.206   2.481  0.00  0.00    +0.137 C 
BRANCH  19  20
ATOM     20  N   UNL     1      -4.438   2.636   1.840  0.00  0.00    -0.188 NA
ATOM     21  H   UNL     1      -4.990   3.187   1.263  0.00  0.00    +0.148 HD
BRANCH  20  22
ATOM     22  S   UNL     1      -4.838   1.050   2.099  0.00  0.00    +0.062 S 
ATOM     23  O   UNL     1      -6.035   0.809   1.372  0.00  0.00    -0.153 OA
ATOM     24  O   UNL     1      -3.654   0.293   1.888  0.00  0.00    -0.153 OA
BRANCH  22  29
ATOM     25  C   UNL     1      -6.232   0.491   7.946  0.00  0.00    +0.044 C 
ATOM     26  C   UNL     1      -5.881   0.631   6.487  0.00  0.00    -0.044 A 
ATOM     27  C   UNL     1      -4.592   0.963   6.116  0.00  0.00    +0.051 A 
ATOM     28  C   UNL     1      -4.270   1.092   4.773  0.00  0.00    +0.147 A 
ATOM     29  C   UNL     1      -5.244   0.887   3.806  0.00  0.00    +0.147 A 
ATOM     30  C   UNL     1      -6.532   0.561   4.182  0.00  0.00    +0.036 A 
ATOM     31  C   UNL     1      -6.849   0.428   5.521  0.00  0.00    -0.045 A 
ATOM     32  C   UNL     1      -8.254   0.065   5.929  0.00  0.00    +0.044 C 
BRANCH  28  33
ATOM     33  O   UNL     1      -3.003   1.417   4.405  0.00  0.00    -0.493 OA
ATOM     34  C   UNL     1      -2.053   1.613   5.455  0.00  0.00    +0.277 C 
ENDBRANCH  28  33
ENDBRANCH  22  29
ENDBRANCH  20  22
ENDBRANCH  19  20
ENDBRANCH   1  19
TORSDOF 8
