REMARK  Name = ZINC40055346
REMARK  10 active torsions:
REMARK  status: ('A' for Active; 'I' for Inactive)
REMARK    1  A    between atoms: C_3  and  C_6
REMARK    2  A    between atoms: C_8  and  C_18
REMARK    3  A    between atoms: N_12  and  C_13
REMARK    4  A    between atoms: C_13  and  C_14
REMARK    5  A    between atoms: C_14  and  C_15
REMARK    6  A    between atoms: C_15  and  O_16
REMARK    7  A    between atoms: C_18  and  C_20
REMARK    8  A    between atoms: C_23  and  O_26
REMARK    9  A    between atoms: O_26  and  C_27
REMARK   10  A    between atoms: C_27  and  C_28
REMARK                            x       y       z     vdW  Elec       q    Type
REMARK                         _______ _______ _______ _____ _____    ______ ____
ROOT
ATOM      1  C   UNL     1       3.576   0.735  -0.573  0.00  0.00    +0.151 C 
ATOM      2  C   UNL     1       4.434   1.678  -1.384  0.00  0.00    +0.077 C 
ATOM      3  C   UNL     1       5.616   1.787  -0.735  0.00  0.00    +0.249 C 
ATOM      4  C   UNL     1       5.581   0.950   0.483  0.00  0.00    +0.288 C 
ATOM      5  O   UNL     1       6.493   0.836   1.278  0.00  0.00    -0.266 OA
ATOM      6  N   UNL     1       4.388   0.333   0.582  0.00  0.00    -0.283 N 
ATOM      7  O   UNL     1       6.665   2.542  -1.137  0.00  0.00    -0.282 OA
ENDROOT
BRANCH   1  10
ATOM      8  C   UNL     1       1.903  -2.004  -2.625  0.00  0.00    +0.008 A 
ATOM      9  C   UNL     1       2.003  -0.840  -1.886  0.00  0.00    +0.013 A 
ATOM     10  C   UNL     1       3.212  -0.473  -1.396  0.00  0.00    +0.015 A 
ATOM     11  S   UNL     1       4.263  -1.793  -1.981  0.00  0.00    -0.099 S 
ATOM     12  C   UNL     1       3.019  -2.744  -2.838  0.00  0.00    +0.045 A 
ENDBRANCH   1  10
BRANCH   2  13
ATOM     13  C   UNL     1       4.057   2.346  -2.634  0.00  0.00    +0.195 C 
ATOM     14  O   UNL     1       4.631   2.067  -3.670  0.00  0.00    -0.287 OA
BRANCH  13  15
ATOM     15  C   UNL     1       2.983   3.358  -2.635  0.00  0.00    +0.022 A 
ATOM     16  C   UNL     1       2.406   3.770  -1.429  0.00  0.00    +0.015 A 
ATOM     17  C   UNL     1       1.404   4.713  -1.435  0.00  0.00    +0.046 A 
ATOM     18  C   UNL     1       0.965   5.257  -2.637  0.00  0.00    +0.121 A 
ATOM     19  C   UNL     1       1.535   4.850  -3.838  0.00  0.00    +0.046 A 
ATOM     20  C   UNL     1       2.542   3.912  -3.841  0.00  0.00    +0.015 A 
BRANCH  18  21
ATOM     21  O   UNL     1      -0.023   6.187  -2.638  0.00  0.00    -0.487 OA
BRANCH  21  22
ATOM     22  C   UNL     1      -0.426   6.704  -3.908  0.00  0.00    +0.264 C 
BRANCH  22  23
ATOM     23  C   UNL     1      -1.525   7.717  -3.712  0.00  0.00    -0.010 A 
ATOM     24  C   UNL     1      -2.846   7.311  -3.712  0.00  0.00    +0.010 A 
ATOM     25  C   UNL     1      -3.855   8.239  -3.532  0.00  0.00    +0.039 A 
ATOM     26  C   UNL     1      -3.541   9.575  -3.353  0.00  0.00    +0.123 A 
ATOM     27  C   UNL     1      -2.217   9.981  -3.354  0.00  0.00    +0.039 A 
ATOM     28  C   UNL     1      -1.210   9.050  -3.528  0.00  0.00    +0.010 A 
ATOM     29  F   UNL     1      -4.526  10.483  -3.177  0.00  0.00    -0.205 F 
ENDBRANCH  22  23
ENDBRANCH  21  22
ENDBRANCH  18  21
ENDBRANCH  13  15
ENDBRANCH   2  13
BRANCH   6  30
ATOM     30  C   UNL     1       3.974  -0.578   1.652  0.00  0.00    +0.111 C 
BRANCH  30  31
ATOM     31  C   UNL     1       4.345  -2.013   1.272  0.00  0.00    +0.047 C 
BRANCH  31  32
ATOM     32  C   UNL     1       3.912  -2.964   2.390  0.00  0.00    +0.157 C 
BRANCH  32  33
ATOM     33  O   UNL     1       4.259  -4.304   2.035  0.00  0.00    -0.395 OA
ATOM     34  H   UNL     1       4.014  -4.963   2.699  0.00  0.00    +0.209 HD
ENDBRANCH  32  33
ENDBRANCH  31  32
ENDBRANCH  30  31
ENDBRANCH   6  30
TORSDOF 10
