REMARK  Name = ZINC31829133
REMARK  6 active torsions:
REMARK  status: ('A' for Active; 'I' for Inactive)
REMARK    1  A    between atoms: C_1  and  C_2
REMARK    2  A    between atoms: N_13  and  C_16
REMARK    3  A    between atoms: C_16  and  C_17
REMARK    4  A    between atoms: N_19  and  N_20
REMARK    5  A    between atoms: C_21  and  C_22
REMARK    6  A    between atoms: C_27  and  O_28
REMARK                            x       y       z     vdW  Elec       q    Type
REMARK                         _______ _______ _______ _____ _____    ______ ____
ROOT
ATOM      1  C   UNL     1       5.725  -2.491  -1.022  0.00  0.00    +0.223 C 
ENDROOT
BRANCH   1  13
ATOM      2  C   UNL     1       9.882  -6.052  -8.437  0.00  0.00    +0.008 C 
ATOM      3  C   UNL     1       9.116  -5.836  -7.130  0.00  0.00    -0.009 C 
ATOM      4  C   UNL     1       8.850  -4.341  -6.931  0.00  0.00    +0.008 C 
ATOM      5  C   UNL     1       7.876  -4.137  -5.770  0.00  0.00    +0.037 C 
ATOM      6  C   UNL     1       8.405  -4.880  -4.547  0.00  0.00    -0.023 A 
ATOM      7  C   UNL     1       9.328  -5.856  -4.679  0.00  0.00    -0.004 A 
ATOM      8  S   UNL     1       9.639  -6.421  -3.028  0.00  0.00    -0.073 S 
ATOM      9  C   UNL     1       8.525  -5.343  -2.164  0.00  0.00    +0.116 A 
ATOM     10  C   UNL     1       7.948  -4.579  -3.191  0.00  0.00    +0.076 A 
ATOM     11  C   UNL     1       6.986  -3.603  -2.772  0.00  0.00    +0.263 A 
ATOM     12  O   UNL     1       6.430  -2.890  -3.590  0.00  0.00    -0.267 OA
ATOM     13  N   UNL     1       6.707  -3.486  -1.461  0.00  0.00    -0.290 N 
ATOM     14  C   UNL     1       7.321  -4.267  -0.535  0.00  0.00    +0.203 A 
ATOM     15  N   UNL     1       8.198  -5.169  -0.887  0.00  0.00    -0.230 NA
ATOM     16  C   UNL     1       9.951  -6.350  -5.949  0.00  0.00    +0.046 C 
ENDBRANCH   1  13
BRANCH   1  17
ATOM     17  C   UNL     1       4.352  -3.113  -1.006  0.00  0.00    +0.252 C 
ATOM     18  O   UNL     1       4.208  -4.273  -1.329  0.00  0.00    -0.272 OA
ATOM     19  N   UNL     1       3.284  -2.380  -0.633  0.00  0.00    -0.206 N 
ATOM     20  H   UNL     1       3.415  -1.328  -0.340  0.00  0.00    +0.177 HD
BRANCH  19  21
ATOM     21  N   UNL     1       2.008  -2.959  -0.618  0.00  0.00    -0.188 NA
ATOM     22  C   UNL     1       0.965  -2.224  -0.381  0.00  0.00    +0.142 C 
BRANCH  22  23
ATOM     23  C   UNL     1       1.027  -0.767  -0.595  0.00  0.00    +0.037 A 
ATOM     24  C   UNL     1       1.953  -0.227  -1.490  0.00  0.00    +0.028 A 
ATOM     25  C   UNL     1       2.005   1.138  -1.685  0.00  0.00    +0.019 A 
ATOM     26  C   UNL     1       1.143   1.976  -0.996  0.00  0.00    +0.019 A 
ATOM     27  C   UNL     1       0.222   1.453  -0.108  0.00  0.00    +0.047 A 
ATOM     28  C   UNL     1       0.156   0.085   0.100  0.00  0.00    +0.126 A 
ATOM     29 BR   UNL     1       3.264   1.870  -2.892  0.00  0.00    -0.050 Br
BRANCH  28  30
ATOM     30  O   UNL     1      -0.749  -0.430   0.972  0.00  0.00    -0.506 OA
ATOM     31  H   UNL     1      -1.431   0.240   1.516  0.00  0.00    +0.292 HD
ENDBRANCH  28  30
ENDBRANCH  22  23
ENDBRANCH  19  21
ENDBRANCH   1  17
TORSDOF 5
