REMARK  Name = ZINC09970434
REMARK  12 active torsions:
REMARK  status: ('A' for Active; 'I' for Inactive)
REMARK    1  A    between atoms: C_1  and  C_2
REMARK    2  A    between atoms: C_2  and  C_27
REMARK    3  A    between atoms: C_3  and  C_25
REMARK    4  A    between atoms: C_3  and  O_26
REMARK    5  A    between atoms: C_4  and  C_23
REMARK    6  A    between atoms: C_4  and  O_24
REMARK    7  A    between atoms: C_5  and  C_21
REMARK    8  A    between atoms: C_5  and  O_22
REMARK    9  A    between atoms: C_6  and  C_8
REMARK   10  A    between atoms: C_6  and  O_9
REMARK   11  A    between atoms: O_9  and  C_10
REMARK   12  A    between atoms: C_27  and  O_28
REMARK                            x       y       z     vdW  Elec       q    Type
REMARK                         _______ _______ _______ _____ _____    ______ ____
ROOT
ATOM      1  C   UNL     1      -0.610   3.800   2.463  0.00  0.00    +0.047 C 
ATOM      2  C   UNL     1      -0.799   3.295   1.028  0.00  0.00    +0.125 C 
ATOM      3  C   UNL     1      -0.794   1.773   1.015  0.00  0.00    +0.125 C 
ATOM      4  C   UNL     1      -2.149   1.140   1.283  0.00  0.00    +0.129 C 
ATOM      5  C   UNL     1      -3.325   1.865   0.647  0.00  0.00    +0.159 C 
ATOM      6  C   UNL     1      -3.232   3.376   0.846  0.00  0.00    +0.242 C 
ATOM      7  O   UNL     1      -1.961   3.854   0.448  0.00  0.00    -0.326 OA
ATOM      8  C   UNL     1      -4.308   4.047  -0.027  0.00  0.00    +0.092 C 
ATOM      9  C   UNL     1      -3.430   1.545  -0.846  0.00  0.00    +0.051 C 
ATOM     10  C   UNL     1      -2.126  -0.308   0.753  0.00  0.00    +0.047 C 
ATOM     11  C   UNL     1      -0.217   1.272  -0.316  0.00  0.00    +0.047 C 
ENDROOT
BRANCH   5  12
ATOM     12  O   UNL     1      -4.536   1.406   1.281  0.00  0.00    -0.379 OA
ATOM     13  H   UNL     1      -5.340   1.818   0.936  0.00  0.00    +0.211 HD
ENDBRANCH   5  12
BRANCH   4  14
ATOM     14  O   UNL     1      -2.360   1.070   2.704  0.00  0.00    -0.383 OA
ATOM     15  H   UNL     1      -3.207   0.676   2.957  0.00  0.00    +0.210 HD
ENDBRANCH   4  14
BRANCH   3  16
ATOM     16  O   UNL     1       0.109   1.333   2.056  0.00  0.00    -0.383 OA
ATOM     17  H   UNL     1       1.010   1.672   1.963  0.00  0.00    +0.210 HD
ENDBRANCH   3  16
BRANCH   6  18
ATOM     18  O   UNL     1      -3.506   3.700   2.211  0.00  0.00    -0.458 OA
BRANCH  18  19
ATOM     19  C   UNL     1      -3.402   5.007   2.568  0.00  0.00    +0.125 A 
ATOM     20  C   UNL     1      -2.971   5.947   1.627  0.00  0.00    +0.046 A 
ATOM     21  C   UNL     1      -2.863   7.263   1.953  0.00  0.00    +0.012 A 
ATOM     22  C   UNL     1      -3.176   7.686   3.256  0.00  0.00    -0.017 A 
ATOM     23  C   UNL     1      -3.068   9.037   3.629  0.00  0.00    +0.023 A 
ATOM     24  C   UNL     1      -3.379   9.413   4.900  0.00  0.00    +0.018 A 
ATOM     25  C   UNL     1      -3.803   8.476   5.842  0.00  0.00    +0.016 A 
ATOM     26  C   UNL     1      -3.918   7.160   5.517  0.00  0.00    +0.010 A 
ATOM     27  C   UNL     1      -3.607   6.734   4.214  0.00  0.00    -0.014 A 
ATOM     28  C   UNL     1      -3.714   5.384   3.843  0.00  0.00    +0.054 A 
ATOM     29 BR   UNL     1      -3.232  11.232   5.396  0.00  0.00    -0.050 Br
ENDBRANCH  18  19
ENDBRANCH   6  18
BRANCH   2  30
ATOM     30  C   UNL     1       0.418   3.778   0.208  0.00  0.00    +0.193 C 
BRANCH  30  31
ATOM     31  O   UNL     1       0.516   5.201   0.293  0.00  0.00    -0.392 OA
ATOM     32  H   UNL     1       1.260   5.574  -0.199  0.00  0.00    +0.210 HD
ENDBRANCH  30  31
ENDBRANCH   2  30
TORSDOF 7
