REMARK  Name = ZINC38686486
REMARK  9 active torsions:
REMARK  status: ('A' for Active; 'I' for Inactive)
REMARK    1  A    between atoms: C_5  and  C_7
REMARK    2  A    between atoms: C_7  and  O_9
REMARK    3  A    between atoms: O_9  and  C_10
REMARK    4  A    between atoms: C_17  and  N_38
REMARK    5  A    between atoms: C_18  and  C_36
REMARK    6  A    between atoms: C_19  and  C_21
REMARK    7  A    between atoms: C_24  and  O_27
REMARK    8  A    between atoms: O_27  and  C_28
REMARK    9  A    between atoms: C_28  and  C_29
REMARK                            x       y       z     vdW  Elec       q    Type
REMARK                         _______ _______ _______ _____ _____    ______ ____
ROOT
ATOM      1  C   UNL     1       0.070  -4.213  -0.056  0.00  0.00    +0.135 A 
ATOM      2  C   UNL     1       1.257  -4.932  -0.029  0.00  0.00    +0.047 A 
ATOM      3  C   UNL     1       1.228  -6.312  -0.071  0.00  0.00    +0.012 A 
ATOM      4  C   UNL     1       0.020  -6.982  -0.140  0.00  0.00    +0.008 A 
ATOM      5  C   UNL     1      -1.168  -6.269  -0.167  0.00  0.00    +0.138 A 
ATOM      6  C   UNL     1      -1.141  -4.881  -0.120  0.00  0.00    +0.093 A 
ATOM      7  O   UNL     1      -2.362  -6.908  -0.235  0.00  0.00    -0.441 OA
ATOM      8  C   UNL     1      -2.448  -8.205   0.106  0.00  0.00    +0.199 C 
ATOM      9  C   UNL     1      -1.359  -9.008   0.150  0.00  0.00    +0.098 C 
ATOM     10  C   UNL     1       0.010  -8.488  -0.185  0.00  0.00    +0.098 C 
ENDROOT
BRANCH  10  11
ATOM     11  C   UNL     1       0.396  -8.948  -1.567  0.00  0.00    -0.034 A 
ATOM     12  C   UNL     1      -0.364  -8.569  -2.658  0.00  0.00    +0.008 A 
ATOM     13  C   UNL     1      -0.013  -8.990  -3.926  0.00  0.00    +0.046 A 
ATOM     14  C   UNL     1       1.103  -9.794  -4.104  0.00  0.00    +0.121 A 
ATOM     15  C   UNL     1       1.865 -10.172  -3.008  0.00  0.00    +0.046 A 
ATOM     16  C   UNL     1       1.512  -9.744  -1.743  0.00  0.00    +0.008 A 
BRANCH  14  17
ATOM     17  O   UNL     1       1.450 -10.210  -5.351  0.00  0.00    -0.487 OA
BRANCH  17  18
ATOM     18  C   UNL     1       2.612 -11.035  -5.459  0.00  0.00    +0.264 C 
BRANCH  18  19
ATOM     19  C   UNL     1       2.839 -11.395  -6.904  0.00  0.00    -0.010 A 
ATOM     20  C   UNL     1       2.258 -12.533  -7.432  0.00  0.00    +0.010 A 
ATOM     21  C   UNL     1       2.466 -12.864  -8.758  0.00  0.00    +0.039 A 
ATOM     22  C   UNL     1       3.256 -12.056  -9.557  0.00  0.00    +0.123 A 
ATOM     23  C   UNL     1       3.837 -10.916  -9.028  0.00  0.00    +0.039 A 
ATOM     24  C   UNL     1       3.624 -10.584  -7.703  0.00  0.00    +0.010 A 
ATOM     25  F   UNL     1       3.459 -12.379 -10.853  0.00  0.00    -0.205 F 
ENDBRANCH  18  19
ENDBRANCH  17  18
ENDBRANCH  14  17
ENDBRANCH  10  11
BRANCH   8  26
ATOM     26  N   UNL     1      -3.677  -8.731   0.420  0.00  0.00    -0.328 N 
ATOM     27  H   UNL     1      -4.466  -8.168   0.394  0.00  0.00    +0.145 HD
ATOM     28  H   UNL     1      -3.755  -9.665   0.668  0.00  0.00    +0.145 HD
ENDBRANCH   8  26
BRANCH   9  29
ATOM     29  C   UNL     1      -1.515 -10.382   0.523  0.00  0.00    +0.101 C 
ATOM     30  N   UNL     1      -1.639 -11.472   0.818  0.00  0.00    -0.191 NA
ENDBRANCH   9  29
BRANCH   1  31
ATOM     31  O   UNL     1       0.097  -2.854  -0.015  0.00  0.00    -0.422 OA
BRANCH  31  32
ATOM     32  C   UNL     1       0.420  -2.193  -1.143  0.00  0.00    +0.347 C 
ATOM     33  O   UNL     1       0.764  -2.811  -2.132  0.00  0.00    -0.244 OA
BRANCH  32  38
ATOM     34  C   UNL     1      -0.096   1.371  -0.086  0.00  0.00    +0.001 A 
ATOM     35  C   UNL     1       0.237   2.049  -1.246  0.00  0.00    +0.003 A 
ATOM     36  C   UNL     1       0.629   1.352  -2.374  0.00  0.00    +0.039 A 
ATOM     37  C   UNL     1       0.692  -0.030  -2.349  0.00  0.00    +0.137 A 
ATOM     38  C   UNL     1       0.357  -0.720  -1.179  0.00  0.00    +0.094 A 
ATOM     39  C   UNL     1      -0.038  -0.006  -0.045  0.00  0.00    +0.018 A 
ATOM     40  F   UNL     1       1.075  -0.711  -3.451  0.00  0.00    -0.205 F 
ENDBRANCH  32  38
ENDBRANCH  31  32
ENDBRANCH   1  31
TORSDOF 9
