REMARK  Name = ZINC16001279
REMARK  5 active torsions:
REMARK  status: ('A' for Active; 'I' for Inactive)
REMARK    1  A    between atoms: C_1  and  C_2
REMARK    2  A    between atoms: N_21  and  C_24
REMARK    3  A    between atoms: C_26  and  C_33
REMARK    4  A    between atoms: C_29  and  O_30
REMARK    5  A    between atoms: O_30  and  C_31
REMARK                            x       y       z     vdW  Elec       q    Type
REMARK                         _______ _______ _______ _____ _____    ______ ____
ROOT
ATOM      1  C   UNL     1      -0.018   1.503   0.010  0.00  0.00    +0.044 C 
ATOM      2  C   UNL     1       0.002  -0.004   0.002  0.00  0.00    -0.050 A 
ATOM      3  C   UNL     1       0.006  -0.690  -1.199  0.00  0.00    +0.005 A 
ATOM      4  C   UNL     1       0.025  -2.069  -1.208  0.00  0.00    +0.024 A 
ATOM      5  C   UNL     1       0.042  -2.780  -0.011  0.00  0.00    +0.039 A 
ATOM      6  C   UNL     1       0.036  -2.081   1.194  0.00  0.00    +0.004 A 
ATOM      7  C   UNL     1       0.023  -0.703   1.195  0.00  0.00    +0.011 A 
ATOM      8  C   UNL     1       0.060  -3.123   2.271  0.00  0.00    +0.138 C 
ATOM      9  C   UNL     1       1.242  -2.978   3.215  0.00  0.00    +0.123 C 
ATOM     10  C   UNL     1       0.660  -1.786   4.069  0.00  0.00    +0.107 C 
ATOM     11  C   UNL     1      -0.730  -2.178   4.355  0.00  0.00    +0.071 C 
ATOM     12  N   UNL     1      -1.107  -3.036   3.172  0.00  0.00    -0.281 NA
ATOM     13  C   UNL     1      -2.321  -2.529   2.548  0.00  0.00    +0.086 C 
ATOM     14  C   UNL     1      -2.921  -1.489   3.521  0.00  0.00    +0.017 C 
ATOM     15  C   UNL     1      -1.673  -0.953   4.293  0.00  0.00    +0.021 C 
ATOM     16  C   UNL     1       1.837  -1.302   4.750  0.00  0.00    +0.232 C 
ATOM     17  O   UNL     1       1.907  -0.835   5.866  0.00  0.00    -0.274 OA
ATOM     18  N   UNL     1       2.860  -1.489   3.852  0.00  0.00    -0.206 N 
ATOM     19  C   UNL     1       2.509  -2.302   2.793  0.00  0.00    +0.233 C 
ATOM     20  O   UNL     1       3.095  -2.440   1.741  0.00  0.00    -0.274 OA
ATOM     21  C   UNL     1       0.079  -4.442   1.544  0.00  0.00    +0.243 C 
ATOM     22  O   UNL     1       0.103  -5.546   2.046  0.00  0.00    -0.273 OA
ATOM     23  N   UNL     1       0.065  -4.156   0.229  0.00  0.00    -0.283 N 
ATOM     24  H   UNL     1       0.070  -4.828  -0.471  0.00  0.00    +0.155 HD
ENDROOT
BRANCH  18  25
ATOM     25  C   UNL     1       4.136  -0.923   4.000  0.00  0.00    +0.086 A 
ATOM     26  C   UNL     1       5.128  -1.615   4.679  0.00  0.00    +0.032 A 
ATOM     27  C   UNL     1       6.384  -1.057   4.824  0.00  0.00    -0.030 A 
ATOM     28  C   UNL     1       6.655   0.192   4.293  0.00  0.00    +0.047 A 
ATOM     29  C   UNL     1       5.670   0.887   3.615  0.00  0.00    +0.067 A 
ATOM     30  C   UNL     1       4.410   0.331   3.461  0.00  0.00    +0.143 A 
ATOM     31 CL   UNL     1       8.234   0.888   4.479  0.00  0.00    -0.083 Cl
ATOM     32  C   UNL     1       7.461  -1.810   5.562  0.00  0.00    +0.045 C 
BRANCH  30  33
ATOM     33  O   UNL     1       3.443   1.010   2.789  0.00  0.00    -0.493 OA
ATOM     34  C   UNL     1       3.796   2.291   2.263  0.00  0.00    +0.277 C 
ENDBRANCH  30  33
ENDBRANCH  18  25
TORSDOF 2
