REMARK  Name = ZINC05927457
REMARK  7 active torsions:
REMARK  status: ('A' for Active; 'I' for Inactive)
REMARK    1  A    between atoms: C_1  and  C_2
REMARK    2  A    between atoms: C_5  and  C_9
REMARK    3  A    between atoms: C_7  and  C_8
REMARK    4  A    between atoms: C_11  and  C_15
REMARK    5  A    between atoms: N_17  and  N_18
REMARK    6  A    between atoms: C_19  and  C_20
REMARK    7  A    between atoms: C_23  and  C_25
REMARK                            x       y       z     vdW  Elec       q    Type
REMARK                         _______ _______ _______ _____ _____    ______ ____
ROOT
ATOM      1  C   UNL     1       3.660   2.165  -0.021  0.00  0.00    +0.093 A 
ATOM      2  C   UNL     1       4.951   1.616  -0.135  0.00  0.00    +0.062 A 
ATOM      3  C   UNL     1       5.811   2.697  -0.095  0.00  0.00    +0.122 A 
ATOM      4  N   UNL     1       5.029   3.810   0.037  0.00  0.00    -0.272 N 
ATOM      5  H   UNL     1       5.369   4.748   0.097  0.00  0.00    +0.189 HD
ATOM      6  N   UNL     1       3.790   3.471   0.072  0.00  0.00    -0.173 NA
ENDROOT
BRANCH   1  11
ATOM      7  C   UNL     1      -1.294  -0.773   0.010  0.00  0.00    +0.044 C 
ATOM      8  C   UNL     1       0.002  -0.004   0.002  0.00  0.00    -0.047 A 
ATOM      9  C   UNL     1       1.206  -0.684  -0.014  0.00  0.00    +0.004 A 
ATOM     10  C   UNL     1       2.397   0.014  -0.021  0.00  0.00    +0.010 A 
ATOM     11  C   UNL     1       2.383   1.408  -0.013  0.00  0.00    +0.002 A 
ATOM     12  C   UNL     1       1.168   2.088   0.002  0.00  0.00    +0.013 A 
ATOM     13  C   UNL     1      -0.017   1.379   0.010  0.00  0.00    -0.047 A 
ATOM     14  C   UNL     1      -1.333   2.113   0.020  0.00  0.00    +0.044 C 
ENDBRANCH   1  11
BRANCH   3  15
ATOM     15  C   UNL     1       7.280   2.658  -0.177  0.00  0.00    +0.281 C 
ATOM     16  O   UNL     1       7.854   1.592  -0.294  0.00  0.00    -0.267 OA
ATOM     17  N   UNL     1       7.989   3.803  -0.124  0.00  0.00    -0.202 N 
ATOM     18  H   UNL     1       7.531   4.653  -0.031  0.00  0.00    +0.178 HD
BRANCH  17  19
ATOM     19  N   UNL     1       9.387   3.766  -0.202  0.00  0.00    -0.187 NA
ATOM     20  C   UNL     1      10.071   4.871  -0.151  0.00  0.00    +0.145 C 
BRANCH  20  21
ATOM     21  C   UNL     1      11.535   4.832  -0.233  0.00  0.00    +0.032 A 
ATOM     22  C   UNL     1      12.439   5.879  -0.198  0.00  0.00    +0.017 A 
ATOM     23  C   UNL     1      13.780   5.588  -0.293  0.00  0.00    +0.011 A 
ATOM     24  C   UNL     1      14.172   4.293  -0.419  0.00  0.00    -0.013 A 
ATOM     25  S   UNL     1      12.616   3.420  -0.397  0.00  0.00    -0.093 S 
ATOM     26  C   UNL     1      15.567   3.735  -0.538  0.00  0.00    +0.051 C 
ENDBRANCH  20  21
ENDBRANCH  17  19
ENDBRANCH   3  15
TORSDOF 4
