REMARK  Name = ZINC39696292
REMARK  9 active torsions:
REMARK  status: ('A' for Active; 'I' for Inactive)
REMARK    1  A    between atoms: C_1  and  C_2
REMARK    2  A    between atoms: C_2  and  C_3
REMARK    3  A    between atoms: C_6  and  C_9
REMARK    4  A    between atoms: C_9  and  C_11
REMARK    5  A    between atoms: C_9  and  N_12
REMARK    6  A    between atoms: C_13  and  C_15
REMARK    7  A    between atoms: C_26  and  C_28
REMARK    8  A    between atoms: C_35  and  C_39
REMARK    9  A    between atoms: N_37  and  C_38
REMARK                            x       y       z     vdW  Elec       q    Type
REMARK                         _______ _______ _______ _____ _____    ______ ____
ROOT
ATOM      1  C   UNL     1      -6.687  -4.980  -2.000  0.00  0.00    +0.100 C 
ATOM      2  C   UNL     1      -5.374  -5.767  -2.206  0.00  0.00    +0.121 C 
ATOM      3  N   UNL     1      -5.529  -6.981  -1.370  0.00  0.00    -0.296 N 
ATOM      4  C   UNL     1      -6.948  -7.373  -1.550  0.00  0.00    +0.115 C 
ATOM      5  C   UNL     1      -7.719  -6.038  -1.573  0.00  0.00    -0.004 C 
ATOM      6  C   UNL     1      -8.858  -6.103  -2.584  0.00  0.00    -0.010 C 
ATOM      7  C   UNL     1      -9.900  -7.120  -2.108  0.00  0.00    -0.082 C 
ATOM      8  N   UNL     1     -10.411  -6.720  -0.791  0.00  0.00    +0.379 N 
ATOM      9  C   UNL     1      -9.325  -6.749   0.196  0.00  0.00    -0.082 C 
ATOM     10  C   UNL     1      -8.259  -5.717  -0.182  0.00  0.00    -0.010 C 
ATOM     11  C   UNL     1      -4.593  -7.591  -0.617  0.00  0.00    +0.250 C 
ATOM     12  O   UNL     1      -3.491  -7.091  -0.495  0.00  0.00    -0.270 OA
ATOM     13  H   UNL     1     -10.787  -5.785  -0.848  0.00  0.00    -0.086 HD
ATOM     14  H   UNL     1     -11.140  -7.356  -0.507  0.00  0.00    -0.086 HD
ENDROOT
BRANCH  11  15
ATOM     15  C   UNL     1      -4.904  -8.865   0.059  0.00  0.00    +0.074 A 
ATOM     16  C   UNL     1      -5.748  -9.804  -0.550  0.00  0.00    +0.127 A 
ATOM     17  N   UNL     1      -6.038 -10.943   0.033  0.00  0.00    -0.235 NA
ATOM     18  C   UNL     1      -5.548 -11.264   1.227  0.00  0.00    +0.160 A 
ATOM     19  C   UNL     1      -4.692 -10.374   1.907  0.00  0.00    +0.060 A 
ATOM     20  C   UNL     1      -4.357  -9.154   1.312  0.00  0.00    +0.067 A 
ATOM     21 CL   UNL     1      -3.301  -8.029   2.108  0.00  0.00    -0.082 Cl
ATOM     22  C   UNL     1      -4.340 -11.020   3.167  0.00  0.00    +0.071 A 
ATOM     23  N   UNL     1      -4.943 -12.174   3.200  0.00  0.00    -0.174 NA
ATOM     24  N   UNL     1      -5.691 -12.358   2.033  0.00  0.00    -0.249 N 
ATOM     25  C   UNL     1      -6.500 -13.540   1.723  0.00  0.00    +0.174 C 
ATOM     26  C   UNL     1      -3.441 -10.455   4.236  0.00  0.00    +0.068 C 
ENDBRANCH  11  15
BRANCH   1  28
ATOM     27  N   UNL     1      -7.220  -2.800  -0.961  0.00  0.00    -0.308 N 
ATOM     28  C   UNL     1      -6.515  -3.947  -0.916  0.00  0.00    +0.219 C 
ATOM     29  O   UNL     1      -5.742  -4.149  -0.004  0.00  0.00    -0.275 OA
ATOM     30  H   UNL     1      -7.839  -2.638  -1.690  0.00  0.00    +0.149 HD
BRANCH  27  31
ATOM     31  C   UNL     1      -7.053  -1.795   0.093  0.00  0.00    +0.100 C 
ATOM     32  C   UNL     1      -7.965  -2.138   1.273  0.00  0.00    +0.033 C 
BRANCH  31  36
ATOM     33  C   UNL     1      -8.087   2.057  -1.436  0.00  0.00    -0.048 A 
ATOM     34  C   UNL     1      -7.002   1.917  -0.592  0.00  0.00    +0.004 A 
ATOM     35  C   UNL     1      -6.667   0.670  -0.097  0.00  0.00    +0.006 A 
ATOM     36  C   UNL     1      -7.418  -0.436  -0.446  0.00  0.00    -0.027 A 
ATOM     37  C   UNL     1      -8.505  -0.296  -1.289  0.00  0.00    +0.006 A 
ATOM     38  C   UNL     1      -8.842   0.951  -1.781  0.00  0.00    +0.004 A 
BRANCH  33  40
ATOM     39  C   UNL     1      -9.427   4.101  -1.016  0.00  0.00    +0.009 C 
ATOM     40  C   UNL     1      -8.452   3.416  -1.976  0.00  0.00    +0.032 C 
ENDBRANCH  33  40
ENDBRANCH  31  36
ENDBRANCH  27  31
ENDBRANCH   1  28
TORSDOF 5
