REMARK  Name = ZINC39666963
REMARK  8 active torsions:
REMARK  status: ('A' for Active; 'I' for Inactive)
REMARK    1  A    between atoms: C_1  and  C_2
REMARK    2  A    between atoms: C_5  and  C_9
REMARK    3  A    between atoms: C_6  and  C_8
REMARK    4  A    between atoms: C_9  and  C_10
REMARK    5  A    between atoms: C_10  and  N_11
REMARK    6  A    between atoms: C_12  and  C_14
REMARK    7  A    between atoms: C_25  and  C_27
REMARK    8  A    between atoms: C_33  and  C_35
REMARK                            x       y       z     vdW  Elec       q    Type
REMARK                         _______ _______ _______ _____ _____    ______ ____
ROOT
ATOM      1  C   UNL     1      -2.485  -8.466   0.197  0.00  0.00    +0.100 C 
ATOM      2  C   UNL     1      -2.062  -8.991  -1.193  0.00  0.00    +0.121 C 
ATOM      3  N   UNL     1      -2.893 -10.199  -1.406  0.00  0.00    -0.299 N 
ATOM      4  C   UNL     1      -4.221  -9.834  -0.857  0.00  0.00    +0.115 C 
ATOM      5  C   UNL     1      -3.903  -9.021   0.414  0.00  0.00    -0.004 C 
ATOM      6  C   UNL     1      -4.900  -7.877   0.570  0.00  0.00    -0.010 C 
ATOM      7  C   UNL     1      -6.293  -8.453   0.843  0.00  0.00    -0.082 C 
ATOM      8  N   UNL     1      -6.257  -9.268   2.063  0.00  0.00    +0.379 N 
ATOM      9  C   UNL     1      -5.366 -10.418   1.871  0.00  0.00    -0.082 C 
ATOM     10  C   UNL     1      -3.934  -9.925   1.642  0.00  0.00    -0.010 C 
ATOM     11  C   UNL     1      -2.525 -11.365  -1.972  0.00  0.00    +0.236 C 
ATOM     12  O   UNL     1      -3.328 -12.268  -2.076  0.00  0.00    -0.274 OA
ATOM     13  H   UNL     1      -5.919  -8.707   2.831  0.00  0.00    -0.086 HD
ATOM     14  H   UNL     1      -7.187  -9.596   2.274  0.00  0.00    -0.086 HD
ENDROOT
BRANCH  11  15
ATOM     15  C   UNL     1      -1.116 -11.548  -2.474  0.00  0.00    +0.162 C 
ATOM     16  C   UNL     1      -0.963 -10.887  -3.860  0.00  0.00    +0.033 C 
ATOM     17  C   UNL     1      -0.044 -11.880  -4.619  0.00  0.00    +0.021 C 
ATOM     18  C   UNL     1      -0.526 -13.241  -4.059  0.00  0.00    +0.109 C 
ATOM     19  N   UNL     1      -0.824 -12.980  -2.635  0.00  0.00    -0.283 N 
ATOM     20  C   UNL     1      -0.828 -13.898  -1.649  0.00  0.00    +0.320 C 
ATOM     21  O   UNL     1      -1.088 -13.566  -0.512  0.00  0.00    -0.266 OA
BRANCH  20  22
ATOM     22  C   UNL     1      -0.508 -15.338  -1.958  0.00  0.00    +0.470 C 
ATOM     23  F   UNL     1      -0.575 -16.093  -0.783  0.00  0.00    -0.162 F 
ATOM     24  F   UNL     1      -1.434 -15.832  -2.884  0.00  0.00    -0.162 F 
ATOM     25  F   UNL     1       0.780 -15.424  -2.496  0.00  0.00    -0.162 F 
ENDBRANCH  20  22
ENDBRANCH  11  15
BRANCH   1  27
ATOM     26  N   UNL     1      -2.275  -6.288   1.352  0.00  0.00    -0.315 N 
ATOM     27  C   UNL     1      -2.505  -6.959   0.206  0.00  0.00    +0.218 C 
ATOM     28  O   UNL     1      -2.727  -6.349  -0.819  0.00  0.00    -0.275 OA
ATOM     29  H   UNL     1      -2.097  -6.775   2.172  0.00  0.00    +0.149 HD
BRANCH  26  30
ATOM     30  C   UNL     1      -2.294  -4.823   1.360  0.00  0.00    +0.109 C 
BRANCH  30  31
ATOM     31  C   UNL     1      -2.006  -4.317   2.775  0.00  0.00    +0.054 C 
BRANCH  31  36
ATOM     32  C   UNL     1      -2.080   1.461   2.803  0.00  0.00    +0.044 C 
ATOM     33  C   UNL     1      -2.061  -0.046   2.796  0.00  0.00    -0.050 A 
ATOM     34  C   UNL     1      -0.863  -0.721   2.652  0.00  0.00    +0.003 A 
ATOM     35  C   UNL     1      -0.845  -2.103   2.645  0.00  0.00    +0.004 A 
ATOM     36  C   UNL     1      -2.025  -2.811   2.783  0.00  0.00    -0.043 A 
ATOM     37  C   UNL     1      -3.222  -2.136   2.928  0.00  0.00    -0.047 A 
ATOM     38  C   UNL     1      -3.240  -0.753   2.939  0.00  0.00    +0.007 A 
ATOM     39  C   UNL     1      -4.509  -2.907   3.078  0.00  0.00    +0.044 C 
ENDBRANCH  31  36
ENDBRANCH  30  31
ENDBRANCH  26  30
ENDBRANCH   1  27
TORSDOF 6
