REMARK  Name = ZINC10212789
REMARK  9 active torsions:
REMARK  status: ('A' for Active; 'I' for Inactive)
REMARK    1  A    between atoms: C_4  and  C_7
REMARK    2  A    between atoms: C_10  and  S_19
REMARK    3  A    between atoms: N_11  and  C_12
REMARK    4  A    between atoms: S_19  and  C_20
REMARK    5  A    between atoms: C_20  and  C_21
REMARK    6  A    between atoms: N_23  and  C_24
REMARK    7  A    between atoms: C_24  and  C_25
REMARK    8  A    between atoms: C_28  and  S_31
REMARK    9  A    between atoms: S_31  and  N_34
REMARK                            x       y       z     vdW  Elec       q    Type
REMARK                         _______ _______ _______ _____ _____    ______ ____
ROOT
ATOM      1  S   UNL     1      -0.150   1.174  -5.119  0.00  0.00    -0.076 S 
ENDROOT
BRANCH   1   5
ATOM      2  C   UNL     1      -2.062   2.484  -8.268  0.00  0.00    +0.169 A 
ATOM      3  N   UNL     1      -2.769   2.972  -7.275  0.00  0.00    -0.128 NA
ATOM      4  N   UNL     1      -2.254   2.619  -6.152  0.00  0.00    -0.122 NA
ATOM      5  C   UNL     1      -1.184   1.883  -6.357  0.00  0.00    +0.197 A 
ATOM      6  N   UNL     1      -1.020   1.775  -7.711  0.00  0.00    -0.270 N 
BRANCH   6   7
ATOM      7  C   UNL     1      -0.005   1.086  -8.390  0.00  0.00    +0.051 A 
ATOM      8  C   UNL     1       0.906   1.783  -9.172  0.00  0.00    +0.029 A 
ATOM      9  C   UNL     1       1.908   1.103  -9.836  0.00  0.00    +0.040 A 
ATOM     10  C   UNL     1       1.998  -0.275  -9.731  0.00  0.00    +0.124 A 
ATOM     11  C   UNL     1       1.087  -0.973  -8.955  0.00  0.00    +0.040 A 
ATOM     12  C   UNL     1       0.087  -0.296  -8.285  0.00  0.00    +0.029 A 
ATOM     13  F   UNL     1       2.975  -0.940 -10.386  0.00  0.00    -0.205 F 
ENDBRANCH   6   7
BRANCH   2  17
ATOM     14  C   UNL     1      -2.828   3.009 -12.412  0.00  0.00    +0.000 A 
ATOM     15  C   UNL     1      -3.460   3.821 -11.487  0.00  0.00    +0.001 A 
ATOM     16  C   UNL     1      -3.216   3.655 -10.139  0.00  0.00    +0.011 A 
ATOM     17  C   UNL     1      -2.329   2.667  -9.710  0.00  0.00    +0.020 A 
ATOM     18  C   UNL     1      -1.690   1.855 -10.649  0.00  0.00    +0.011 A 
ATOM     19  C   UNL     1      -1.948   2.027 -11.994  0.00  0.00    +0.001 A 
ENDBRANCH   2  17
ENDBRANCH   1   5
BRANCH   1  20
ATOM     20  C   UNL     1      -0.997   1.758  -3.630  0.00  0.00    +0.173 C 
BRANCH  20  21
ATOM     21  C   UNL     1      -0.268   1.258  -2.409  0.00  0.00    +0.224 C 
ATOM     22  O   UNL     1       0.726   0.575  -2.534  0.00  0.00    -0.275 OA
ATOM     23  N   UNL     1      -0.721   1.571  -1.179  0.00  0.00    -0.311 N 
ATOM     24  H   UNL     1      -1.516   2.118  -1.079  0.00  0.00    +0.149 HD
BRANCH  23  25
ATOM     25  C   UNL     1      -0.013   1.086   0.008  0.00  0.00    +0.139 C 
BRANCH  25  26
ATOM     26  C   UNL     1      -0.718   1.572   1.248  0.00  0.00    -0.030 A 
ATOM     27  C   UNL     1      -0.360   2.779   1.819  0.00  0.00    +0.007 A 
ATOM     28  C   UNL     1      -1.010   3.227   2.953  0.00  0.00    +0.029 A 
ATOM     29  C   UNL     1      -2.012   2.463   3.523  0.00  0.00    +0.105 A 
ATOM     30  C   UNL     1      -2.366   1.254   2.955  0.00  0.00    +0.029 A 
ATOM     31  C   UNL     1      -1.719   0.808   1.818  0.00  0.00    +0.007 A 
BRANCH  29  32
ATOM     32  S   UNL     1      -2.837   3.032   4.972  0.00  0.00    +0.056 S 
ATOM     33  O   UNL     1      -2.695   4.446   4.992  0.00  0.00    -0.153 OA
ATOM     34  O   UNL     1      -4.107   2.394   4.993  0.00  0.00    -0.153 OA
BRANCH  32  35
ATOM     35  N   UNL     1      -1.995   2.453   6.274  0.00  0.00    -0.204 NA
ATOM     36  H   UNL     1      -1.204   1.909   6.137  0.00  0.00    +0.144 HD
ATOM     37  H   UNL     1      -2.292   2.659   7.175  0.00  0.00    +0.144 HD
ENDBRANCH  32  35
ENDBRANCH  29  32
ENDBRANCH  25  26
ENDBRANCH  23  25
ENDBRANCH  20  21
ENDBRANCH   1  20
TORSDOF 9
