REMARK  Name = ZINC40730808
REMARK  4 active torsions:
REMARK  status: ('A' for Active; 'I' for Inactive)
REMARK    1  A    between atoms: C_1  and  C_2
REMARK    2  A    between atoms: C_10  and  N_26
REMARK    3  A    between atoms: C_11  and  N_15
REMARK    4  A    between atoms: N_15  and  C_16
REMARK                            x       y       z     vdW  Elec       q    Type
REMARK                         _______ _______ _______ _____ _____    ______ ____
ROOT
ATOM      1  C   UNL     1       3.582   0.587   0.728  0.00  0.00    +0.009 C 
ATOM      2  C   UNL     1       2.161   0.056   0.926  0.00  0.00    +0.003 C 
ATOM      3  C   UNL     1       1.304   0.425  -0.287  0.00  0.00    +0.006 C 
ATOM      4  C   UNL     1      -0.126  -0.077  -0.075  0.00  0.00    +0.019 C 
ATOM      5  C   UNL     1      -0.113  -1.603   0.062  0.00  0.00    +0.106 C 
ATOM      6  N   UNL     1       0.822  -1.973   1.134  0.00  0.00    -0.313 N 
ATOM      7  C   UNL     1       2.200  -1.468   1.075  0.00  0.00    +0.109 C 
ATOM      8  C   UNL     1       0.410  -2.786   2.183  0.00  0.00    +0.147 A 
ATOM      9  C   UNL     1       0.462  -4.176   2.066  0.00  0.00    +0.105 A 
ATOM     10  C   UNL     1       0.037  -4.945   3.150  0.00  0.00    +0.145 A 
ATOM     11  N   UNL     1      -0.399  -4.329   4.246  0.00  0.00    -0.219 NA
ATOM     12  C   UNL     1      -0.432  -3.014   4.316  0.00  0.00    +0.225 A 
ATOM     13  N   UNL     1      -0.035  -2.251   3.317  0.00  0.00    -0.219 NA
ENDROOT
BRANCH   9  14
ATOM     14  N   UNL     1       0.929  -4.784   0.889  0.00  0.00    -0.353 N 
ATOM     15  H   UNL     1       1.305  -4.240   0.178  0.00  0.00    +0.143 HD
ATOM     16  H   UNL     1       0.876  -5.747   0.786  0.00  0.00    +0.143 HD
ENDBRANCH   9  14
BRANCH  10  17
ATOM     17  N   UNL     1       0.067  -6.333   3.086  0.00  0.00    -0.322 N 
ATOM     18  H   UNL     1       0.386  -6.775   2.283  0.00  0.00    +0.148 HD
BRANCH  17  19
ATOM     19  C   UNL     1      -0.382  -7.130   4.230  0.00  0.00    +0.034 C 
ATOM     20  C   UNL     1      -1.846  -6.806   4.534  0.00  0.00    +0.029 C 
ATOM     21  C   UNL     1      -2.315  -7.638   5.729  0.00  0.00    -0.008 C 
ATOM     22  C   UNL     1      -2.179  -9.126   5.400  0.00  0.00    +0.007 C 
ATOM     23  C   UNL     1      -0.715  -9.449   5.096  0.00  0.00    -0.008 C 
ATOM     24  C   UNL     1      -0.246  -8.618   3.901  0.00  0.00    +0.029 C 
ATOM     25  C   UNL     1       0.144  -9.117   6.317  0.00  0.00    +0.007 C 
ATOM     26  C   UNL     1       0.009  -7.629   6.647  0.00  0.00    -0.008 C 
ATOM     27  C   UNL     1      -1.455  -7.305   6.950  0.00  0.00    +0.007 C 
ATOM     28  C   UNL     1       0.478  -6.797   5.451  0.00  0.00    +0.029 C 
ENDBRANCH  17  19
ENDBRANCH  10  17
TORSDOF 3
