REMARK  Name = ZINC36569655
REMARK  6 active torsions:
REMARK  status: ('A' for Active; 'I' for Inactive)
REMARK    1  A    between atoms: C_1  and  C_2
REMARK    2  A    between atoms: C_2  and  C_4
REMARK    3  A    between atoms: C_2  and  N_8
REMARK    4  A    between atoms: C_4  and  O_6
REMARK    5  A    between atoms: O_6  and  C_7
REMARK    6  A    between atoms: C_20  and  C_22
REMARK                            x       y       z     vdW  Elec       q    Type
REMARK                         _______ _______ _______ _____ _____    ______ ____
ROOT
ATOM      1  N   UNL     1       2.696  -0.230   0.118  0.00  0.00    -0.286 N 
ATOM      2  C   UNL     1       2.026  -0.615   1.221  0.00  0.00    +0.304 C 
ATOM      3  O   UNL     1       0.818  -0.483   1.276  0.00  0.00    -0.253 OA
ATOM      4  N   UNL     1       2.693  -1.147   2.265  0.00  0.00    -0.273 N 
ATOM      5  C   UNL     1       1.974  -1.621   3.456  0.00  0.00    +0.116 C 
ATOM      6  C   UNL     1       2.381  -0.765   4.662  0.00  0.00    +0.074 C 
ATOM      7  C   UNL     1       3.878  -0.597   4.655  0.00  0.00    +0.040 A 
ATOM      8  C   UNL     1       4.673  -0.812   3.585  0.00  0.00    +0.062 A 
ATOM      9  N   UNL     1       5.934  -0.561   3.947  0.00  0.00    -0.348 N 
ATOM     10  C   UNL     1       5.954  -0.199   5.203  0.00  0.00    +0.171 A 
ATOM     11  N   UNL     1       4.688  -0.211   5.680  0.00  0.00    -0.349 N 
ATOM     12  H   UNL     1       4.409   0.013   6.582  0.00  0.00    +0.166 HD
ATOM     13  C   UNL     1       4.162  -1.272   2.236  0.00  0.00    +0.157 C 
ATOM     14  H   UNL     1       3.665  -0.272   0.100  0.00  0.00    +0.151 HD
ATOM     15  H   UNL     1       6.710  -0.634   3.370  0.00  0.00    +0.167 HD
ENDROOT
BRANCH  13  16
ATOM     16  C   UNL     1       4.549  -2.709   1.998  0.00  0.00    -0.003 A 
ATOM     17  C   UNL     1       4.905  -3.514   3.064  0.00  0.00    +0.009 A 
ATOM     18  C   UNL     1       5.261  -4.832   2.847  0.00  0.00    +0.020 A 
ATOM     19  C   UNL     1       5.260  -5.346   1.562  0.00  0.00    +0.042 A 
ATOM     20  C   UNL     1       4.904  -4.540   0.495  0.00  0.00    +0.040 A 
ATOM     21  C   UNL     1       4.544  -3.223   0.714  0.00  0.00    +0.048 A 
ATOM     22 CL   UNL     1       4.091  -2.213  -0.624  0.00  0.00    -0.083 Cl
ATOM     23 CL   UNL     1       5.707  -7.001   1.289  0.00  0.00    -0.083 Cl
ENDBRANCH  13  16
BRANCH   1  25
ATOM     24  C   UNL     1       1.531  -0.942  -1.912  0.00  0.00    +0.040 C 
ATOM     25  C   UNL     1       1.962   0.251  -1.055  0.00  0.00    +0.180 C 
BRANCH  25  26
ATOM     26  C   UNL     1       2.850   1.157  -1.867  0.00  0.00    +0.327 C 
ATOM     27  O   UNL     1       3.981   1.379  -1.504  0.00  0.00    -0.249 OA
BRANCH  26  28
ATOM     28  O   UNL     1       2.386   1.719  -2.994  0.00  0.00    -0.467 OA
ATOM     29  C   UNL     1       3.283   2.567  -3.714  0.00  0.00    +0.280 C 
ENDBRANCH  26  28
ENDBRANCH  25  26
ENDBRANCH   1  25
TORSDOF 4
