REMARK  Name = ZINC62952760
REMARK  7 active torsions:
REMARK  status: ('A' for Active; 'I' for Inactive)
REMARK    1  A    between atoms: C_1  and  C_2
REMARK    2  A    between atoms: C_2  and  C_3
REMARK    3  A    between atoms: C_3  and  C_20
REMARK    4  A    between atoms: N_6  and  S_9
REMARK    5  A    between atoms: S_9  and  C_12
REMARK    6  A    between atoms: C_13  and  C_19
REMARK    7  A    between atoms: C_17  and  N_18
REMARK                            x       y       z     vdW  Elec       q    Type
REMARK                         _______ _______ _______ _____ _____    ______ ____
ROOT
ATOM      1  S   UNL     1       5.448  -3.835  -3.078  0.00  0.00    +0.063 S 
ATOM      2  O   UNL     1       5.468  -5.244  -3.261  0.00  0.00    -0.153 OA
ATOM      3  O   UNL     1       6.469  -2.987  -3.584  0.00  0.00    -0.153 OA
ENDROOT
BRANCH   1   7
ATOM      4  C   UNL     1       1.391  -2.253  -3.752  0.00  0.00    -0.030 C 
ATOM      5  C   UNL     1       2.574  -1.361  -3.367  0.00  0.00    +0.024 C 
ATOM      6  C   UNL     1       3.842  -1.875  -4.057  0.00  0.00    +0.110 C 
ATOM      7  N   UNL     1       4.021  -3.294  -3.721  0.00  0.00    -0.176 NA
ATOM      8  C   UNL     1       2.910  -4.224  -3.967  0.00  0.00    +0.110 C 
ATOM      9  C   UNL     1       1.653  -3.684  -3.278  0.00  0.00    +0.024 C 
ATOM     10  C   UNL     1       1.220  -2.243  -5.272  0.00  0.00    +0.011 C 
BRANCH   4  12
ATOM     11  C   UNL     1      -0.145  -0.291  -3.566  0.00  0.00    +0.004 C 
ATOM     12  C   UNL     1       0.117  -1.722  -3.092  0.00  0.00    +0.003 C 
ENDBRANCH   4  12
ENDBRANCH   1   7
BRANCH   1  13
ATOM     13  C   UNL     1       5.376  -3.555  -1.340  0.00  0.00    +0.129 A 
ATOM     14  C   UNL     1       4.913  -4.547  -0.498  0.00  0.00    -0.022 A 
ATOM     15  C   UNL     1       4.856  -4.327   0.866  0.00  0.00    +0.005 A 
ATOM     16  C   UNL     1       5.262  -3.114   1.392  0.00  0.00    +0.002 A 
ATOM     17  C   UNL     1       5.726  -2.118   0.556  0.00  0.00    +0.025 A 
ATOM     18  C   UNL     1       5.790  -2.337  -0.815  0.00  0.00    +0.051 A 
ATOM     19  C   UNL     1       4.469  -5.870  -1.067  0.00  0.00    +0.046 C 
BRANCH  18  20
ATOM     20  N   UNL     1       6.264  -1.334  -1.663  0.00  0.00    -0.356 N 
ATOM     21  H   UNL     1       6.060  -1.363  -2.610  0.00  0.00    +0.142 HD
ATOM     22  H   UNL     1       6.798  -0.608  -1.304  0.00  0.00    +0.142 HD
ENDBRANCH  18  20
ENDBRANCH   1  13
TORSDOF 4
