REMARK  Name = ZINC01971855
REMARK  5 active torsions:
REMARK  status: ('A' for Active; 'I' for Inactive)
REMARK    1  A    between atoms: C_4  and  C_7
REMARK    2  A    between atoms: C_8  and  C_20
REMARK    3  A    between atoms: C_13  and  C_14
REMARK    4  A    between atoms: N_22  and  N_23
REMARK    5  A    between atoms: N_23  and  C_24
REMARK                            x       y       z     vdW  Elec       q    Type
REMARK                         _______ _______ _______ _____ _____    ______ ____
ROOT
ATOM      1  C   UNL     1       3.215  -0.340   0.061  0.00  0.00    +0.027 A 
ATOM      2  C   UNL     1       4.165  -0.483  -0.972  0.00  0.00    +0.115 A 
ATOM      3  C   UNL     1       5.227  -1.375  -0.759  0.00  0.00    +0.301 A 
ATOM      4  O   UNL     1       6.168  -1.552  -1.717  0.00  0.00    -0.263 OA
ATOM      5  N   UNL     1       5.308  -2.045   0.382  0.00  0.00    -0.105 NA
ATOM      6  N   UNL     1       4.446  -1.916   1.322  0.00  0.00    -0.145 NA
ATOM      7  C   UNL     1       3.406  -1.099   1.232  0.00  0.00    +0.102 A 
ENDROOT
BRANCH   1  11
ATOM      8  C   UNL     1      -0.093   2.297  -0.338  0.00  0.00    +0.000 A 
ATOM      9  C   UNL     1       1.193   2.805  -0.311  0.00  0.00    +0.001 A 
ATOM     10  C   UNL     1       2.272   1.954  -0.181  0.00  0.00    +0.008 A 
ATOM     11  C   UNL     1       2.063   0.578  -0.077  0.00  0.00    -0.015 A 
ATOM     12  C   UNL     1       0.763   0.072  -0.105  0.00  0.00    +0.008 A 
ATOM     13  C   UNL     1      -0.307   0.934  -0.236  0.00  0.00    +0.001 A 
ENDBRANCH   1  11
BRANCH   7  14
ATOM     14  C   UNL     1       2.447  -0.988   2.356  0.00  0.00    +0.003 A 
ATOM     15  C   UNL     1       1.839   0.234   2.639  0.00  0.00    +0.010 A 
ATOM     16  C   UNL     1       0.946   0.331   3.687  0.00  0.00    +0.001 A 
ATOM     17  C   UNL     1       0.654  -0.781   4.455  0.00  0.00    +0.000 A 
ATOM     18  C   UNL     1       1.254  -1.997   4.179  0.00  0.00    +0.001 A 
ATOM     19  C   UNL     1       2.144  -2.107   3.130  0.00  0.00    +0.010 A 
ENDBRANCH   7  14
BRANCH   2  20
ATOM     20  C   UNL     1       4.045   0.278  -2.231  0.00  0.00    +0.266 C 
ATOM     21  O   UNL     1       4.567   1.371  -2.332  0.00  0.00    -0.268 OA
ATOM     22  N   UNL     1       3.357  -0.239  -3.268  0.00  0.00    -0.232 N 
ATOM     23  H   UNL     1       2.941  -1.112  -3.187  0.00  0.00    +0.173 HD
BRANCH  22  24
ATOM     24  N   UNL     1       3.244   0.483  -4.463  0.00  0.00    -0.259 N 
ATOM     25  H   UNL     1       3.585   1.389  -4.516  0.00  0.00    +0.170 HD
BRANCH  24  26
ATOM     26  C   UNL     1       2.668  -0.077  -5.529  0.00  0.00    +0.116 C 
ATOM     27  C   UNL     1       2.224  -1.415  -5.666  0.00  0.00    +0.024 A 
ATOM     28  C   UNL     1       2.233  -2.521  -4.808  0.00  0.00    +0.012 A 
ATOM     29  C   UNL     1       1.715  -3.726  -5.239  0.00  0.00    +0.001 A 
ATOM     30  C   UNL     1       1.187  -3.844  -6.514  0.00  0.00    +0.002 A 
ATOM     31  C   UNL     1       1.168  -2.762  -7.379  0.00  0.00    +0.024 A 
ATOM     32  C   UNL     1       1.683  -1.534  -6.973  0.00  0.00    +0.043 A 
ATOM     33  N   UNL     1       1.783  -0.336  -7.617  0.00  0.00    -0.280 N 
ATOM     34  C   UNL     1       2.342   0.578  -6.844  0.00  0.00    +0.264 C 
ATOM     35  O   UNL     1       2.558   1.738  -7.143  0.00  0.00    -0.268 OA
ATOM     36  H   UNL     1       1.479  -0.175  -8.524  0.00  0.00    +0.155 HD
ENDBRANCH  24  26
ENDBRANCH  22  24
ENDBRANCH   2  20
TORSDOF 5
