REMARK  Name = ZINC36589768
REMARK  7 active torsions:
REMARK  status: ('A' for Active; 'I' for Inactive)
REMARK    1  A    between atoms: C_1  and  O_2
REMARK    2  A    between atoms: O_2  and  C_3
REMARK    3  A    between atoms: C_3  and  C_5
REMARK    4  A    between atoms: C_5  and  C_7
REMARK    5  A    between atoms: C_5  and  N_14
REMARK    6  A    between atoms: C_7  and  C_8
REMARK    7  A    between atoms: C_26  and  C_28
REMARK                            x       y       z     vdW  Elec       q    Type
REMARK                         _______ _______ _______ _____ _____    ______ ____
ROOT
ATOM      1  N   UNL     1      -2.723  -2.381  -2.254  0.00  0.00    -0.286 N 
ATOM      2  C   UNL     1      -3.354  -2.671  -1.099  0.00  0.00    +0.304 C 
ATOM      3  O   UNL     1      -2.736  -2.667  -0.051  0.00  0.00    -0.253 OA
ATOM      4  N   UNL     1      -4.669  -2.967  -1.105  0.00  0.00    -0.273 N 
ATOM      5  C   UNL     1      -5.399  -3.179   0.154  0.00  0.00    +0.116 C 
ATOM      6  C   UNL     1      -6.463  -2.085   0.307  0.00  0.00    +0.074 C 
ATOM      7  C   UNL     1      -7.180  -1.918  -1.006  0.00  0.00    +0.040 A 
ATOM      8  C   UNL     1      -6.719  -2.354  -2.198  0.00  0.00    +0.062 A 
ATOM      9  N   UNL     1      -7.614  -2.028  -3.134  0.00  0.00    -0.348 N 
ATOM     10  C   UNL     1      -8.617  -1.407  -2.569  0.00  0.00    +0.171 A 
ATOM     11  N   UNL     1      -8.382  -1.321  -1.240  0.00  0.00    -0.349 N 
ATOM     12  H   UNL     1      -8.960  -0.910  -0.578  0.00  0.00    +0.166 HD
ATOM     13  C   UNL     1      -5.411  -3.080  -2.373  0.00  0.00    +0.156 C 
ATOM     14  H   UNL     1      -3.195  -2.460  -3.098  0.00  0.00    +0.151 HD
ATOM     15  H   UNL     1      -7.532  -2.220  -4.081  0.00  0.00    +0.167 HD
ENDROOT
BRANCH  13  16
ATOM     16  C   UNL     1      -5.673  -4.530  -2.687  0.00  0.00    -0.017 A 
ATOM     17  C   UNL     1      -6.473  -5.284  -1.849  0.00  0.00    +0.009 A 
ATOM     18  C   UNL     1      -6.716  -6.615  -2.134  0.00  0.00    +0.050 A 
ATOM     19  C   UNL     1      -6.157  -7.197  -3.260  0.00  0.00    +0.166 A 
ATOM     20  C   UNL     1      -5.351  -6.437  -4.104  0.00  0.00    +0.167 A 
ATOM     21  C   UNL     1      -5.116  -5.103  -3.816  0.00  0.00    +0.055 A 
ATOM     22  O   UNL     1      -4.926  -7.230  -5.130  0.00  0.00    -0.453 OA
ATOM     23  C   UNL     1      -5.145  -8.583  -4.688  0.00  0.00    +0.466 C 
ATOM     24  O   UNL     1      -6.238  -8.465  -3.758  0.00  0.00    -0.453 OA
ENDBRANCH  13  16
BRANCH   1  25
ATOM     25  C   UNL     1      -1.324  -1.946  -2.235  0.00  0.00    +0.187 C 
BRANCH  25  26
ATOM     26  C   UNL     1      -0.423  -3.154  -2.215  0.00  0.00    +0.328 C 
ATOM     27  O   UNL     1      -0.900  -4.264  -2.216  0.00  0.00    -0.249 OA
BRANCH  26  29
ATOM     28  C   UNL     1       1.703  -4.185  -2.177  0.00  0.00    +0.280 C 
ATOM     29  O   UNL     1       0.910  -2.997  -2.196  0.00  0.00    -0.467 OA
ENDBRANCH  26  29
ENDBRANCH  25  26
BRANCH  25  30
ATOM     30  C   UNL     1      -1.032  -1.114  -3.485  0.00  0.00    +0.069 C 
BRANCH  30  31
ATOM     31  C   UNL     1      -1.844   0.155  -3.445  0.00  0.00    -0.045 A 
ATOM     32  C   UNL     1      -3.111   0.183  -3.997  0.00  0.00    +0.004 A 
ATOM     33  C   UNL     1      -3.856   1.347  -3.960  0.00  0.00    +0.000 A 
ATOM     34  C   UNL     1      -3.335   2.482  -3.369  0.00  0.00    +0.000 A 
ATOM     35  C   UNL     1      -2.068   2.454  -2.816  0.00  0.00    +0.000 A 
ATOM     36  C   UNL     1      -1.325   1.290  -2.849  0.00  0.00    +0.004 A 
ENDBRANCH  30  31
ENDBRANCH  25  30
ENDBRANCH   1  25
TORSDOF 6
