REMARK  Name = ZINC19236565
REMARK  4 active torsions:
REMARK  status: ('A' for Active; 'I' for Inactive)
REMARK    1  A    between atoms: C_1  and  C_2
REMARK    2  A    between atoms: C_16  and  C_18
REMARK    3  A    between atoms: C_18  and  N_19
REMARK    4  A    between atoms: C_27  and  C_29
REMARK                            x       y       z     vdW  Elec       q    Type
REMARK                         _______ _______ _______ _____ _____    ______ ____
ROOT
ATOM      1  C   UNL     1      -3.702  -3.857  12.523  0.00  0.00    +0.046 C 
ATOM      2  C   UNL     1      -2.776  -2.860  11.876  0.00  0.00    -0.027 A 
ATOM      3  C   UNL     1      -1.522  -2.591  12.399  0.00  0.00    +0.005 A 
ATOM      4  C   UNL     1      -0.659  -1.679  11.816  0.00  0.00    +0.001 A 
ATOM      5  C   UNL     1      -0.992  -0.982  10.680  0.00  0.00    +0.010 A 
ATOM      6  C   UNL     1      -2.252  -1.234  10.131  0.00  0.00    +0.005 A 
ATOM      7  C   UNL     1      -3.141  -2.168  10.724  0.00  0.00    +0.050 A 
ATOM      8  N   UNL     1      -4.274  -2.189   9.963  0.00  0.00    -0.357 N 
ATOM      9  H   UNL     1      -5.110  -2.848  10.240  0.00  0.00    +0.166 HD
ATOM     10  C   UNL     1      -4.147  -1.315   8.914  0.00  0.00    +0.023 A 
ATOM     11  C   UNL     1      -2.941  -0.710   8.971  0.00  0.00    -0.002 A 
ATOM     12  C   UNL     1      -2.461   0.312   7.975  0.00  0.00    +0.145 C 
ATOM     13  N   UNL     1      -3.409   0.315   6.847  0.00  0.00    -0.295 N 
ATOM     14  C   UNL     1      -4.847   0.277   7.149  0.00  0.00    +0.114 C 
ATOM     15  C   UNL     1      -5.178  -1.049   7.843  0.00  0.00    +0.072 C 
ATOM     16  C   UNL     1      -2.969   0.347   5.573  0.00  0.00    +0.234 C 
ATOM     17  O   UNL     1      -1.778   0.378   5.343  0.00  0.00    -0.274 OA
ENDROOT
BRANCH  16  18
ATOM     18  C   UNL     1      -3.956   0.343   4.435  0.00  0.00    +0.213 C 
BRANCH  18  19
ATOM     19  N   UNL     1      -3.233   0.381   3.161  0.00  0.00    -0.215 N 
ATOM     20  C   UNL     1      -2.885   1.517   2.521  0.00  0.00    +0.247 C 
ATOM     21  O   UNL     1      -3.102   2.655   2.875  0.00  0.00    -0.273 OA
ATOM     22  C   UNL     1      -2.167   1.069   1.268  0.00  0.00    +0.115 C 
ATOM     23  C   UNL     1      -2.911   1.550   0.027  0.00  0.00    +0.035 C 
ATOM     24  C   UNL     1      -2.186   1.056  -1.227  0.00  0.00    +0.003 C 
ATOM     25  C   UNL     1      -0.753   1.593  -1.231  0.00  0.00    +0.000 C 
ATOM     26  C   UNL     1      -0.013   1.086   0.008  0.00  0.00    +0.006 C 
ATOM     27  C   UNL     1      -0.730   1.580   1.267  0.00  0.00    +0.018 C 
ATOM     28  C   UNL     1      -0.002   1.056   2.507  0.00  0.00    +0.010 C 
ATOM     29  N   UNL     1      -2.191  -0.397   1.347  0.00  0.00    -0.285 N 
ATOM     30  C   UNL     1      -2.836  -0.706   2.489  0.00  0.00    +0.310 C 
ATOM     31  O   UNL     1      -3.035  -1.844   2.866  0.00  0.00    -0.252 OA
ATOM     32  H   UNL     1      -1.730  -0.998   0.550  0.00  0.00    +0.151 HD
ENDBRANCH  18  19
ENDBRANCH  16  18
TORSDOF 2
