REMARK  Name = ZINC14471932
REMARK  6 active torsions:
REMARK  status: ('A' for Active; 'I' for Inactive)
REMARK    1  A    between atoms: C_1  and  C_2
REMARK    2  A    between atoms: C_2  and  C_4
REMARK    3  A    between atoms: C_2  and  N_10
REMARK    4  A    between atoms: C_11  and  C_13
REMARK    5  A    between atoms: C_20  and  C_29
REMARK    6  A    between atoms: C_33  and  N_35
REMARK                            x       y       z     vdW  Elec       q    Type
REMARK                         _______ _______ _______ _____ _____    ______ ____
ROOT
ATOM      1  C   UNL     1      -7.565   3.687  -0.824  0.00  0.00    +0.058 A 
ATOM      2  C   UNL     1      -8.252   4.740  -0.224  0.00  0.00    +0.015 A 
ATOM      3  C   UNL     1      -8.047   5.028   1.108  0.00  0.00    +0.001 A 
ATOM      4  C   UNL     1      -7.151   4.273   1.847  0.00  0.00    +0.006 A 
ATOM      5  C   UNL     1      -6.456   3.233   1.267  0.00  0.00    -0.019 A 
ATOM      6  C   UNL     1      -6.655   2.909  -0.079  0.00  0.00    +0.044 A 
ATOM      7  N   UNL     1      -6.017   1.867  -0.731  0.00  0.00    -0.336 N 
ATOM      8  C   UNL     1      -4.995   1.133   0.031  0.00  0.00    +0.105 C 
ATOM      9  C   UNL     1      -5.510   0.991   1.448  0.00  0.00    +0.029 C 
ATOM     10  C   UNL     1      -5.466   2.441   2.028  0.00  0.00    +0.049 C 
ATOM     11  C   UNL     1      -5.584   2.201   3.487  0.00  0.00    -0.023 C 
ATOM     12  C   UNL     1      -5.063   1.010   3.763  0.00  0.00    -0.030 C 
ATOM     13  C   UNL     1      -4.583   0.339   2.473  0.00  0.00    +0.033 C 
ATOM     14  H   UNL     1      -5.657   2.167  -1.624  0.00  0.00    +0.147 HD
ENDROOT
BRANCH   8  15
ATOM     15  C   UNL     1      -3.700   1.904   0.030  0.00  0.00    -0.025 A 
ATOM     16  C   UNL     1      -3.712   3.274  -0.151  0.00  0.00    +0.005 A 
ATOM     17  C   UNL     1      -2.525   3.982  -0.152  0.00  0.00    +0.003 A 
ATOM     18  C   UNL     1      -1.325   3.319   0.032  0.00  0.00    +0.033 A 
ATOM     19  C   UNL     1      -1.313   1.948   0.208  0.00  0.00    +0.127 A 
ATOM     20  C   UNL     1      -2.501   1.241   0.210  0.00  0.00    +0.038 A 
BRANCH  19  21
ATOM     21  N   UNL     1      -0.029   1.238   0.401  0.00  0.00    +0.056 N 
ATOM     22  O   UNL     1      -0.018   0.031   0.561  0.00  0.00    -0.126 OA
ATOM     23  O   UNL     1       1.018   1.861   0.394  0.00  0.00    -0.126 OA
ENDBRANCH  19  21
ENDBRANCH   8  15
BRANCH   1  25
ATOM     24  N   UNL     1      -8.661   4.123  -2.966  0.00  0.00    -0.305 N 
ATOM     25  C   UNL     1      -7.792   3.383  -2.249  0.00  0.00    +0.246 C 
ATOM     26  O   UNL     1      -7.195   2.464  -2.777  0.00  0.00    -0.270 OA
ATOM     27  H   UNL     1      -9.137   4.855  -2.545  0.00  0.00    +0.150 HD
BRANCH  24  29
ATOM     28  C   UNL     1      -7.819   4.519  -5.228  0.00  0.00    +0.033 C 
ATOM     29  C   UNL     1      -8.886   3.821  -4.382  0.00  0.00    +0.100 C 
BRANCH  29  30
ATOM     30  C   UNL     1     -10.251   4.311  -4.789  0.00  0.00    -0.027 A 
ATOM     31  C   UNL     1     -10.722   5.521  -4.312  0.00  0.00    +0.005 A 
ATOM     32  C   UNL     1     -11.972   5.973  -4.689  0.00  0.00    +0.000 A 
ATOM     33  C   UNL     1     -12.757   5.212  -5.535  0.00  0.00    +0.000 A 
ATOM     34  C   UNL     1     -12.288   4.000  -6.008  0.00  0.00    +0.000 A 
ATOM     35  C   UNL     1     -11.036   3.550  -5.635  0.00  0.00    +0.005 A 
ENDBRANCH  29  30
ENDBRANCH  24  29
ENDBRANCH   1  25
TORSDOF 5
