REMARK  Name = ZINC48988253
REMARK  4 active torsions:
REMARK  status: ('A' for Active; 'I' for Inactive)
REMARK    1  A    between atoms: C_1  and  C_2
REMARK    2  A    between atoms: C_9  and  C_11
REMARK    3  A    between atoms: C_13  and  C_14
REMARK    4  A    between atoms: C_13  and  C_16
REMARK                            x       y       z     vdW  Elec       q    Type
REMARK                         _______ _______ _______ _____ _____    ______ ____
ROOT
ATOM      1  C   UNL     1       1.921  -5.376   2.550  0.00  0.00    +0.215 C 
ATOM      2  O   UNL     1       3.251  -5.231   2.734  0.00  0.00    -0.285 OA
ATOM      3  C   UNL     1       1.189  -6.227   3.381  0.00  0.00    +0.161 C 
ENDROOT
BRANCH   1  11
ATOM      4  C   UNL     1      -0.407   0.161  -1.978  0.00  0.00    +0.008 C 
ATOM      5  C   UNL     1      -0.083  -1.296  -1.644  0.00  0.00    -0.009 C 
ATOM      6  C   UNL     1      -1.323  -2.162  -1.883  0.00  0.00    +0.009 C 
ATOM      7  C   UNL     1      -0.916  -3.639  -1.811  0.00  0.00    +0.043 C 
ATOM      8  C   UNL     1      -0.090  -3.844  -0.575  0.00  0.00    -0.006 A 
ATOM      9  C   UNL     1       0.493  -2.873   0.187  0.00  0.00    -0.036 A 
ATOM     10  C   UNL     1       1.213  -3.297   1.293  0.00  0.00    +0.023 A 
ATOM     11  C   UNL     1       1.269  -4.665   1.514  0.00  0.00    +0.061 A 
ATOM     12  S   UNL     1       0.304  -5.295   0.153  0.00  0.00    -0.090 S 
ATOM     13  C   UNL     1       0.346  -1.399  -0.180  0.00  0.00    +0.039 C 
ENDBRANCH   1  11
BRANCH   3  14
ATOM     14  C   UNL     1      -0.270  -6.274   3.279  0.00  0.00    +0.261 C 
ATOM     15  O   UNL     1      -0.854  -5.491   2.552  0.00  0.00    -0.269 OA
ATOM     16  N   UNL     1      -0.967  -7.183   3.989  0.00  0.00    -0.297 N 
ATOM     17  C   UNL     1      -0.392  -8.178   4.905  0.00  0.00    +0.108 C 
ATOM     18  C   UNL     1      -1.561  -9.013   5.468  0.00  0.00    +0.020 C 
ATOM     19  C   UNL     1      -2.674  -8.812   4.405  0.00  0.00    +0.020 C 
ATOM     20  C   UNL     1      -2.433  -7.340   3.980  0.00  0.00    +0.108 C 
ENDBRANCH   3  14
BRANCH   3  21
ATOM     21  C   UNL     1       1.867  -7.054   4.334  0.00  0.00    +0.108 C 
ATOM     22  N   UNL     1       2.404  -7.710   5.090  0.00  0.00    -0.191 NA
ENDBRANCH   3  21
TORSDOF 3
