REMARK  Name = ZINC59014803
REMARK  8 active torsions:
REMARK  status: ('A' for Active; 'I' for Inactive)
REMARK    1  A    between atoms: C_4  and  O_7
REMARK    2  A    between atoms: O_7  and  C_8
REMARK    3  A    between atoms: C_13  and  N_14
REMARK    4  A    between atoms: C_15  and  C_17
REMARK    5  A    between atoms: C_17  and  S_18
REMARK    6  A    between atoms: S_18  and  C_19
REMARK    7  A    between atoms: N_24  and  N_25
REMARK    8  A    between atoms: C_26  and  C_27
REMARK                            x       y       z     vdW  Elec       q    Type
REMARK                         _______ _______ _______ _____ _____    ______ ____
ROOT
ATOM      1  C   UNL     1       8.399  -1.908  -0.024  0.00  0.00    +0.173 C 
ENDROOT
BRANCH   1   3
ATOM      2  N   UNL     1       5.929  -1.934   0.113  0.00  0.00    -0.282 N 
ATOM      3  C   UNL     1       7.082  -2.631   0.100  0.00  0.00    +0.228 C 
ATOM      4  O   UNL     1       7.061  -3.841   0.188  0.00  0.00    -0.275 OA
ATOM      5  H   UNL     1       5.948  -0.965   0.100  0.00  0.00    +0.155 HD
BRANCH   2  11
ATOM      6  C   UNL     1       3.596  -2.081  -0.517  0.00  0.00    +0.150 A 
ATOM      7  C   UNL     1       2.386  -2.758  -0.487  0.00  0.00    +0.048 A 
ATOM      8  C   UNL     1       2.279  -3.951   0.202  0.00  0.00    +0.004 A 
ATOM      9  C   UNL     1       3.375  -4.474   0.863  0.00  0.00    +0.002 A 
ATOM     10  C   UNL     1       4.585  -3.806   0.838  0.00  0.00    +0.027 A 
ATOM     11  C   UNL     1       4.702  -2.611   0.144  0.00  0.00    +0.076 A 
BRANCH   6  12
ATOM     12  O   UNL     1       3.704  -0.907  -1.194  0.00  0.00    -0.454 OA
BRANCH  12  16
ATOM     13  C   UNL     1       0.273   0.723  -2.804  0.00  0.00    +0.000 A 
ATOM     14  C   UNL     1       0.422   0.646  -1.431  0.00  0.00    +0.004 A 
ATOM     15  C   UNL     1       1.570   0.101  -0.890  0.00  0.00    +0.046 A 
ATOM     16  C   UNL     1       2.573  -0.371  -1.724  0.00  0.00    +0.129 A 
ATOM     17  C   UNL     1       2.421  -0.293  -3.101  0.00  0.00    +0.046 A 
ATOM     18  C   UNL     1       1.271   0.254  -3.638  0.00  0.00    +0.004 A 
ENDBRANCH  12  16
ENDBRANCH   6  12
ENDBRANCH   2  11
ENDBRANCH   1   3
BRANCH   1  19
ATOM     19  S   UNL     1       9.755  -3.112  -0.011  0.00  0.00    -0.075 S 
BRANCH  19  20
ATOM     20  C   UNL     1      11.205  -2.123  -0.161  0.00  0.00    +0.211 A 
ATOM     21  N   UNL     1      12.459  -2.585  -0.201  0.00  0.00    -0.186 NA
ATOM     22  C   UNL     1      13.299  -1.577  -0.318  0.00  0.00    +0.232 A 
ATOM     23  N   UNL     1      12.578  -0.437  -0.355  0.00  0.00    -0.245 N 
ATOM     24  N   UNL     1      11.229  -0.815  -0.256  0.00  0.00    -0.144 NA
ATOM     25  N   UNL     1      14.676  -1.671  -0.391  0.00  0.00    -0.205 N 
ATOM     26  H   UNL     1      15.213  -0.868  -0.476  0.00  0.00    +0.177 HD
ATOM     27  H   UNL     1      12.923   0.466  -0.436  0.00  0.00    +0.192 HD
BRANCH  25  28
ATOM     28  N   UNL     1      15.297  -2.926  -0.341  0.00  0.00    -0.188 NA
ATOM     29  C   UNL     1      16.590  -3.014  -0.410  0.00  0.00    +0.138 C 
BRANCH  29  30
ATOM     30  C   UNL     1      17.243  -4.335  -0.357  0.00  0.00    -0.005 A 
ATOM     31  C   UNL     1      16.472  -5.494  -0.240  0.00  0.00    +0.012 A 
ATOM     32  C   UNL     1      17.088  -6.727  -0.193  0.00  0.00    +0.039 A 
ATOM     33  C   UNL     1      18.470  -6.817  -0.260  0.00  0.00    +0.123 A 
ATOM     34  C   UNL     1      19.240  -5.671  -0.376  0.00  0.00    +0.039 A 
ATOM     35  C   UNL     1      18.635  -4.433  -0.431  0.00  0.00    +0.012 A 
ATOM     36  F   UNL     1      19.068  -8.028  -0.213  0.00  0.00    -0.205 F 
ENDBRANCH  29  30
ENDBRANCH  25  28
ENDBRANCH  19  20
ENDBRANCH   1  19
TORSDOF 8
