REMARK  Name = ZINC08820995
REMARK  7 active torsions:
REMARK  status: ('A' for Active; 'I' for Inactive)
REMARK    1  A    between atoms: C_1  and  C_2
REMARK    2  A    between atoms: C_2  and  C_3
REMARK    3  A    between atoms: C_3  and  C_4
REMARK    4  A    between atoms: C_4  and  C_5
REMARK    5  A    between atoms: C_8  and  N_11
REMARK    6  A    between atoms: C_17  and  C_18
REMARK    7  A    between atoms: C_21  and  C_23
REMARK                            x       y       z     vdW  Elec       q    Type
REMARK                         _______ _______ _______ _____ _____    ______ ____
ROOT
ATOM      1  N   UNL     1      -1.359   7.561  -0.380  0.00  0.00    -0.226 NA
ATOM      2  C   UNL     1      -0.828   6.362  -0.279  0.00  0.00    +0.166 C 
ATOM      3  N   UNL     1      -1.470   5.146  -0.190  0.00  0.00    -0.260 N 
ATOM      4  C   UNL     1      -0.776   4.025  -0.093  0.00  0.00    +0.257 C 
ATOM      5  O   UNL     1      -1.327   2.941  -0.013  0.00  0.00    -0.269 OA
ATOM      6  C   UNL     1       0.690   4.142  -0.086  0.00  0.00    +0.081 C 
ATOM      7  C   UNL     1       1.637   3.163   0.003  0.00  0.00    +0.066 C 
ATOM      8  S   UNL     1       0.898   5.912  -0.216  0.00  0.00    -0.049 S 
ATOM      9  H   UNL     1      -2.439   5.112  -0.198  0.00  0.00    +0.157 HD
ENDROOT
BRANCH   1  13
ATOM     10  C   UNL     1       1.086  10.891  -0.616  0.00  0.00    -0.047 A 
ATOM     11  C   UNL     1       0.004  10.769  -1.470  0.00  0.00    +0.006 A 
ATOM     12  C   UNL     1      -0.815   9.662  -1.397  0.00  0.00    +0.028 A 
ATOM     13  C   UNL     1      -0.550   8.662  -0.458  0.00  0.00    +0.067 A 
ATOM     14  C   UNL     1       0.541   8.794   0.405  0.00  0.00    +0.028 A 
ATOM     15  C   UNL     1       1.355   9.904   0.316  0.00  0.00    +0.006 A 
BRANCH  10  16
ATOM     16  C   UNL     1       1.976  12.104  -0.702  0.00  0.00    +0.035 C 
BRANCH  16  17
ATOM     17  C   UNL     1       1.444  13.194   0.230  0.00  0.00    +0.004 C 
BRANCH  17  19
ATOM     18  C   UNL     1       1.815  15.516   1.074  0.00  0.00    +0.004 C 
ATOM     19  C   UNL     1       2.347  14.426   0.142  0.00  0.00    -0.003 C 
ENDBRANCH  17  19
ENDBRANCH  16  17
ENDBRANCH  10  16
ENDBRANCH   1  13
BRANCH   7  20
ATOM     20  C   UNL     1       1.251   1.827   0.244  0.00  0.00    +0.130 A 
ATOM     21  C   UNL     1       2.094   0.731   0.283  0.00  0.00    +0.050 A 
ATOM     22  C   UNL     1       1.294  -0.383   0.549  0.00  0.00    +0.050 A 
ATOM     23  C   UNL     1       0.008   0.062   0.662  0.00  0.00    +0.136 A 
ATOM     24  O   UNL     1      -0.007   1.395   0.477  0.00  0.00    -0.455 OA
BRANCH  23  25
ATOM     25  C   UNL     1      -1.172  -0.779   0.942  0.00  0.00    +0.019 A 
ATOM     26  C   UNL     1      -2.441  -0.200   1.034  0.00  0.00    +0.013 A 
ATOM     27  C   UNL     1      -3.539  -0.992   1.296  0.00  0.00    +0.022 A 
ATOM     28  C   UNL     1      -3.388  -2.358   1.466  0.00  0.00    +0.059 A 
ATOM     29  C   UNL     1      -2.132  -2.939   1.375  0.00  0.00    +0.060 A 
ATOM     30  C   UNL     1      -1.026  -2.158   1.109  0.00  0.00    +0.033 A 
ATOM     31 CL   UNL     1      -1.953  -4.652   1.590  0.00  0.00    -0.082 Cl
ATOM     32 CL   UNL     1      -4.776  -3.347   1.794  0.00  0.00    -0.082 Cl
ENDBRANCH  23  25
ENDBRANCH   7  20
TORSDOF 6
