REMARK  Name = ZINC12190878
REMARK  9 active torsions:
REMARK  status: ('A' for Active; 'I' for Inactive)
REMARK    1  A    between atoms: C_3  and  C_6
REMARK    2  A    between atoms: C_7  and  C_19
REMARK    3  A    between atoms: C_19  and  N_20
REMARK    4  A    between atoms: N_20  and  C_21
REMARK    5  A    between atoms: C_21  and  C_22
REMARK    6  A    between atoms: C_22  and  C_23
REMARK    7  A    between atoms: C_23  and  N_24
REMARK    8  A    between atoms: C_30  and  C_32
REMARK    9  A    between atoms: C_32  and  C_33
REMARK                            x       y       z     vdW  Elec       q    Type
REMARK                         _______ _______ _______ _____ _____    ______ ____
ROOT
ATOM      1  C   UNL     1      -0.377  -2.644  -1.913  0.00  0.00    +0.145 C 
ENDROOT
BRANCH   1   3
ATOM      2  C   UNL     1      -1.071  -3.434  -4.208  0.00  0.00    +0.083 A 
ATOM      3  C   UNL     1      -0.117  -2.804  -3.389  0.00  0.00    -0.003 A 
ATOM      4  C   UNL     1       1.044  -2.342  -3.933  0.00  0.00    +0.017 A 
ATOM      5  C   UNL     1       1.249  -2.510  -5.317  0.00  0.00    +0.004 A 
ATOM      6  C   UNL     1       2.423  -2.055  -5.937  0.00  0.00    +0.059 A 
ATOM      7  C   UNL     1       2.594  -2.232  -7.280  0.00  0.00    +0.167 A 
ATOM      8  C   UNL     1       1.604  -2.866  -8.050  0.00  0.00    +0.168 A 
ATOM      9  C   UNL     1       0.453  -3.319  -7.471  0.00  0.00    +0.078 A 
ATOM     10  C   UNL     1       0.248  -3.150  -6.092  0.00  0.00    +0.075 A 
ATOM     11  N   UNL     1      -0.873  -3.584  -5.507  0.00  0.00    -0.246 NA
ATOM     12  O   UNL     1       2.030  -2.910  -9.347  0.00  0.00    -0.453 OA
ATOM     13  C   UNL     1       3.087  -1.937  -9.438  0.00  0.00    +0.466 C 
ATOM     14  O   UNL     1       3.626  -1.885  -8.104  0.00  0.00    -0.453 OA
BRANCH   2  17
ATOM     15  C   UNL     1      -4.622  -4.405  -3.343  0.00  0.00    +0.008 A 
ATOM     16  C   UNL     1      -3.603  -3.860  -4.088  0.00  0.00    +0.017 A 
ATOM     17  C   UNL     1      -2.321  -3.935  -3.607  0.00  0.00    +0.038 A 
ATOM     18  S   UNL     1      -2.559  -4.803  -2.065  0.00  0.00    -0.095 S 
ATOM     19  C   UNL     1      -4.331  -4.999  -2.156  0.00  0.00    +0.046 A 
ENDBRANCH   2  17
ENDBRANCH   1   3
BRANCH   1  20
ATOM     20  N   UNL     1       0.690  -1.839  -1.314  0.00  0.00    -0.297 N 
ATOM     21  C   UNL     1       1.749  -2.443  -0.740  0.00  0.00    +0.216 C 
ATOM     22  O   UNL     1       1.865  -3.649  -0.800  0.00  0.00    -0.276 OA
BRANCH  20  23
ATOM     23  C   UNL     1       0.607  -0.376  -1.340  0.00  0.00    +0.109 C 
BRANCH  23  24
ATOM     24  C   UNL     1      -0.118   0.115  -0.086  0.00  0.00    +0.038 C 
BRANCH  24  25
ATOM     25  C   UNL     1      -0.205   1.643  -0.112  0.00  0.00    +0.109 C 
BRANCH  25  26
ATOM     26  N   UNL     1      -0.899   2.113   1.089  0.00  0.00    -0.301 N 
ATOM     27  C   UNL     1      -2.350   2.314   1.182  0.00  0.00    +0.108 C 
ATOM     28  C   UNL     1      -2.660   2.376   2.696  0.00  0.00    +0.028 C 
ATOM     29  C   UNL     1      -1.310   2.862   3.272  0.00  0.00    +0.097 C 
ATOM     30  C   UNL     1      -0.289   2.422   2.246  0.00  0.00    +0.216 C 
ATOM     31  O   UNL     1       0.907   2.358   2.439  0.00  0.00    -0.276 OA
ENDBRANCH  25  26
ENDBRANCH  24  25
ENDBRANCH  23  24
ENDBRANCH  20  23
BRANCH  21  32
ATOM     32  C   UNL     1       2.788  -1.621  -0.023  0.00  0.00    +0.099 C 
BRANCH  32  33
ATOM     33  C   UNL     1       3.874  -2.544   0.534  0.00  0.00    -0.002 C 
ATOM     34  C   UNL     1       3.295  -3.420   1.664  0.00  0.00    +0.004 C 
ATOM     35  C   UNL     1       4.448  -3.524   2.693  0.00  0.00    +0.000 C 
ATOM     36  C   UNL     1       5.074  -2.108   2.649  0.00  0.00    +0.000 C 
ATOM     37  C   UNL     1       5.005  -1.710   1.160  0.00  0.00    +0.004 C 
ENDBRANCH  32  33
ENDBRANCH  21  32
ENDBRANCH   1  20
TORSDOF 9
