REMARK  Name = ZINC38975585
REMARK  6 active torsions:
REMARK  status: ('A' for Active; 'I' for Inactive)
REMARK    1  A    between atoms: C_3  and  C_6
REMARK    2  A    between atoms: C_7  and  C_8
REMARK    3  A    between atoms: N_10  and  C_11
REMARK    4  A    between atoms: C_14  and  C_17
REMARK    5  A    between atoms: C_28  and  C_30
REMARK    6  A    between atoms: C_31  and  C_32
REMARK                            x       y       z     vdW  Elec       q    Type
REMARK                         _______ _______ _______ _____ _____    ______ ____
ROOT
ATOM      1  C   UNL     1      12.202  -2.250  -0.309  0.00  0.00    +0.218 C 
ATOM      2  N   UNL     1      12.641  -3.418  -1.077  0.00  0.00    -0.360 N 
ATOM      3  C   UNL     1      13.217  -3.014  -2.174  0.00  0.00    +0.060 C 
ATOM      4  C   UNL     1      13.829  -3.767  -3.287  0.00  0.00    +0.029 C 
ATOM      5  C   UNL     1      14.366  -3.096  -4.321  0.00  0.00    +0.025 C 
ATOM      6  C   UNL     1      14.344  -1.629  -4.346  0.00  0.00    +0.036 C 
ATOM      7  C   UNL     1      13.762  -0.896  -3.290  0.00  0.00    +0.050 C 
ATOM      8  C   UNL     1      13.210  -1.536  -2.227  0.00  0.00    +0.075 C 
ATOM      9  N   UNL     1      12.589  -1.064  -1.085  0.00  0.00    -0.220 NA
ATOM     10  N   UNL     1      14.879  -0.982  -5.377  0.00  0.00    -0.282 N 
ATOM     11  C   UNL     1      15.329  -1.669  -6.440  0.00  0.00    +0.241 C 
ATOM     12  O   UNL     1      14.583  -2.429  -7.036  0.00  0.00    -0.270 OA
ATOM     13  H   UNL     1      14.944  -0.015  -5.361  0.00  0.00    +0.155 HD
ATOM     14  H   UNL     1      12.521  -4.343  -0.812  0.00  0.00    +0.162 HD
ENDROOT
BRANCH   1  18
ATOM     15  C   UNL     1       7.960  -2.344   0.200  0.00  0.00    +0.034 A 
ATOM     16  C   UNL     1       8.626  -1.127   0.129  0.00  0.00    +0.024 A 
ATOM     17  C   UNL     1       9.996  -1.100  -0.035  0.00  0.00    +0.009 A 
ATOM     18  C   UNL     1      10.707  -2.283  -0.129  0.00  0.00    -0.006 A 
ATOM     19  C   UNL     1      10.047  -3.496  -0.059  0.00  0.00    +0.009 A 
ATOM     20  C   UNL     1       8.677  -3.530   0.112  0.00  0.00    +0.024 A 
BRANCH  15  23
ATOM     21  C   UNL     1       5.803  -1.434  -0.217  0.00  0.00    +0.241 C 
ATOM     22  O   UNL     1       6.321  -0.511  -0.820  0.00  0.00    -0.270 OA
ATOM     23  N   UNL     1       6.572  -2.374   0.366  0.00  0.00    -0.282 N 
ATOM     24  H   UNL     1       6.163  -3.072   0.901  0.00  0.00    +0.155 HD
BRANCH  21  26
ATOM     25  C   UNL     1       3.618  -0.572  -0.715  0.00  0.00    +0.051 C 
ATOM     26  C   UNL     1       4.393  -1.519  -0.128  0.00  0.00    +0.071 C 
BRANCH  25  29
ATOM     27  C   UNL     1       0.026  -0.244  -0.839  0.00  0.00    +0.042 A 
ATOM     28  C   UNL     1       1.304   0.231  -1.173  0.00  0.00    +0.049 A 
ATOM     29  C   UNL     1       2.208  -0.657  -0.627  0.00  0.00    +0.128 A 
ATOM     30  O   UNL     1       1.507  -1.621   0.007  0.00  0.00    -0.464 OA
ATOM     31  C   UNL     1       0.196  -1.375  -0.119  0.00  0.00    +0.195 A 
ENDBRANCH  25  29
ENDBRANCH  21  26
ENDBRANCH  15  23
ENDBRANCH   1  18
BRANCH  11  32
ATOM     32  C   UNL     1      16.713  -1.506  -6.883  0.00  0.00    +0.071 C 
ATOM     33  C   UNL     1      17.168  -2.199  -7.957  0.00  0.00    +0.051 C 
BRANCH  33  34
ATOM     34  C   UNL     1      18.507  -2.041  -8.385  0.00  0.00    +0.128 A 
ATOM     35  C   UNL     1      19.098  -2.677  -9.460  0.00  0.00    +0.049 A 
ATOM     36  C   UNL     1      20.424  -2.223  -9.511  0.00  0.00    +0.042 A 
ATOM     37  C   UNL     1      20.588  -1.350  -8.492  0.00  0.00    +0.195 A 
ATOM     38  O   UNL     1      19.433  -1.238  -7.821  0.00  0.00    -0.464 OA
ENDBRANCH  33  34
ENDBRANCH  11  32
TORSDOF 6
