REMARK  Name = ZINC59044751
REMARK  10 active torsions:
REMARK  status: ('A' for Active; 'I' for Inactive)
REMARK    1  A    between atoms: C_1  and  C_2
REMARK    2  A    between atoms: C_2  and  C_3
REMARK    3  A    between atoms: C_2  and  C_4
REMARK    4  A    between atoms: C_4  and  S_5
REMARK    5  A    between atoms: S_5  and  C_6
REMARK    6  A    between atoms: C_12  and  C_14
REMARK    7  A    between atoms: C_14  and  S_15
REMARK    8  A    between atoms: S_15  and  C_16
REMARK    9  A    between atoms: C_19  and  C_22
REMARK   10  A    between atoms: N_20  and  N_21
REMARK                            x       y       z     vdW  Elec       q    Type
REMARK                         _______ _______ _______ _____ _____    ______ ____
ROOT
ATOM      1  S   UNL     1     -10.629  -3.503   0.113  0.00  0.00    -0.075 S 
ENDROOT
BRANCH   1   2
ATOM      2  C   UNL     1     -12.049  -4.546   0.083  0.00  0.00    +0.209 A 
ATOM      3  N   UNL     1     -12.053  -5.856  -0.018  0.00  0.00    -0.121 NA
ATOM      4  N   UNL     1     -13.260  -6.296  -0.009  0.00  0.00    -0.127 NA
ATOM      5  C   UNL     1     -14.101  -5.295   0.098  0.00  0.00    +0.182 A 
ATOM      6  N   UNL     1     -13.351  -4.143   0.166  0.00  0.00    -0.224 N 
BRANCH   5   7
ATOM      7  C   UNL     1     -15.576  -5.387   0.144  0.00  0.00    +0.022 A 
ATOM      8  C   UNL     1     -16.356  -4.247  -0.060  0.00  0.00    +0.012 A 
ATOM      9  C   UNL     1     -17.732  -4.339  -0.017  0.00  0.00    +0.002 A 
ATOM     10  C   UNL     1     -18.339  -5.558   0.228  0.00  0.00    +0.015 A 
ATOM     11  C   UNL     1     -17.572  -6.692   0.432  0.00  0.00    +0.019 A 
ATOM     12  C   UNL     1     -16.194  -6.614   0.385  0.00  0.00    +0.027 A 
ATOM     13 BR   UNL     1     -18.413  -8.353   0.766  0.00  0.00    -0.050 Br
ENDBRANCH   5   7
BRANCH   6  14
ATOM     14  N   UNL     1     -13.813  -2.863   0.288  0.00  0.00    -0.295 N 
ATOM     15  H   UNL     1     -13.972  -2.448  -0.618  0.00  0.00    +0.163 HD
ATOM     16  H   UNL     1     -14.650  -2.833   0.851  0.00  0.00    +0.163 HD
ENDBRANCH   6  14
ENDBRANCH   1   2
BRANCH   1  17
ATOM     17  C   UNL     1      -9.236  -4.656  -0.035  0.00  0.00    +0.173 C 
BRANCH  17  24
ATOM     18  C   UNL     1      -3.116  -2.791  -0.118  0.00  0.00    +0.160 A 
ATOM     19  N   UNL     1      -4.196  -2.031  -0.014  0.00  0.00    -0.133 NA
ATOM     20  N   UNL     1      -5.358  -2.521  -0.009  0.00  0.00    -0.125 NA
ATOM     21  C   UNL     1      -5.571  -3.823  -0.108  0.00  0.00    +0.189 A 
ATOM     22  S   UNL     1      -3.882  -4.405  -0.228  0.00  0.00    -0.024 S 
ATOM     23  N   UNL     1      -6.766  -4.536  -0.120  0.00  0.00    -0.263 N 
ATOM     24  C   UNL     1      -7.942  -3.884  -0.022  0.00  0.00    +0.229 C 
ATOM     25  O   UNL     1      -7.958  -2.675   0.078  0.00  0.00    -0.275 OA
ATOM     26  H   UNL     1      -6.754  -5.503  -0.199  0.00  0.00    +0.157 HD
BRANCH  18  27
ATOM     27  S   UNL     1      -1.412  -2.341  -0.146  0.00  0.00    -0.097 S 
BRANCH  27  28
ATOM     28  C   UNL     1      -1.433  -0.534   0.013  0.00  0.00    +0.079 C 
BRANCH  28  30
ATOM     29  C   UNL     1      -0.019   1.526   0.010  0.00  0.00    +0.008 C 
ATOM     30  C   UNL     1       0.002  -0.004   0.002  0.00  0.00    -0.007 C 
ATOM     31  C   UNL     1       0.742  -0.511   1.242  0.00  0.00    +0.008 C 
ENDBRANCH  28  30
ENDBRANCH  27  28
ENDBRANCH  18  27
ENDBRANCH  17  24
ENDBRANCH   1  17
TORSDOF 8
