REMARK  Name = ZINC07587717
REMARK  6 active torsions:
REMARK  status: ('A' for Active; 'I' for Inactive)
REMARK    1  A    between atoms: C_1  and  C_2
REMARK    2  A    between atoms: C_2  and  C_3
REMARK    3  A    between atoms: C_2  and  C_4
REMARK    4  A    between atoms: C_4  and  N_5
REMARK    5  A    between atoms: C_9  and  C_11
REMARK    6  A    between atoms: C_11  and  N_12
REMARK                            x       y       z     vdW  Elec       q    Type
REMARK                         _______ _______ _______ _____ _____    ______ ____
ROOT
ATOM      1  N   UNL     1      -2.105  -0.148  -1.230  0.00  0.00    -0.299 N 
ATOM      2  C   UNL     1      -3.387  -0.508  -1.443  0.00  0.00    +0.306 C 
ATOM      3  O   UNL     1      -3.985  -1.152  -0.604  0.00  0.00    -0.252 OA
ATOM      4  N   UNL     1      -4.005  -0.154  -2.587  0.00  0.00    -0.242 N 
ATOM      5  C   UNL     1      -5.286  -0.513  -2.800  0.00  0.00    +0.204 C 
ATOM      6  O   UNL     1      -5.883  -1.156  -1.963  0.00  0.00    -0.277 OA
ATOM      7  H   UNL     1      -1.628   0.366  -1.901  0.00  0.00    +0.150 HD
ATOM      8  H   UNL     1      -3.528   0.360  -3.257  0.00  0.00    +0.159 HD
ENDROOT
BRANCH   1   9
ATOM      9  C   UNL     1      -1.433  -0.534   0.013  0.00  0.00    +0.108 C 
BRANCH   9  11
ATOM     10  C   UNL     1      -0.019   1.526   0.010  0.00  0.00    +0.009 C 
ATOM     11  C   UNL     1       0.002  -0.004   0.002  0.00  0.00    -0.000 C 
ATOM     12  C   UNL     1       0.742  -0.511   1.242  0.00  0.00    +0.009 C 
ENDBRANCH   9  11
ENDBRANCH   1   9
BRANCH   5  13
ATOM     13  C   UNL     1      -5.978  -0.117  -4.079  0.00  0.00    +0.019 C 
BRANCH  13  14
ATOM     14  N   UNL     1      -7.356  -0.625  -4.069  0.00  0.00    +0.387 N 
ATOM     15  C   UNL     1      -8.109   0.028  -2.992  0.00  0.00    -0.078 C 
ATOM     16  C   UNL     1      -9.522  -0.555  -2.924  0.00  0.00    -0.018 C 
ATOM     17  C   UNL     1     -10.230  -0.319  -4.261  0.00  0.00    +0.000 C 
ATOM     18  C   UNL     1      -9.398  -0.942  -5.386  0.00  0.00    -0.025 C 
ATOM     19  C   UNL     1      -7.990  -0.343  -5.362  0.00  0.00    -0.065 C 
ATOM     20  C   UNL     1      -7.155  -0.960  -6.487  0.00  0.00    -0.015 C 
ATOM     21  C   UNL     1      -7.815  -0.660  -7.834  0.00  0.00    -0.002 C 
ATOM     22  C   UNL     1      -9.223  -1.258  -7.857  0.00  0.00    +0.000 C 
ATOM     23  C   UNL     1     -10.059  -0.645  -6.733  0.00  0.00    +0.002 C 
ATOM     24  H   UNL     1      -7.344  -1.622  -3.912  0.00  0.00    -0.081 HD
ENDBRANCH  13  14
ENDBRANCH   5  13
TORSDOF 4
