REMARK  Name = ZINC12961597
REMARK  5 active torsions:
REMARK  status: ('A' for Active; 'I' for Inactive)
REMARK    1  A    between atoms: C_5  and  C_6
REMARK    2  A    between atoms: C_9  and  C_12
REMARK    3  A    between atoms: C_12  and  N_13
REMARK    4  A    between atoms: C_17  and  C_20
REMARK    5  A    between atoms: C_28  and  C_31
REMARK                            x       y       z     vdW  Elec       q    Type
REMARK                         _______ _______ _______ _____ _____    ______ ____
ROOT
ATOM      1  C   UNL     1      -1.180  -0.888   0.009  0.00  0.00    +0.111 C 
ATOM      2  N   UNL     1      -2.413  -0.502   0.018  0.00  0.00    -0.087 NA
ATOM      3  O   UNL     1      -3.326  -1.582   0.015  0.00  0.00    -0.388 OA
ATOM      4  C   UNL     1      -2.604  -2.764   0.417  0.00  0.00    +0.227 C 
ATOM      5  C   UNL     1      -1.156  -2.404   0.001  0.00  0.00    +0.109 C 
ENDROOT
BRANCH   1  10
ATOM      6  C   UNL     1      -0.017   1.407   0.010  0.00  0.00    +0.051 A 
ATOM      7  C   UNL     1       1.261   1.840  -0.000  0.00  0.00    +0.117 A 
ATOM      8  N   UNL     1       2.072   0.748  -0.014  0.00  0.00    -0.220 N 
ATOM      9  N   UNL     1       1.262  -0.395  -0.012  0.00  0.00    -0.164 NA
ATOM     10  C   UNL     1       0.002  -0.004   0.002  0.00  0.00    +0.110 A 
ATOM     11  C   UNL     1       3.470   0.763  -0.027  0.00  0.00    +0.172 A 
ATOM     12  C   UNL     1       4.175  -0.329   0.465  0.00  0.00    +0.086 A 
ATOM     13  C   UNL     1       5.560  -0.301   0.446  0.00  0.00    +0.037 A 
ATOM     14  C   UNL     1       6.191   0.824  -0.068  0.00  0.00    +0.074 A 
ATOM     15  C   UNL     1       5.426   1.872  -0.541  0.00  0.00    +0.125 A 
ATOM     16  N   UNL     1       4.109   1.814  -0.514  0.00  0.00    -0.234 NA
ATOM     17 CL   UNL     1       3.333  -1.709   1.097  0.00  0.00    -0.080 Cl
BRANCH  14  18
ATOM     18  C   UNL     1       7.696   0.900  -0.109  0.00  0.00    +0.419 C 
ATOM     19  F   UNL     1       8.156   0.378  -1.323  0.00  0.00    -0.166 F 
ATOM     20  F   UNL     1       8.099   2.235   0.007  0.00  0.00    -0.166 F 
ATOM     21  F   UNL     1       8.230   0.158   0.950  0.00  0.00    -0.166 F 
ENDBRANCH  14  18
ENDBRANCH   1  10
BRANCH   4  22
ATOM     22  C   UNL     1      -3.100  -3.994  -0.346  0.00  0.00    +0.150 C 
BRANCH  22  23
ATOM     23  N   UNL     1      -4.517  -4.217  -0.044  0.00  0.00    -0.324 N 
ATOM     24  C   UNL     1      -5.192  -5.285  -0.625  0.00  0.00    +0.137 A 
ATOM     25  C   UNL     1      -6.539  -5.488  -0.339  0.00  0.00    +0.081 A 
ATOM     26  C   UNL     1      -7.198  -6.555  -0.925  0.00  0.00    +0.037 A 
ATOM     27  C   UNL     1      -6.485  -7.385  -1.780  0.00  0.00    +0.074 A 
ATOM     28  C   UNL     1      -5.151  -7.124  -2.019  0.00  0.00    +0.125 A 
ATOM     29  N   UNL     1      -4.549  -6.097  -1.450  0.00  0.00    -0.238 NA
ATOM     30 CL   UNL     1      -7.381  -4.418   0.739  0.00  0.00    -0.080 Cl
ATOM     31  H   UNL     1      -4.984  -3.620   0.561  0.00  0.00    +0.148 HD
BRANCH  27  32
ATOM     32  C   UNL     1      -7.161  -8.559  -2.441  0.00  0.00    +0.419 C 
ATOM     33  F   UNL     1      -7.703  -8.156  -3.666  0.00  0.00    -0.166 F 
ATOM     34  F   UNL     1      -6.225  -9.575  -2.656  0.00  0.00    -0.166 F 
ATOM     35  F   UNL     1      -8.183  -9.034  -1.612  0.00  0.00    -0.166 F 
ENDBRANCH  27  32
ENDBRANCH  22  23
ENDBRANCH   4  22
TORSDOF 5
