REMARK  Name = ZINC15672929
REMARK  8 active torsions:
REMARK  status: ('A' for Active; 'I' for Inactive)
REMARK    1  A    between atoms: C_1  and  C_2
REMARK    2  A    between atoms: C_2  and  C_24
REMARK    3  A    between atoms: N_14  and  C_15
REMARK    4  A    between atoms: C_15  and  C_16
REMARK    5  A    between atoms: C_16  and  N_77
REMARK    6  A    between atoms: C_17  and  N_77
REMARK    7  A    between atoms: C_18  and  N_77
REMARK    8  A    between atoms: N_26  and  C_27
REMARK                            x       y       z     vdW  Elec       q    Type
REMARK                         _______ _______ _______ _____ _____    ______ ____
ROOT
ATOM      1  C   UNL     1      -3.143   0.164   3.620  0.00  0.00    +0.043 C 
ATOM      2  C   UNL     1      -2.446   1.350   2.951  0.00  0.00    +0.128 C 
ATOM      3  C   UNL     1      -3.502   2.380   2.548  0.00  0.00    +0.157 C 
ATOM      4  N   UNL     1      -2.835   3.635   2.193  0.00  0.00    -0.333 N 
ATOM      5  C   UNL     1      -3.243   4.613   1.305  0.00  0.00    +0.057 A 
ATOM      6  C   UNL     1      -4.306   4.866   0.425  0.00  0.00    +0.034 A 
ATOM      7  C   UNL     1      -4.332   6.005  -0.299  0.00  0.00    +0.048 A 
ATOM      8  S   UNL     1      -2.832   6.826   0.210  0.00  0.00    -0.095 S 
ATOM      9  C   UNL     1      -2.252   5.605   1.359  0.00  0.00    +0.038 A 
ATOM     10  C   UNL     1      -1.264   5.226   2.261  0.00  0.00    +0.048 A 
ATOM     11  C   UNL     1      -1.625   4.012   2.765  0.00  0.00    +0.106 A 
ATOM     12  C   UNL     1      -0.947   3.139   3.731  0.00  0.00    +0.264 C 
ATOM     13  O   UNL     1       0.020   3.515   4.368  0.00  0.00    -0.268 OA
ATOM     14  N   UNL     1      -1.456   1.893   3.874  0.00  0.00    -0.282 N 
ENDROOT
BRANCH   2  15
ATOM     15  C   UNL     1      -1.741   0.864   1.711  0.00  0.00    +0.238 C 
ATOM     16  O   UNL     1      -2.112  -0.151   1.161  0.00  0.00    -0.273 OA
ATOM     17  N   UNL     1      -0.698   1.558   1.214  0.00  0.00    -0.311 N 
ATOM     18  H   UNL     1      -0.402   2.370   1.653  0.00  0.00    +0.149 HD
BRANCH  17  19
ATOM     19  C   UNL     1      -0.013   1.086   0.008  0.00  0.00    +0.073 C 
ATOM     20  C   UNL     1      -0.753   1.593  -1.231  0.00  0.00    +0.022 C 
ATOM     21  C   UNL     1       0.150   1.452  -2.458  0.00  0.00    +0.002 C 
ATOM     22  C   UNL     1       0.200  -0.015  -2.889  0.00  0.00    +0.000 C 
ATOM     23  C   UNL     1       1.104  -0.797  -1.935  0.00  0.00    +0.000 C 
ATOM     24  C   UNL     1       2.376   0.008  -1.661  0.00  0.00    +0.000 C 
ATOM     25  C   UNL     1       2.395   0.450  -0.196  0.00  0.00    +0.002 C 
ATOM     26  C   UNL     1       1.423   1.615  -0.003  0.00  0.00    +0.022 C 
ENDBRANCH  17  19
ENDBRANCH   2  15
BRANCH  14  27
ATOM     27  C   UNL     1      -0.998   1.064   4.992  0.00  0.00    +0.091 C 
BRANCH  27  28
ATOM     28  C   UNL     1       0.220   0.247   4.556  0.00  0.00    -0.060 C 
BRANCH  28  30
ATOM     29  C   UNL     1       1.190   0.247   6.774  0.00  0.00    -0.096 C 
ATOM     30  N   UNL     1       0.656  -0.600   5.686  0.00  0.00    +0.381 N 
ATOM     31  H   UNL     1      -0.151  -1.126   6.040  0.00  0.00    -0.082 HD
BRANCH  30  32
ATOM     32  C   UNL     1       1.690  -1.553   5.234  0.00  0.00    -0.069 C 
ATOM     33  C   UNL     1       1.090  -2.464   4.161  0.00  0.00    -0.015 C 
ATOM     34  C   UNL     1       2.144  -3.473   3.700  0.00  0.00    -0.002 C 
ATOM     35  C   UNL     1       2.596  -4.318   4.892  0.00  0.00    -0.000 C 
ATOM     36  C   UNL     1       3.197  -3.408   5.964  0.00  0.00    -0.002 C 
ATOM     37  C   UNL     1       2.143  -2.399   6.426  0.00  0.00    -0.015 C 
ENDBRANCH  30  32
ENDBRANCH  28  30
ENDBRANCH  27  28
ENDBRANCH  14  27
TORSDOF 6
