REMARK  Name = ZINC39879744
REMARK  4 active torsions:
REMARK  status: ('A' for Active; 'I' for Inactive)
REMARK    1  A    between atoms: C_1  and  C_2
REMARK    2  A    between atoms: N_15  and  C_25
REMARK    3  A    between atoms: C_16  and  C_18
REMARK    4  A    between atoms: C_22  and  O_24
REMARK                            x       y       z     vdW  Elec       q    Type
REMARK                         _______ _______ _______ _____ _____    ______ ____
ROOT
ATOM      1  C   UNL     1      -0.018   1.503   0.010  0.00  0.00    +0.044 C 
ATOM      2  C   UNL     1       0.002  -0.004   0.002  0.00  0.00    -0.050 A 
ATOM      3  C   UNL     1       0.006  -0.689  -1.205  0.00  0.00    +0.007 A 
ATOM      4  C   UNL     1       0.021  -2.065  -1.235  0.00  0.00    +0.047 A 
ATOM      5  C   UNL     1       0.034  -2.790  -0.043  0.00  0.00    +0.139 A 
ATOM      6  C   UNL     1       0.036  -2.086   1.172  0.00  0.00    +0.065 A 
ATOM      7  C   UNL     1       0.023  -0.692   1.183  0.00  0.00    +0.018 A 
ATOM      8  C   UNL     1       0.066  -2.849   2.446  0.00  0.00    +0.199 A 
ATOM      9  O   UNL     1      -0.099  -2.332   3.537  0.00  0.00    -0.287 OA
ATOM     10  C   UNL     1       0.311  -4.283   2.265  0.00  0.00    +0.072 A 
ATOM     11  C   UNL     1       0.292  -4.850   1.023  0.00  0.00    +0.199 A 
ATOM     12  O   UNL     1       0.041  -4.142  -0.096  0.00  0.00    -0.450 OA
ATOM     13  C   UNL     1       0.580  -6.287   1.166  0.00  0.00    +0.287 C 
ATOM     14  O   UNL     1       0.640  -7.080   0.247  0.00  0.00    -0.266 OA
ATOM     15  N   UNL     1       0.767  -6.596   2.466  0.00  0.00    -0.253 N 
ATOM     16  C   UNL     1       0.611  -5.362   3.254  0.00  0.00    +0.150 C 
ENDROOT
BRANCH  16  17
ATOM     17  C   UNL     1       1.887  -5.052   3.992  0.00  0.00    -0.019 A 
ATOM     18  C   UNL     1       3.109  -5.281   3.386  0.00  0.00    +0.006 A 
ATOM     19  C   UNL     1       4.282  -4.997   4.060  0.00  0.00    +0.004 A 
ATOM     20  C   UNL     1       4.236  -4.484   5.342  0.00  0.00    +0.045 A 
ATOM     21  C   UNL     1       3.012  -4.253   5.952  0.00  0.00    +0.117 A 
ATOM     22  C   UNL     1       1.836  -4.533   5.271  0.00  0.00    +0.051 A 
BRANCH  21  23
ATOM     23  O   UNL     1       2.965  -3.748   7.213  0.00  0.00    -0.507 OA
ATOM     24  H   UNL     1       2.942  -2.782   7.249  0.00  0.00    +0.292 HD
ENDBRANCH  21  23
ENDBRANCH  16  17
BRANCH  15  25
ATOM     25  C   UNL     1       1.058  -7.864   2.975  0.00  0.00    +0.038 A 
ATOM     26  C   UNL     1       1.221  -8.045   4.343  0.00  0.00    +0.023 A 
ATOM     27  C   UNL     1       1.508  -9.299   4.843  0.00  0.00    +0.002 A 
ATOM     28  C   UNL     1       1.633 -10.376   3.984  0.00  0.00    +0.000 A 
ATOM     29  C   UNL     1       1.471 -10.200   2.622  0.00  0.00    +0.002 A 
ATOM     30  C   UNL     1       1.178  -8.949   2.115  0.00  0.00    +0.023 A 
ENDBRANCH  15  25
TORSDOF 3
