REMARK  Name = ZINC03130800
REMARK  9 active torsions:
REMARK  status: ('A' for Active; 'I' for Inactive)
REMARK    1  A    between atoms: C_1  and  C_2
REMARK    2  A    between atoms: C_2  and  O_3
REMARK    3  A    between atoms: O_3  and  C_4
REMARK    4  A    between atoms: N_6  and  C_7
REMARK    5  A    between atoms: C_7  and  C_9
REMARK    6  A    between atoms: C_7  and  N_13
REMARK    7  A    between atoms: N_13  and  C_14
REMARK    8  A    between atoms: C_14  and  N_16
REMARK    9  A    between atoms: N_16  and  C_17
REMARK                            x       y       z     vdW  Elec       q    Type
REMARK                         _______ _______ _______ _____ _____    ______ ____
ROOT
ATOM      1  N   UNL     1       3.637   5.801   1.429  0.00  0.00    -0.305 N 
ATOM      2  H   UNL     1       2.676   5.721   1.536  0.00  0.00    +0.150 HD
ENDROOT
BRANCH   1   3
ATOM      3  C   UNL     1       4.465   5.220   2.320  0.00  0.00    +0.136 C 
ATOM      4  S   UNL     1       6.160   5.361   2.131  0.00  0.00    -0.019 S 
BRANCH   3   5
ATOM      5  N   UNL     1       3.958   4.527   3.359  0.00  0.00    -0.295 N 
ATOM      6  H   UNL     1       2.999   4.506   3.506  0.00  0.00    +0.154 HD
BRANCH   5   7
ATOM      7  C   UNL     1       4.815   3.838   4.226  0.00  0.00    +0.070 A 
ATOM      8  C   UNL     1       5.232   2.550   3.914  0.00  0.00    +0.065 A 
ATOM      9  C   UNL     1       6.082   1.875   4.770  0.00  0.00    +0.042 A 
ATOM     10  C   UNL     1       6.509   2.476   5.941  0.00  0.00    +0.044 A 
ATOM     11  C   UNL     1       6.091   3.756   6.256  0.00  0.00    +0.042 A 
ATOM     12  C   UNL     1       5.245   4.439   5.402  0.00  0.00    +0.065 A 
ATOM     13 CL   UNL     1       4.720   6.046   5.799  0.00  0.00    -0.082 Cl
ATOM     14 CL   UNL     1       7.571   1.622   7.016  0.00  0.00    -0.083 Cl
ATOM     15 CL   UNL     1       4.692   1.793   2.449  0.00  0.00    -0.082 Cl
ENDBRANCH   5   7
ENDBRANCH   3   5
ENDBRANCH   1   3
BRANCH   1  16
ATOM     16  C   UNL     1       4.188   6.554   0.299  0.00  0.00    +0.214 C 
BRANCH  16  19
ATOM     17  C   UNL     1       5.130   5.161  -1.464  0.00  0.00    +0.402 C 
ATOM     18  O   UNL     1       6.216   5.272  -0.930  0.00  0.00    -0.226 OA
ATOM     19  N   UNL     1       4.051   5.765  -0.927  0.00  0.00    -0.259 N 
ATOM     20  H   UNL     1       3.184   5.676  -1.353  0.00  0.00    +0.154 HD
BRANCH  17  21
ATOM     21  O   UNL     1       5.004   4.435  -2.591  0.00  0.00    -0.451 OA
BRANCH  21  23
ATOM     22  C   UNL     1       5.870   3.037  -4.387  0.00  0.00    +0.048 C 
ATOM     23  C   UNL     1       6.208   3.813  -3.112  0.00  0.00    +0.230 C 
ENDBRANCH  21  23
ENDBRANCH  17  21
ENDBRANCH  16  19
BRANCH  16  24
ATOM     24  C   UNL     1       3.426   7.872   0.145  0.00  0.00    +0.225 C 
ATOM     25 CL   UNL     1       1.683   7.527  -0.156  0.00  0.00    -0.080 Cl
ATOM     26 CL   UNL     1       3.595   8.844   1.654  0.00  0.00    -0.080 Cl
ATOM     27 CL   UNL     1       4.105   8.799  -1.245  0.00  0.00    -0.080 Cl
ENDBRANCH  16  24
ENDBRANCH   1  16
TORSDOF 8
