REMARK  Name = ZINC00173588
REMARK  2 active torsions:
REMARK  status: ('A' for Active; 'I' for Inactive)
REMARK    1  A    between atoms: C_5  and  C_14
REMARK    2  A    between atoms: C_11  and  O_13
REMARK                            x       y       z     vdW  Elec       q    Type
REMARK                         _______ _______ _______ _____ _____    ______ ____
ROOT
ATOM      1  C   UNL     1      -2.188   1.063  -1.221  0.00  0.00    +0.004 C 
ATOM      2  C   UNL     1      -2.904   1.556   0.038  0.00  0.00    +0.007 C 
ATOM      3  C   UNL     1      -1.946   2.415   0.867  0.00  0.00    +0.031 C 
ATOM      4  C   UNL     1      -1.490   3.616   0.036  0.00  0.00    +0.108 C 
ATOM      5  C   UNL     1      -0.773   3.123  -1.223  0.00  0.00    +0.018 C 
ATOM      6  C   UNL     1      -0.753   1.593  -1.232  0.00  0.00    -0.008 C 
ATOM      7  C   UNL     1      -0.013   1.086   0.008  0.00  0.00    +0.035 C 
ATOM      8  C   UNL     1      -0.729   1.579   1.267  0.00  0.00    +0.119 C 
ENDROOT
BRANCH   4   9
ATOM      9  C   UNL     1      -2.689   4.439  -0.359  0.00  0.00    +0.359 C 
ATOM     10  O   UNL     1      -3.795   4.100  -0.011  0.00  0.00    -0.246 OA
ATOM     11  O   UNL     1      -2.528   5.549  -1.096  0.00  0.00    -0.246 OA
ENDBRANCH   4   9
BRANCH   8  12
ATOM     12  O   UNL     1       0.166   2.381   2.041  0.00  0.00    -0.391 OA
ATOM     13  H   UNL     1       0.962   1.915   2.329  0.00  0.00    +0.210 HD
ENDBRANCH   8  12
TORSDOF 2
