REMARK  Name = ZINC63098867
REMARK  8 active torsions:
REMARK  status: ('A' for Active; 'I' for Inactive)
REMARK    1  A    between atoms: C_1  and  N_2
REMARK    2  A    between atoms: N_2  and  C_3
REMARK    3  A    between atoms: C_3  and  C_4
REMARK    4  A    between atoms: N_6  and  C_7
REMARK    5  A    between atoms: C_7  and  C_8
REMARK    6  A    between atoms: C_8  and  C_10
REMARK    7  A    between atoms: C_8  and  C_17
REMARK    8  A    between atoms: C_26  and  C_28
REMARK                            x       y       z     vdW  Elec       q    Type
REMARK                         _______ _______ _______ _____ _____    ______ ____
ROOT
ATOM      1  C   UNL     1      -2.547  -2.773   4.843  0.00  0.00    +0.066 C 
ENDROOT
BRANCH   1   2
ATOM      2  C   UNL     1      -3.910  -3.180   5.341  0.00  0.00    -0.033 C 
ATOM      3  C   UNL     1      -4.351  -4.439   5.567  0.00  0.00    -0.000 A 
ATOM      4  C   UNL     1      -3.717  -5.755   5.423  0.00  0.00    +0.010 A 
ATOM      5  C   UNL     1      -4.428  -6.862   5.734  0.00  0.00    +0.001 A 
ATOM      6  C   UNL     1      -5.752  -6.785   6.190  0.00  0.00    +0.002 A 
ATOM      7  C   UNL     1      -6.401  -5.612   6.348  0.00  0.00    +0.026 A 
ATOM      8  C   UNL     1      -5.749  -4.384   6.051  0.00  0.00    +0.043 A 
ATOM      9  N   UNL     1      -6.157  -3.140   6.120  0.00  0.00    -0.380 N 
ATOM     10  C   UNL     1      -5.060  -2.263   5.694  0.00  0.00    +0.145 C 
ATOM     11  H   UNL     1      -7.035  -2.848   6.409  0.00  0.00    +0.160 HD
ENDBRANCH   1   2
BRANCH   1  12
ATOM     12  C   UNL     1      -1.880  -1.892   5.869  0.00  0.00    -0.020 A 
ATOM     13  C   UNL     1      -2.472  -0.702   6.247  0.00  0.00    +0.006 A 
ATOM     14  C   UNL     1      -1.861   0.106   7.187  0.00  0.00    +0.000 A 
ATOM     15  C   UNL     1      -0.657  -0.276   7.750  0.00  0.00    +0.001 A 
ATOM     16  C   UNL     1      -0.065  -1.466   7.373  0.00  0.00    +0.020 A 
ATOM     17  C   UNL     1      -0.679  -2.278   6.435  0.00  0.00    +0.045 A 
ATOM     18 CL   UNL     1       0.061  -3.776   5.966  0.00  0.00    -0.083 Cl
ENDBRANCH   1  12
BRANCH   1  19
ATOM     19  C   UNL     1      -2.693  -2.005   3.528  0.00  0.00    +0.116 C 
BRANCH  19  22
ATOM     20  C   UNL     1      -1.245  -1.039   1.822  0.00  0.00    +0.230 C 
ATOM     21  O   UNL     1      -2.238  -0.674   1.228  0.00  0.00    -0.274 OA
ATOM     22  N   UNL     1      -1.364  -1.713   2.984  0.00  0.00    -0.313 N 
ATOM     23  H   UNL     1      -0.571  -2.005   3.459  0.00  0.00    +0.149 HD
BRANCH  20  24
ATOM     24  C   UNL     1       0.121  -0.739   1.262  0.00  0.00    +0.203 C 
BRANCH  24  26
ATOM     25  C   UNL     1      -0.067   1.461   0.012  0.00  0.00    +0.133 C 
ATOM     26  N   UNL     1      -0.018  -0.003   0.003  0.00  0.00    -0.289 N 
ATOM     27  C   UNL     1      -0.102  -0.673  -1.163  0.00  0.00    +0.282 C 
ATOM     28  O   UNL     1      -0.158  -1.889  -1.164  0.00  0.00    -0.267 OA
BRANCH  27  29
ATOM     29  C   UNL     1      -0.124   0.063  -2.432  0.00  0.00    +0.189 A 
ATOM     30  C   UNL     1      -0.326  -0.477  -3.670  0.00  0.00    +0.054 A 
ATOM     31  C   UNL     1      -0.267   0.583  -4.587  0.00  0.00    +0.042 A 
ATOM     32  C   UNL     1      -0.035   1.710  -3.878  0.00  0.00    +0.196 A 
ATOM     33  O   UNL     1       0.046   1.393  -2.580  0.00  0.00    -0.458 OA
ENDBRANCH  27  29
ENDBRANCH  24  26
ENDBRANCH  20  24
ENDBRANCH  19  22
ENDBRANCH   1  19
TORSDOF 7
