REMARK  Name = ZINC66591062
REMARK  5 active torsions:
REMARK  status: ('A' for Active; 'I' for Inactive)
REMARK    1  A    between atoms: C_1  and  C_2
REMARK    2  A    between atoms: C_2  and  C_3
REMARK    3  A    between atoms: N_5  and  C_6
REMARK    4  A    between atoms: C_6  and  C_8
REMARK    5  A    between atoms: C_6  and  C_14
REMARK                            x       y       z     vdW  Elec       q    Type
REMARK                         _______ _______ _______ _____ _____    ______ ____
ROOT
ATOM      1  C   UNL     1       0.862  -3.606  -2.733  0.00  0.00    +0.241 C 
ATOM      2  O   UNL     1      -0.006  -3.901  -1.939  0.00  0.00    -0.273 OA
ATOM      3  N   UNL     1       1.212  -4.475  -3.702  0.00  0.00    -0.297 N 
ATOM      4  C   UNL     1       2.343  -4.184  -4.595  0.00  0.00    +0.127 C 
ATOM      5  C   UNL     1       3.334  -5.353  -4.528  0.00  0.00    +0.125 C 
ATOM      6  N   UNL     1       2.593  -6.609  -4.710  0.00  0.00    -0.314 N 
ATOM      7  C   UNL     1       1.462  -6.900  -3.817  0.00  0.00    +0.125 C 
ATOM      8  C   UNL     1       0.475  -5.734  -3.881  0.00  0.00    +0.127 C 
ATOM      9  C   UNL     1       2.954  -7.505  -5.709  0.00  0.00    +0.099 A 
ATOM     10  C   UNL     1       3.938  -7.153  -6.628  0.00  0.00    +0.042 A 
ATOM     11  C   UNL     1       4.287  -8.054  -7.617  0.00  0.00    +0.005 A 
ATOM     12  C   UNL     1       3.639  -9.282  -7.654  0.00  0.00    +0.018 A 
ATOM     13  C   UNL     1       2.672  -9.565  -6.710  0.00  0.00    +0.084 A 
ATOM     14  N   UNL     1       2.363  -8.688  -5.774  0.00  0.00    -0.350 N 
ATOM     15  H   UNL     1       1.683  -8.913  -5.121  0.00  0.00    +0.166 HD
ENDROOT
BRANCH   1  16
ATOM     16  C   UNL     1       1.549  -2.269  -2.637  0.00  0.00    +0.190 C 
BRANCH  16  17
ATOM     17  C   UNL     1       2.833  -2.418  -1.861  0.00  0.00    -0.018 A 
ATOM     18  C   UNL     1       2.798  -2.532  -0.483  0.00  0.00    +0.006 A 
ATOM     19  C   UNL     1       3.975  -2.669   0.228  0.00  0.00    +0.000 A 
ATOM     20  C   UNL     1       5.187  -2.692  -0.437  0.00  0.00    +0.000 A 
ATOM     21  C   UNL     1       5.221  -2.579  -1.815  0.00  0.00    +0.000 A 
ATOM     22  C   UNL     1       4.044  -2.447  -2.527  0.00  0.00    +0.006 A 
ENDBRANCH  16  17
BRANCH  16  25
ATOM     23  C   UNL     1       0.808   0.005  -2.171  0.00  0.00    +0.214 C 
ATOM     24  O   UNL     1       1.657   0.408  -2.938  0.00  0.00    -0.276 OA
ATOM     25  N   UNL     1       0.672  -1.317  -1.950  0.00  0.00    -0.300 N 
ATOM     26  H   UNL     1      -0.007  -1.639  -1.337  0.00  0.00    +0.150 HD
BRANCH  23  28
ATOM     27  C   UNL     1       0.267   2.409  -1.889  0.00  0.00    +0.013 C 
ATOM     28  C   UNL     1      -0.095   0.984  -1.465  0.00  0.00    +0.092 C 
ENDBRANCH  23  28
ENDBRANCH  16  25
ENDBRANCH   1  16
TORSDOF 4
