REMARK  Name = ZINC09009914
REMARK  8 active torsions:
REMARK  status: ('A' for Active; 'I' for Inactive)
REMARK    1  A    between atoms: C_1  and  N_64
REMARK    2  A    between atoms: C_2  and  C_3
REMARK    3  A    between atoms: C_2  and  N_64
REMARK    4  A    between atoms: C_3  and  C_4
REMARK    5  A    between atoms: C_4  and  N_5
REMARK    6  A    between atoms: N_5  and  C_6
REMARK    7  A    between atoms: C_31  and  C_32
REMARK    8  A    between atoms: C_31  and  N_64
REMARK                            x       y       z     vdW  Elec       q    Type
REMARK                         _______ _______ _______ _____ _____    ______ ____
ROOT
ATOM      1  C   UNL     1      -1.233   1.751   0.017  0.00  0.00    +0.042 A 
ATOM      2  C   UNL     1      -0.013   1.076   0.035  0.00  0.00    +0.072 A 
ATOM      3  C   UNL     1       1.177   1.776   0.028  0.00  0.00    +0.154 A 
ATOM      4  C   UNL     1       1.168   3.184   0.008  0.00  0.00    +0.094 A 
ATOM      5  C   UNL     1      -0.044   3.875  -0.004  0.00  0.00    +0.062 A 
ATOM      6  C   UNL     1      -1.261   3.151   0.004  0.00  0.00    +0.056 A 
ATOM      7  C   UNL     1      -2.541   3.866  -0.009  0.00  0.00    +0.196 A 
ATOM      8  O   UNL     1      -3.586   3.243  -0.002  0.00  0.00    -0.287 OA
ATOM      9  C   UNL     1      -2.560   5.343  -0.029  0.00  0.00    +0.033 A 
ATOM     10  C   UNL     1      -3.772   6.029  -0.040  0.00  0.00    +0.012 A 
ATOM     11  C   UNL     1      -3.782   7.411  -0.059  0.00  0.00    +0.001 A 
ATOM     12  C   UNL     1      -2.593   8.120  -0.067  0.00  0.00    +0.001 A 
ATOM     13  C   UNL     1      -1.381   7.456  -0.056  0.00  0.00    +0.012 A 
ATOM     14  C   UNL     1      -1.353   6.063  -0.037  0.00  0.00    +0.033 A 
ATOM     15  C   UNL     1      -0.063   5.344  -0.026  0.00  0.00    +0.197 A 
ATOM     16  O   UNL     1       0.983   5.967  -0.032  0.00  0.00    -0.287 OA
ATOM     17  N   UNL     1       2.368   3.877   0.002  0.00  0.00    -0.349 N 
ATOM     18  H   UNL     1       2.376   4.847  -0.012  0.00  0.00    +0.166 HD
ATOM     19  C   UNL     1       3.568   3.158   0.014  0.00  0.00    +0.083 A 
ATOM     20  C   UNL     1       4.784   3.826   0.009  0.00  0.00    +0.029 A 
ATOM     21  C   UNL     1       5.965   3.107   0.022  0.00  0.00    +0.002 A 
ATOM     22  C   UNL     1       5.937   1.725   0.040  0.00  0.00    +0.004 A 
ATOM     23  C   UNL     1       4.729   1.053   0.046  0.00  0.00    +0.048 A 
ATOM     24  C   UNL     1       3.539   1.764   0.033  0.00  0.00    +0.152 A 
ATOM     25  O   UNL     1       2.353   1.103   0.040  0.00  0.00    -0.452 OA
ENDROOT
BRANCH   1  26
ATOM     26  N   UNL     1      -2.420   1.035   0.019  0.00  0.00    -0.343 N 
ATOM     27  H   UNL     1      -3.267   1.501   0.099  0.00  0.00    +0.146 HD
BRANCH  26  28
ATOM     28  C   UNL     1      -2.395  -0.425  -0.099  0.00  0.00    +0.100 C 
BRANCH  28  29
ATOM     29  C   UNL     1      -3.827  -0.963  -0.071  0.00  0.00    +0.000 C 
BRANCH  29  30
ATOM     30  C   UNL     1      -3.801  -2.488  -0.195  0.00  0.00    -0.077 C 
BRANCH  30  32
ATOM     31  C   UNL     1      -5.925  -2.571  -1.354  0.00  0.00    -0.096 C 
ATOM     32  N   UNL     1      -5.189  -2.994  -0.145  0.00  0.00    +0.381 N 
ATOM     33  H   UNL     1      -5.655  -2.605   0.683  0.00  0.00    -0.082 HD
BRANCH  32  34
ATOM     34  C   UNL     1      -5.185  -4.469  -0.046  0.00  0.00    -0.043 C 
BRANCH  34  35
ATOM     35  C   UNL     1      -6.590  -4.941   0.225  0.00  0.00    -0.064 A 
ATOM     36  C   UNL     1      -7.039  -5.066   1.526  0.00  0.00    +0.002 A 
ATOM     37  C   UNL     1      -8.329  -5.495   1.775  0.00  0.00    +0.000 A 
ATOM     38  C   UNL     1      -9.168  -5.808   0.721  0.00  0.00    +0.000 A 
ATOM     39  C   UNL     1      -8.718  -5.688  -0.580  0.00  0.00    +0.000 A 
ATOM     40  C   UNL     1      -7.429  -5.255  -0.828  0.00  0.00    +0.002 A 
ENDBRANCH  34  35
ENDBRANCH  32  34
ENDBRANCH  30  32
ENDBRANCH  29  30
ENDBRANCH  28  29
ENDBRANCH  26  28
ENDBRANCH   1  26
TORSDOF 7
