REMARK  Name = ZINC22852113
REMARK  7 active torsions:
REMARK  status: ('A' for Active; 'I' for Inactive)
REMARK    1  A    between atoms: C_1  and  O_2
REMARK    2  A    between atoms: O_2  and  C_3
REMARK    3  A    between atoms: C_3  and  C_5
REMARK    4  A    between atoms: N_8  and  C_11
REMARK    5  A    between atoms: C_11  and  C_13
REMARK    6  A    between atoms: C_11  and  C_20
REMARK    7  A    between atoms: C_26  and  C_28
REMARK                            x       y       z     vdW  Elec       q    Type
REMARK                         _______ _______ _______ _____ _____    ______ ____
ROOT
ATOM      1  C   UNL     1       1.233  -2.186  -0.021  0.00  0.00    +0.008 C 
ENDROOT
BRANCH   1   2
ATOM      2  C   UNL     1       1.007  -2.699   1.378  0.00  0.00    +0.050 A 
ATOM      3  C   UNL     1      -0.092  -3.247   1.909  0.00  0.00    +0.282 A 
ATOM      4  N   UNL     1      -0.106  -3.664   3.217  0.00  0.00    -0.169 N 
ATOM      5  C   UNL     1       1.040  -3.480   3.942  0.00  0.00    +0.200 A 
ATOM      6  S   UNL     1       2.135  -2.726   2.763  0.00  0.00    -0.050 S 
ATOM      7  N   UNL     1       0.866  -3.917   5.158  0.00  0.00    -0.197 NA
ATOM      8  C   UNL     1      -0.378  -4.399   5.282  0.00  0.00    +0.218 A 
ATOM      9  N   UNL     1      -1.006  -4.267   4.133  0.00  0.00    -0.138 NA
ATOM     10  O   UNL     1      -1.206  -3.399   1.142  0.00  0.00    -0.265 OA
BRANCH   8  11
ATOM     11  C   UNL     1      -0.953  -4.984   6.512  0.00  0.00    +0.173 A 
ATOM     12  C   UNL     1      -0.313  -5.124   7.703  0.00  0.00    +0.053 A 
ATOM     13  C   UNL     1      -1.231  -5.724   8.588  0.00  0.00    +0.042 A 
ATOM     14  C   UNL     1      -2.373  -5.917   7.901  0.00  0.00    +0.196 A 
ATOM     15  O   UNL     1      -2.204  -5.464   6.648  0.00  0.00    -0.460 OA
ENDBRANCH   8  11
ENDBRANCH   1   2
BRANCH   1  19
ATOM     16  C   UNL     1       4.372  -4.007  -2.281  0.00  0.00    +0.094 C 
ATOM     17  C   UNL     1       4.009  -4.571  -0.904  0.00  0.00    -0.004 C 
ATOM     18  C   UNL     1       2.595  -4.121  -0.531  0.00  0.00    -0.077 C 
ATOM     19  N   UNL     1       2.537  -2.654  -0.510  0.00  0.00    +0.388 N 
ATOM     20  C   UNL     1       2.836  -2.091  -1.833  0.00  0.00    -0.077 C 
ATOM     21  C   UNL     1       4.257  -2.481  -2.245  0.00  0.00    -0.004 C 
ATOM     22  H   UNL     1       3.309  -2.298   0.188  0.00  0.00    -0.080 HD
BRANCH  16  23
ATOM     23  C   UNL     1       5.785  -4.399  -2.629  0.00  0.00    +0.310 C 
ATOM     24  O   UNL     1       6.436  -5.061  -1.856  0.00  0.00    -0.251 OA
BRANCH  23  26
ATOM     25  C   UNL     1       7.687  -4.425  -4.066  0.00  0.00    +0.280 C 
ATOM     26  O   UNL     1       6.321  -4.012  -3.797  0.00  0.00    -0.468 OA
ENDBRANCH  23  26
ENDBRANCH  16  23
ENDBRANCH   1  19
BRANCH   1  27
ATOM     27  C   UNL     1       1.211  -0.679  -0.013  0.00  0.00    -0.021 A 
ATOM     28  C   UNL     1       2.397   0.030  -0.021  0.00  0.00    +0.005 A 
ATOM     29  C   UNL     1       2.377   1.412  -0.013  0.00  0.00    +0.000 A 
ATOM     30  C   UNL     1       1.171   2.087   0.002  0.00  0.00    +0.003 A 
ATOM     31  C   UNL     1      -0.017   1.381   0.010  0.00  0.00    +0.038 A 
ATOM     32  C   UNL     1       0.002  -0.004   0.002  0.00  0.00    +0.125 A 
ATOM     33  F   UNL     1      -1.158  -0.696   0.009  0.00  0.00    -0.205 F 
ENDBRANCH   1  27
TORSDOF 6
