REMARK  Name = ZINC35646968
REMARK  11 active torsions:
REMARK  status: ('A' for Active; 'I' for Inactive)
REMARK    1  A    between atoms: C_1  and  C_2
REMARK    2  A    between atoms: C_2  and  O_3
REMARK    3  A    between atoms: O_3  and  C_4
REMARK    4  A    between atoms: C_4  and  C_6
REMARK    5  A    between atoms: C_7  and  C_23
REMARK    6  A    between atoms: N_8  and  C_22
REMARK    7  A    between atoms: C_12  and  C_14
REMARK    8  A    between atoms: C_23  and  N_24
REMARK    9  A    between atoms: N_32  and  C_33
REMARK   10  A    between atoms: C_33  and  C_34
REMARK   11  A    between atoms: C_33  and  C_35
REMARK                            x       y       z     vdW  Elec       q    Type
REMARK                         _______ _______ _______ _____ _____    ______ ____
ROOT
ATOM      1  C   UNL     1      -2.797  -2.410   0.113  0.00  0.00    +0.080 C 
ATOM      2  C   UNL     1      -2.986  -3.732  -0.085  0.00  0.00    +0.041 C 
ATOM      3  N   UNL     1      -4.243  -4.259  -0.172  0.00  0.00    -0.260 N 
ATOM      4  C   UNL     1      -5.362  -3.530  -0.074  0.00  0.00    +0.307 C 
ATOM      5  O   UNL     1      -6.438  -4.090  -0.165  0.00  0.00    -0.252 OA
ATOM      6  N   UNL     1      -5.335  -2.198   0.123  0.00  0.00    -0.288 N 
ATOM      7  C   UNL     1      -4.026  -1.533   0.238  0.00  0.00    +0.144 C 
ATOM      8  C   UNL     1      -4.375  -5.702  -0.387  0.00  0.00    +0.139 C 
ATOM      9  H   UNL     1      -6.158  -1.689   0.191  0.00  0.00    +0.151 HD
ENDROOT
BRANCH   7  10
ATOM     10  C   UNL     1      -3.968  -0.840   1.575  0.00  0.00    -0.021 A 
ATOM     11  C   UNL     1      -4.345  -1.516   2.721  0.00  0.00    +0.007 A 
ATOM     12  C   UNL     1      -4.292  -0.881   3.948  0.00  0.00    +0.022 A 
ATOM     13  C   UNL     1      -3.861   0.430   4.030  0.00  0.00    +0.059 A 
ATOM     14  C   UNL     1      -3.483   1.107   2.883  0.00  0.00    +0.060 A 
ATOM     15  C   UNL     1      -3.532   0.469   1.657  0.00  0.00    +0.027 A 
ATOM     16 CL   UNL     1      -2.942   2.754   2.985  0.00  0.00    -0.082 Cl
ATOM     17 CL   UNL     1      -3.795   1.228   5.571  0.00  0.00    -0.082 Cl
ENDBRANCH   7  10
BRANCH   1  18
ATOM     18  C   UNL     1      -1.496  -1.863   0.204  0.00  0.00    +0.339 C 
ATOM     19  O   UNL     1      -1.047  -1.540   1.288  0.00  0.00    -0.245 OA
BRANCH  18  20
ATOM     20  O   UNL     1      -0.753  -1.699  -0.910  0.00  0.00    -0.462 OA
BRANCH  20  22
ATOM     21  C   UNL     1       1.238  -1.032  -2.107  0.00  0.00    +0.048 C 
ATOM     22  C   UNL     1       0.552  -1.141  -0.744  0.00  0.00    +0.229 C 
ENDBRANCH  20  22
ENDBRANCH  18  20
ENDBRANCH   1  18
BRANCH   2  23
ATOM     23  C   UNL     1      -1.791  -4.641  -0.210  0.00  0.00    +0.136 C 
BRANCH  23  24
ATOM     24  N   UNL     1      -1.772  -5.583   0.917  0.00  0.00    -0.294 NA
ATOM     25  C   UNL     1      -1.553  -4.879   2.188  0.00  0.00    +0.104 C 
ATOM     26  C   UNL     1      -1.719  -5.864   3.349  0.00  0.00    +0.124 C 
ATOM     27  N   UNL     1      -0.834  -7.016   3.116  0.00  0.00    -0.283 N 
ATOM     28  C   UNL     1      -0.900  -7.690   1.810  0.00  0.00    +0.124 C 
ATOM     29  C   UNL     1      -0.765  -6.633   0.709  0.00  0.00    +0.104 C 
ATOM     30  C   UNL     1       0.013  -7.442   4.073  0.00  0.00    +0.302 C 
ATOM     31  O   UNL     1      -0.009  -6.933   5.176  0.00  0.00    -0.253 OA
ATOM     32  N   UNL     1       0.887  -8.434   3.807  0.00  0.00    -0.297 N 
ATOM     33  H   UNL     1       0.857  -8.889   2.951  0.00  0.00    +0.150 HD
BRANCH  32  34
ATOM     34  C   UNL     1       1.881  -8.823   4.810  0.00  0.00    +0.068 C 
ATOM     35  C   UNL     1       1.259  -9.830   5.780  0.00  0.00    +0.027 C 
ATOM     36  C   UNL     1       3.084  -9.462   4.114  0.00  0.00    +0.027 C 
ENDBRANCH  32  34
ENDBRANCH  23  24
ENDBRANCH   2  23
TORSDOF 7
