REMARK  Name = ZINC12151986
REMARK  6 active torsions:
REMARK  status: ('A' for Active; 'I' for Inactive)
REMARK    1  A    between atoms: C_12  and  N_16
REMARK    2  A    between atoms: C_17  and  C_19
REMARK    3  A    between atoms: C_22  and  S_33
REMARK    4  A    between atoms: C_25  and  C_26
REMARK    5  A    between atoms: C_25  and  N_66
REMARK    6  A    between atoms: S_33  and  C_34
REMARK                            x       y       z     vdW  Elec       q    Type
REMARK                         _______ _______ _______ _____ _____    ______ ____
ROOT
ATOM      1  C   UNL     1       0.066   1.244  -0.028  0.00  0.00    +0.021 C 
ATOM      2  C   UNL     1       1.404   2.011  -0.174  0.00  0.00    +0.006 C 
ATOM      3  C   UNL     1       1.674   1.885  -1.696  0.00  0.00    +0.037 C 
ATOM      4  C   UNL     1       0.259   1.962  -2.308  0.00  0.00    -0.063 C 
ATOM      5  N   UNL     1      -0.692   1.594  -1.243  0.00  0.00    +0.391 N 
ATOM      6  H   UNL     1      -1.304   2.393  -1.043  0.00  0.00    -0.080 HD
ENDROOT
BRANCH   1   8
ATOM      7  N   UNL     1      -0.137   1.533   2.420  0.00  0.00    -0.287 N 
ATOM      8  C   UNL     1      -0.676   1.710   1.197  0.00  0.00    +0.204 C 
ATOM      9  O   UNL     1      -1.758   2.245   1.084  0.00  0.00    -0.277 OA
ATOM     10  H   UNL     1       0.758   1.169   2.507  0.00  0.00    +0.155 HD
BRANCH   7  22
ATOM     11  C   UNL     1      -7.419   4.184   4.955  0.00  0.00    +0.000 A 
ATOM     12  C   UNL     1      -6.795   5.030   4.057  0.00  0.00    +0.002 A 
ATOM     13  C   UNL     1      -5.421   5.090   4.030  0.00  0.00    +0.023 A 
ATOM     14  C   UNL     1      -4.651   4.305   4.897  0.00  0.00    +0.035 A 
ATOM     15  C   UNL     1      -5.268   3.481   5.810  0.00  0.00    -0.026 A 
ATOM     16  C   UNL     1      -6.665   3.424   5.819  0.00  0.00    +0.005 A 
ATOM     17  C   UNL     1      -4.603   2.604   6.842  0.00  0.00    +0.041 C 
ATOM     18  C   UNL     1      -3.133   2.877   7.041  0.00  0.00    +0.041 C 
ATOM     19  C   UNL     1      -2.321   2.533   5.828  0.00  0.00    -0.026 A 
ATOM     20  C   UNL     1      -1.470   1.439   5.851  0.00  0.00    +0.007 A 
ATOM     21  C   UNL     1      -0.744   1.114   4.721  0.00  0.00    +0.024 A 
ATOM     22  C   UNL     1      -0.869   1.872   3.563  0.00  0.00    +0.035 A 
ATOM     23  C   UNL     1      -1.718   2.972   3.546  0.00  0.00    +0.046 A 
ATOM     24  C   UNL     1      -2.434   3.289   4.691  0.00  0.00    +0.036 A 
ATOM     25  N   UNL     1      -3.274   4.398   4.735  0.00  0.00    -0.314 N 
ATOM     26  H   UNL     1      -2.878   5.279   4.649  0.00  0.00    +0.152 HD
ENDBRANCH   7  22
ENDBRANCH   1   8
BRANCH   5  27
ATOM     27  C   UNL     1      -1.525   0.443  -1.680  0.00  0.00    -0.039 C 
BRANCH  27  28
ATOM     28  C   UNL     1      -2.734   0.339  -0.786  0.00  0.00    -0.029 A 
ATOM     29  C   UNL     1      -2.774  -0.614   0.214  0.00  0.00    +0.004 A 
ATOM     30  C   UNL     1      -3.880  -0.706   1.038  0.00  0.00    +0.000 A 
ATOM     31  C   UNL     1      -4.952   0.148   0.856  0.00  0.00    +0.003 A 
ATOM     32  C   UNL     1      -4.916   1.098  -0.146  0.00  0.00    +0.038 A 
ATOM     33  C   UNL     1      -3.806   1.194  -0.969  0.00  0.00    +0.125 A 
ATOM     34  F   UNL     1      -3.771   2.123  -1.950  0.00  0.00    -0.205 F 
ENDBRANCH  27  28
ENDBRANCH   5  27
BRANCH   3  35
ATOM     35  S   UNL     1       2.703   3.255  -2.279  0.00  0.00    -0.085 S 
BRANCH  35  36
ATOM     36  C   UNL     1       2.951   2.761  -3.952  0.00  0.00    +0.188 A 
ATOM     37  N   UNL     1       2.408   1.630  -4.380  0.00  0.00    -0.230 NA
ATOM     38  C   UNL     1       2.570   1.233  -5.632  0.00  0.00    +0.115 A 
ATOM     39  C   UNL     1       3.328   2.010  -6.494  0.00  0.00    +0.039 A 
ATOM     40  C   UNL     1       3.887   3.183  -6.012  0.00  0.00    +0.115 A 
ATOM     41  N   UNL     1       3.682   3.525  -4.752  0.00  0.00    -0.230 NA
ENDBRANCH  35  36
ENDBRANCH   3  35
TORSDOF 6
