REMARK  Name = ZINC50127916
REMARK  2 active torsions:
REMARK  status: ('A' for Active; 'I' for Inactive)
REMARK    1  A    between atoms: N_5  and  C_9
REMARK    2  A    between atoms: C_9  and  C_10
REMARK                            x       y       z     vdW  Elec       q    Type
REMARK                         _______ _______ _______ _____ _____    ______ ____
ROOT
ATOM      1  C   UNL     1      -0.017   1.403   0.010  0.00  0.00    +0.079 A 
ATOM      2  C   UNL     1      -1.207   2.062   0.019  0.00  0.00    +0.077 A 
ATOM      3  C   UNL     1      -2.406   1.320   0.021  0.00  0.00    +0.268 A 
ATOM      4  O   UNL     1      -3.484   1.893   0.029  0.00  0.00    -0.266 OA
ATOM      5  N   UNL     1      -2.353  -0.027   0.013  0.00  0.00    -0.219 N 
ATOM      6  N   UNL     1      -1.117  -0.684   0.004  0.00  0.00    -0.126 NA
ATOM      7  C   UNL     1       0.002  -0.004   0.002  0.00  0.00    +0.287 A 
ATOM      8  O   UNL     1       1.190  -0.662  -0.013  0.00  0.00    -0.264 OA
ENDROOT
BRANCH   5   9
ATOM      9  C   UNL     1      -3.594  -0.807   0.015  0.00  0.00    +0.218 C 
BRANCH   9  10
ATOM     10  C   UNL     1      -4.026  -1.066  -1.405  0.00  0.00    +0.246 C 
ATOM     11  O   UNL     1      -4.222  -2.197  -1.779  0.00  0.00    -0.299 OA
ENDBRANCH   9  10
ENDBRANCH   5   9
TORSDOF 2
