REMARK  Name = ZINC39665207
REMARK  8 active torsions:
REMARK  status: ('A' for Active; 'I' for Inactive)
REMARK    1  A    between atoms: C_1  and  C_2
REMARK    2  A    between atoms: C_6  and  C_9
REMARK    3  A    between atoms: C_13  and  C_22
REMARK    4  A    between atoms: N_24  and  C_25
REMARK    5  A    between atoms: C_25  and  C_26
REMARK    6  A    between atoms: C_26  and  C_28
REMARK    7  A    between atoms: C_26  and  O_29
REMARK    8  A    between atoms: O_29  and  C_30
REMARK                            x       y       z     vdW  Elec       q    Type
REMARK                         _______ _______ _______ _____ _____    ______ ____
ROOT
ATOM      1  C   UNL     1       0.073  -2.873   2.474  0.00  0.00    +0.251 C 
ATOM      2  O   UNL     1       1.133  -3.176   2.988  0.00  0.00    -0.270 OA
ATOM      3  N   UNL     1      -1.086  -3.232   3.061  0.00  0.00    -0.296 N 
ATOM      4  C   UNL     1      -2.465  -2.962   2.588  0.00  0.00    +0.121 C 
ATOM      5  C   UNL     1      -3.245  -4.258   2.903  0.00  0.00    +0.100 C 
ATOM      6  C   UNL     1      -2.458  -4.923   4.045  0.00  0.00    -0.004 C 
ATOM      7  C   UNL     1      -1.271  -3.989   4.322  0.00  0.00    +0.115 C 
ATOM      8  C   UNL     1      -3.334  -5.048   5.288  0.00  0.00    -0.010 C 
ATOM      9  C   UNL     1      -2.549  -5.763   6.391  0.00  0.00    -0.082 C 
ATOM     10  N   UNL     1      -2.141  -7.092   5.919  0.00  0.00    +0.379 N 
ATOM     11  C   UNL     1      -1.224  -6.960   4.780  0.00  0.00    -0.082 C 
ATOM     12  C   UNL     1      -1.953  -6.295   3.610  0.00  0.00    -0.010 C 
ATOM     13  H   UNL     1      -1.677  -7.585   6.668  0.00  0.00    -0.086 HD
ATOM     14  H   UNL     1      -2.957  -7.612   5.633  0.00  0.00    -0.086 HD
ENDROOT
BRANCH   1  20
ATOM     15  C   UNL     1       0.010   1.495   0.055  0.00  0.00    +0.047 C 
ATOM     16  C   UNL     1       0.025  -0.012   0.038  0.00  0.00    -0.014 A 
ATOM     17  C   UNL     1       0.023  -0.688  -1.168  0.00  0.00    +0.007 A 
ATOM     18  C   UNL     1       0.037  -2.071  -1.195  0.00  0.00    +0.021 A 
ATOM     19  C   UNL     1       0.053  -2.788  -0.015  0.00  0.00    +0.056 A 
ATOM     20  C   UNL     1       0.056  -2.114   1.209  0.00  0.00    +0.091 A 
ATOM     21  C   UNL     1       0.047  -0.715   1.228  0.00  0.00    +0.140 A 
ATOM     22  F   UNL     1       0.055  -0.054   2.406  0.00  0.00    -0.204 F 
ATOM     23 CL   UNL     1       0.070  -4.524  -0.052  0.00  0.00    -0.083 Cl
ENDBRANCH   1  20
BRANCH   5  24
ATOM     24  C   UNL     1      -3.280  -5.157   1.694  0.00  0.00    +0.218 C 
ATOM     25  O   UNL     1      -2.413  -5.072   0.851  0.00  0.00    -0.275 OA
ATOM     26  N   UNL     1      -4.275  -6.055   1.551  0.00  0.00    -0.312 N 
ATOM     27  H   UNL     1      -4.969  -6.122   2.225  0.00  0.00    +0.149 HD
BRANCH  26  28
ATOM     28  C   UNL     1      -4.309  -6.929   0.375  0.00  0.00    +0.148 C 
BRANCH  28  29
ATOM     29  C   UNL     1      -5.531  -7.846   0.457  0.00  0.00    +0.187 C 
ATOM     30  C   UNL     1      -5.566  -8.758  -0.771  0.00  0.00    +0.053 C 
BRANCH  29  31
ATOM     31  O   UNL     1      -5.451  -8.642   1.641  0.00  0.00    -0.488 OA
BRANCH  31  32
ATOM     32  C   UNL     1      -6.621  -9.108   2.152  0.00  0.00    +0.121 A 
ATOM     33  C   UNL     1      -6.630  -9.787   3.361  0.00  0.00    +0.045 A 
ATOM     34  C   UNL     1      -7.820 -10.258   3.879  0.00  0.00    +0.004 A 
ATOM     35  C   UNL     1      -9.003 -10.055   3.192  0.00  0.00    +0.000 A 
ATOM     36  C   UNL     1      -8.997  -9.379   1.986  0.00  0.00    +0.004 A 
ATOM     37  C   UNL     1      -7.810  -8.899   1.467  0.00  0.00    +0.045 A 
ENDBRANCH  31  32
ENDBRANCH  29  31
ENDBRANCH  28  29
ENDBRANCH  26  28
ENDBRANCH   5  24
TORSDOF 6
