REMARK  Name = ZINC40083820
REMARK  8 active torsions:
REMARK  status: ('A' for Active; 'I' for Inactive)
REMARK    1  A    between atoms: C_1  and  C_2
REMARK    2  A    between atoms: C_4  and  N_15
REMARK    3  A    between atoms: C_5  and  C_14
REMARK    4  A    between atoms: N_7  and  C_8
REMARK    5  A    between atoms: C_16  and  C_18
REMARK    6  A    between atoms: C_18  and  O_19
REMARK    7  A    between atoms: O_19  and  C_20
REMARK    8  A    between atoms: C_20  and  C_22
REMARK                            x       y       z     vdW  Elec       q    Type
REMARK                         _______ _______ _______ _____ _____    ______ ____
ROOT
ATOM      1  N   UNL     1       0.442  -0.284  -2.556  0.00  0.00    -0.283 N 
ATOM      2  C   UNL     1       1.272  -0.701  -3.532  0.00  0.00    +0.255 C 
ATOM      3  O   UNL     1       2.257  -1.354  -3.254  0.00  0.00    -0.272 OA
ATOM      4  H   UNL     1      -0.381   0.175  -2.783  0.00  0.00    +0.155 HD
ENDROOT
BRANCH   1   7
ATOM      5  C   UNL     1      -0.174  -2.766  -0.689  0.00  0.00    +0.036 C 
ATOM      6  C   UNL     1       1.051  -1.856  -0.579  0.00  0.00    +0.137 C 
ATOM      7  C   UNL     1       0.769  -0.513  -1.213  0.00  0.00    +0.050 C 
ATOM      8  C   UNL     1       0.887   0.405  -0.270  0.00  0.00    +0.038 C 
ATOM      9  N   UNL     1       1.222  -0.159   0.956  0.00  0.00    -0.266 N 
ATOM     10  N   UNL     1       1.340  -1.553   0.833  0.00  0.00    -0.245 N 
ATOM     11  C   UNL     1       0.684   1.881  -0.495  0.00  0.00    +0.063 C 
ATOM     12  H   UNL     1       1.356   0.339   1.777  0.00  0.00    +0.170 HD
BRANCH  10  13
ATOM     13  C   UNL     1       1.663  -2.465   1.841  0.00  0.00    +0.048 A 
ATOM     14  C   UNL     1       1.744  -3.821   1.552  0.00  0.00    +0.025 A 
ATOM     15  C   UNL     1       2.064  -4.720   2.551  0.00  0.00    +0.002 A 
ATOM     16  C   UNL     1       2.303  -4.271   3.837  0.00  0.00    +0.000 A 
ATOM     17  C   UNL     1       2.223  -2.921   4.127  0.00  0.00    +0.002 A 
ATOM     18  C   UNL     1       1.909  -2.016   3.132  0.00  0.00    +0.025 A 
ENDBRANCH  10  13
ENDBRANCH   1   7
BRANCH   2  19
ATOM     19  C   UNL     1       0.978  -0.357  -4.969  0.00  0.00    +0.328 C 
BRANCH  19  20
ATOM     20  O   UNL     1       1.996  -0.907  -5.809  0.00  0.00    -0.452 OA
BRANCH  20  21
ATOM     21  C   UNL     1       1.880  -0.689  -7.133  0.00  0.00    +0.340 C 
ATOM     22  O   UNL     1       0.942  -0.048  -7.564  0.00  0.00    -0.245 OA
BRANCH  21  23
ATOM     23  C   UNL     1       2.893  -1.227  -8.061  0.00  0.00    +0.060 A 
ATOM     24  C   UNL     1       3.973  -1.972  -7.564  0.00  0.00    +0.017 A 
ATOM     25  C   UNL     1       4.917  -2.475  -8.408  0.00  0.00    +0.027 A 
ATOM     26  C   UNL     1       4.821  -2.256  -9.781  0.00  0.00    +0.047 A 
ATOM     27  C   UNL     1       3.740  -1.509 -10.294  0.00  0.00    +0.004 A 
ATOM     28  C   UNL     1       2.774  -1.001  -9.429  0.00  0.00    +0.025 A 
ATOM     29  C   UNL     1       3.936  -1.467 -11.741  0.00  0.00    -0.019 A 
ATOM     30  C   UNL     1       5.062  -2.152 -12.012  0.00  0.00    +0.020 A 
ATOM     31  N   UNL     1       5.601  -2.629 -10.850  0.00  0.00    -0.358 N 
ATOM     32  H   UNL     1       6.414  -3.154 -10.788  0.00  0.00    +0.166 HD
ATOM     33  C   UNL     1       5.611  -2.342 -13.408  0.00  0.00    +0.053 C 
ATOM     34  C   UNL     1       4.501  -2.022 -14.415  0.00  0.00    +0.006 C 
ATOM     35  C   UNL     1       3.875  -0.667 -14.073  0.00  0.00    +0.005 C 
ATOM     36  C   UNL     1       3.070  -0.795 -12.774  0.00  0.00    +0.037 C 
ENDBRANCH  21  23
ENDBRANCH  20  21
ENDBRANCH  19  20
ENDBRANCH   2  19
TORSDOF 6
