REMARK  Name = ZINC59641968
REMARK  6 active torsions:
REMARK  status: ('A' for Active; 'I' for Inactive)
REMARK    1  A    between atoms: C_1  and  C_2
REMARK    2  A    between atoms: N_6  and  N_7
REMARK    3  A    between atoms: N_8  and  N_9
REMARK    4  A    between atoms: C_10  and  C_11
REMARK    5  A    between atoms: C_14  and  C_16
REMARK    6  A    between atoms: C_20  and  C_22
REMARK                            x       y       z     vdW  Elec       q    Type
REMARK                         _______ _______ _______ _____ _____    ______ ____
ROOT
ATOM      1  C   UNL     1       0.097  -6.902   0.739  0.00  0.00    +0.148 A 
ATOM      2  C   UNL     1       0.110  -8.133   1.357  0.00  0.00    +0.051 A 
ATOM      3  C   UNL     1       0.121  -9.096   0.339  0.00  0.00    +0.050 A 
ATOM      4  C   UNL     1       0.115  -8.425  -0.847  0.00  0.00    +0.136 A 
ATOM      5  O   UNL     1       0.094  -7.102  -0.594  0.00  0.00    -0.454 OA
ENDROOT
BRANCH   4   6
ATOM      6  C   UNL     1       0.123  -9.045  -2.187  0.00  0.00    +0.018 A 
ATOM      7  C   UNL     1       0.133 -10.437  -2.316  0.00  0.00    +0.013 A 
ATOM      8  C   UNL     1       0.140 -11.009  -3.570  0.00  0.00    +0.021 A 
ATOM      9  C   UNL     1       0.138 -10.209  -4.700  0.00  0.00    +0.053 A 
ATOM     10  C   UNL     1       0.128  -8.829  -4.579  0.00  0.00    +0.074 A 
ATOM     11  C   UNL     1       0.115  -8.244  -3.331  0.00  0.00    +0.025 A 
ATOM     12 CL   UNL     1       0.147 -10.938  -6.276  0.00  0.00    -0.083 Cl
BRANCH  10  13
ATOM     13  C   UNL     1       0.126  -7.966  -5.815  0.00  0.00    +0.419 C 
ATOM     14  F   UNL     1       0.116  -6.618  -5.441  0.00  0.00    -0.166 F 
ATOM     15  F   UNL     1       1.273  -8.232  -6.571  0.00  0.00    -0.166 F 
ATOM     16  F   UNL     1      -1.012  -8.247  -6.578  0.00  0.00    -0.166 F 
ENDBRANCH  10  13
ENDBRANCH   4   6
BRANCH   1  18
ATOM     17  N   UNL     1       0.065  -4.505   0.712  0.00  0.00    -0.184 NA
ATOM     18  C   UNL     1       0.082  -5.602   1.413  0.00  0.00    +0.176 C 
BRANCH  17  25
ATOM     19  C   UNL     1      -0.018   1.503   0.010  0.00  0.00    +0.090 C 
ATOM     20  C   UNL     1       0.002  -0.004   0.002  0.00  0.00    +0.149 A 
ATOM     21  N   UNL     1       0.008  -0.771  -1.052  0.00  0.00    -0.131 NA
ATOM     22  N   UNL     1       0.026  -2.006  -0.699  0.00  0.00    -0.110 NA
ATOM     23  C   UNL     1       0.033  -2.095   0.611  0.00  0.00    +0.254 A 
ATOM     24  N   UNL     1       0.024  -0.820   1.098  0.00  0.00    -0.220 N 
ATOM     25  N   UNL     1       0.051  -3.261   1.357  0.00  0.00    -0.204 N 
ATOM     26  H   UNL     1       0.054  -3.217   2.326  0.00  0.00    +0.177 HD
BRANCH  24  27
ATOM     27  N   UNL     1       0.031  -0.438   2.410  0.00  0.00    -0.294 N 
ATOM     28  H   UNL     1      -0.909  -0.349   2.766  0.00  0.00    +0.163 HD
ATOM     29  H   UNL     1       0.571  -1.080   2.970  0.00  0.00    +0.163 HD
ENDBRANCH  24  27
ENDBRANCH  17  25
ENDBRANCH   1  18
TORSDOF 5
