REMARK  Name = ZINC39637378
REMARK  7 active torsions:
REMARK  status: ('A' for Active; 'I' for Inactive)
REMARK    1  A    between atoms: C_1  and  C_2
REMARK    2  A    between atoms: C_7  and  N_12
REMARK    3  A    between atoms: C_9  and  C_11
REMARK    4  A    between atoms: C_13  and  C_15
REMARK    5  A    between atoms: C_26  and  C_28
REMARK    6  A    between atoms: C_30  and  O_35
REMARK    7  A    between atoms: O_35  and  C_36
REMARK                            x       y       z     vdW  Elec       q    Type
REMARK                         _______ _______ _______ _____ _____    ______ ____
ROOT
ATOM      1  C   UNL     1      -2.873  -4.835   1.074  0.00  0.00    +0.100 C 
ATOM      2  C   UNL     1      -3.414  -3.828   2.114  0.00  0.00    +0.121 C 
ATOM      3  N   UNL     1      -4.182  -4.657   3.073  0.00  0.00    -0.296 N 
ATOM      4  C   UNL     1      -3.371  -5.888   3.227  0.00  0.00    +0.115 C 
ATOM      5  C   UNL     1      -2.846  -6.186   1.809  0.00  0.00    -0.004 C 
ATOM      6  C   UNL     1      -1.419  -6.721   1.877  0.00  0.00    -0.010 C 
ATOM      7  C   UNL     1      -1.425  -8.092   2.560  0.00  0.00    -0.082 C 
ATOM      8  N   UNL     1      -2.280  -9.014   1.803  0.00  0.00    +0.379 N 
ATOM      9  C   UNL     1      -3.668  -8.539   1.822  0.00  0.00    -0.082 C 
ATOM     10  C   UNL     1      -3.758  -7.188   1.107  0.00  0.00    -0.010 C 
ATOM     11  C   UNL     1      -5.353  -4.359   3.670  0.00  0.00    +0.248 C 
ATOM     12  O   UNL     1      -5.819  -5.111   4.503  0.00  0.00    -0.270 OA
ATOM     13  H   UNL     1      -1.956  -9.065   0.849  0.00  0.00    -0.086 HD
ATOM     14  H   UNL     1      -2.234  -9.932   2.220  0.00  0.00    -0.086 HD
ENDROOT
BRANCH  11  15
ATOM     15  C   UNL     1      -6.069  -3.116   3.312  0.00  0.00    +0.054 A 
ATOM     16  C   UNL     1      -5.362  -1.925   3.140  0.00  0.00    +0.059 A 
ATOM     17  C   UNL     1      -6.040  -0.766   2.804  0.00  0.00    +0.121 A 
ATOM     18  C   UNL     1      -7.419  -0.789   2.640  0.00  0.00    +0.047 A 
ATOM     19  C   UNL     1      -8.121  -1.967   2.809  0.00  0.00    +0.019 A 
ATOM     20  C   UNL     1      -7.455  -3.131   3.139  0.00  0.00    +0.030 A 
ATOM     21 BR   UNL     1      -8.419  -4.742   3.363  0.00  0.00    -0.050 Br
BRANCH  17  22
ATOM     22  O   UNL     1      -5.355   0.397   2.637  0.00  0.00    -0.495 OA
ATOM     23  C   UNL     1      -6.118   1.555   2.291  0.00  0.00    +0.277 C 
ENDBRANCH  17  22
ENDBRANCH  11  15
BRANCH   1  25
ATOM     24  N   UNL     1      -1.064  -4.731  -0.609  0.00  0.00    -0.312 N 
ATOM     25  C   UNL     1      -1.484  -4.446   0.639  0.00  0.00    +0.218 C 
ATOM     26  O   UNL     1      -0.744  -3.876   1.413  0.00  0.00    -0.275 OA
ATOM     27  H   UNL     1      -1.655  -5.186  -1.228  0.00  0.00    +0.149 HD
BRANCH  24  33
ATOM     28  C   UNL     1      -0.032  -5.367  -4.732  0.00  0.00    +0.008 C 
ATOM     29  C   UNL     1      -0.066  -5.523  -3.210  0.00  0.00    -0.009 C 
ATOM     30  C   UNL     1       0.924  -6.609  -2.787  0.00  0.00    +0.003 C 
ATOM     31  C   UNL     1       0.891  -6.765  -1.265  0.00  0.00    +0.002 C 
ATOM     32  C   UNL     1       1.277  -5.439  -0.608  0.00  0.00    +0.022 C 
ATOM     33  C   UNL     1       0.287  -4.352  -1.032  0.00  0.00    +0.076 C 
ATOM     34  C   UNL     1       0.321  -4.196  -2.553  0.00  0.00    +0.009 C 
ATOM     35  C   UNL     1      -0.669  -3.109  -2.977  0.00  0.00    +0.009 C 
ENDBRANCH  24  33
ENDBRANCH   1  25
TORSDOF 4
