REMARK  Name = ZINC07547944
REMARK  7 active torsions:
REMARK  status: ('A' for Active; 'I' for Inactive)
REMARK    1  A    between atoms: C_1  and  C_2
REMARK    2  A    between atoms: C_5  and  N_9
REMARK    3  A    between atoms: C_6  and  C_8
REMARK    4  A    between atoms: C_13  and  C_15
REMARK    5  A    between atoms: C_15  and  O_16
REMARK    6  A    between atoms: O_16  and  C_17
REMARK    7  A    between atoms: C_17  and  C_19
REMARK                            x       y       z     vdW  Elec       q    Type
REMARK                         _______ _______ _______ _____ _____    ______ ____
ROOT
ATOM      1  N   UNL     1       0.059  -4.170  -0.021  0.00  0.00    -0.269 N 
ATOM      2  C   UNL     1      -0.040  -4.839  -1.187  0.00  0.00    +0.310 C 
ATOM      3  O   UNL     1      -0.054  -4.229  -2.238  0.00  0.00    -0.252 OA
ATOM      4  N   UNL     1      -0.124  -6.184  -1.187  0.00  0.00    -0.237 N 
ATOM      5  C   UNL     1      -0.223  -6.853  -2.353  0.00  0.00    +0.258 C 
ATOM      6  O   UNL     1      -0.237  -6.244  -3.401  0.00  0.00    -0.272 OA
ATOM      7  H   UNL     1       0.135  -4.658   0.814  0.00  0.00    +0.156 HD
ATOM      8  H   UNL     1      -0.113  -6.671  -0.348  0.00  0.00    +0.159 HD
ENDROOT
BRANCH   1  13
ATOM      9  C   UNL     1       0.025   1.503   0.005  0.00  0.00    +0.044 C 
ATOM     10  C   UNL     1       0.034  -0.004  -0.002  0.00  0.00    -0.050 A 
ATOM     11  C   UNL     1       0.632  -0.685  -1.046  0.00  0.00    +0.005 A 
ATOM     12  C   UNL     1       0.641  -2.066  -1.055  0.00  0.00    +0.024 A 
ATOM     13  C   UNL     1       0.051  -2.771  -0.014  0.00  0.00    +0.038 A 
ATOM     14  C   UNL     1      -0.548  -2.083   1.033  0.00  0.00    -0.029 A 
ATOM     15  C   UNL     1      -0.551  -0.702   1.039  0.00  0.00    +0.008 A 
ATOM     16  C   UNL     1      -1.191  -2.843   2.165  0.00  0.00    +0.045 C 
ENDBRANCH   1  13
BRANCH   5  17
ATOM     17  C   UNL     1      -0.317  -8.357  -2.353  0.00  0.00    +0.328 C 
BRANCH  17  18
ATOM     18  O   UNL     1      -0.412  -8.828  -3.699  0.00  0.00    -0.455 OA
BRANCH  18  19
ATOM     19  C   UNL     1      -0.503 -10.155  -3.875  0.00  0.00    +0.314 C 
ATOM     20  O   UNL     1      -0.502 -10.893  -2.918  0.00  0.00    -0.250 OA
BRANCH  19  21
ATOM     21  C   UNL     1      -0.607 -10.726  -5.266  0.00  0.00    +0.139 C 
ATOM     22  C   UNL     1      -0.713 -12.251  -5.191  0.00  0.00    +0.057 C 
ATOM     23  C   UNL     1      -1.111 -12.799  -6.538  0.00  0.00    -0.003 A 
ATOM     24  C   UNL     1      -0.902 -14.143  -6.799  0.00  0.00    +0.027 A 
ATOM     25  C   UNL     1      -1.258 -14.680  -8.022  0.00  0.00    +0.041 A 
ATOM     26  C   UNL     1      -1.827 -13.873  -8.992  0.00  0.00    +0.023 A 
ATOM     27  C   UNL     1      -2.035 -12.533  -8.737  0.00  0.00    +0.047 A 
ATOM     28  C   UNL     1      -1.676 -11.989  -7.508  0.00  0.00    +0.124 A 
ATOM     29  O   UNL     1      -1.887 -10.663  -7.299  0.00  0.00    -0.491 OA
ATOM     30  C   UNL     1      -1.869 -10.188  -5.952  0.00  0.00    +0.244 C 
ATOM     31 CL   UNL     1      -0.993 -16.366  -8.341  0.00  0.00    -0.084 Cl
ENDBRANCH  19  21
ENDBRANCH  18  19
ENDBRANCH  17  18
ENDBRANCH   5  17
TORSDOF 5
