REMARK  Name = ZINC39662678
REMARK  7 active torsions:
REMARK  status: ('A' for Active; 'I' for Inactive)
REMARK    1  A    between atoms: C_4  and  C_7
REMARK    2  A    between atoms: C_7  and  C_8
REMARK    3  A    between atoms: C_8  and  C_9
REMARK    4  A    between atoms: C_13  and  C_22
REMARK    5  A    between atoms: N_24  and  C_25
REMARK    6  A    between atoms: C_25  and  C_26
REMARK    7  A    between atoms: C_29  and  C_32
REMARK                            x       y       z     vdW  Elec       q    Type
REMARK                         _______ _______ _______ _____ _____    ______ ____
ROOT
ATOM      1  C   UNL     1       5.641  -1.745   1.344  0.00  0.00    +0.216 C 
ATOM      2  O   UNL     1       6.154  -2.096   0.303  0.00  0.00    -0.276 OA
ATOM      3  N   UNL     1       6.196  -2.095   2.522  0.00  0.00    -0.300 N 
ATOM      4  C   UNL     1       5.715  -1.769   3.885  0.00  0.00    +0.121 C 
ATOM      5  C   UNL     1       5.966  -3.055   4.705  0.00  0.00    +0.100 C 
ATOM      6  C   UNL     1       7.091  -3.786   3.953  0.00  0.00    -0.004 C 
ATOM      7  C   UNL     1       7.422  -2.898   2.745  0.00  0.00    +0.115 C 
ATOM      8  C   UNL     1       6.607  -5.153   3.478  0.00  0.00    -0.010 C 
ATOM      9  C   UNL     1       7.759  -5.884   2.783  0.00  0.00    -0.082 C 
ATOM     10  N   UNL     1       8.879  -6.037   3.720  0.00  0.00    +0.379 N 
ATOM     11  C   UNL     1       9.399  -4.718   4.100  0.00  0.00    -0.082 C 
ATOM     12  C   UNL     1       8.316  -3.938   4.850  0.00  0.00    -0.010 C 
ATOM     13  H   UNL     1       8.561  -6.523   4.545  0.00  0.00    -0.086 HD
ATOM     14  H   UNL     1       9.613  -6.572   3.280  0.00  0.00    -0.086 HD
ENDROOT
BRANCH   5  15
ATOM     15  C   UNL     1       6.407  -2.707   6.104  0.00  0.00    +0.218 C 
ATOM     16  O   UNL     1       7.036  -1.690   6.306  0.00  0.00    -0.275 OA
ATOM     17  N   UNL     1       6.102  -3.526   7.129  0.00  0.00    -0.315 N 
ATOM     18  H   UNL     1       5.599  -4.340   6.967  0.00  0.00    +0.149 HD
BRANCH  17  19
ATOM     19  C   UNL     1       6.531  -3.188   8.489  0.00  0.00    +0.107 C 
BRANCH  19  20
ATOM     20  C   UNL     1       6.060  -4.276   9.457  0.00  0.00    +0.006 C 
ATOM     21  C   UNL     1       4.531  -4.288   9.506  0.00  0.00    +0.006 C 
ATOM     22  C   UNL     1       4.060  -5.375  10.474  0.00  0.00    +0.015 C 
ATOM     23  C   UNL     1       4.612  -5.087  11.871  0.00  0.00    +0.102 C 
ATOM     24  C   UNL     1       6.141  -5.075  11.823  0.00  0.00    +0.015 C 
ATOM     25  C   UNL     1       6.612  -3.988  10.855  0.00  0.00    +0.006 C 
BRANCH  23  26
ATOM     26  C   UNL     1       4.148  -6.158  12.825  0.00  0.00    +0.359 C 
ATOM     27  O   UNL     1       4.840  -6.465  13.781  0.00  0.00    -0.246 OA
ATOM     28  O   UNL     1       3.081  -6.718  12.641  0.00  0.00    -0.246 OA
ENDBRANCH  23  26
ENDBRANCH  19  20
ENDBRANCH  17  19
ENDBRANCH   5  15
BRANCH   1  29
ATOM     29  C   UNL     1       4.381  -0.918   1.322  0.00  0.00    +0.100 C 
BRANCH  29  30
ATOM     30  C   UNL     1       3.965  -0.663  -0.128  0.00  0.00    +0.044 C 
BRANCH  30  34
ATOM     31  C   UNL     1       0.395   1.682  -0.196  0.00  0.00    +0.000 A 
ATOM     32  C   UNL     1       1.630   2.303  -0.197  0.00  0.00    +0.000 A 
ATOM     33  C   UNL     1       2.785   1.544  -0.175  0.00  0.00    +0.003 A 
ATOM     34  C   UNL     1       2.705   0.164  -0.151  0.00  0.00    -0.047 A 
ATOM     35  C   UNL     1       1.470  -0.457  -0.149  0.00  0.00    +0.003 A 
ATOM     36  C   UNL     1       0.315   0.302  -0.173  0.00  0.00    +0.000 A 
ENDBRANCH  30  34
ENDBRANCH  29  30
ENDBRANCH   1  29
TORSDOF 7
