REMARK  Name = ZINC38684173
REMARK  13 active torsions:
REMARK  status: ('A' for Active; 'I' for Inactive)
REMARK    1  A    between atoms: C_1  and  C_2
REMARK    2  A    between atoms: C_2  and  C_3
REMARK    3  A    between atoms: C_2  and  C_4
REMARK    4  A    between atoms: C_4  and  O_5
REMARK    5  A    between atoms: O_5  and  C_6
REMARK    6  A    between atoms: C_9  and  C_14
REMARK    7  A    between atoms: C_11  and  O_12
REMARK    8  A    between atoms: O_12  and  C_13
REMARK    9  A    between atoms: C_19  and  O_28
REMARK   10  A    between atoms: C_23  and  N_27
REMARK   11  A    between atoms: C_24  and  C_25
REMARK   12  A    between atoms: O_28  and  C_29
REMARK   13  A    between atoms: C_29  and  C_31
REMARK                            x       y       z     vdW  Elec       q    Type
REMARK                         _______ _______ _______ _____ _____    ______ ____
ROOT
ATOM      1  C   UNL     1      -6.426  -4.519  -0.165  0.00  0.00    +0.098 C 
ATOM      2  C   UNL     1      -7.141  -4.246   1.131  0.00  0.00    +0.008 A 
ATOM      3  C   UNL     1      -6.816  -4.984   2.256  0.00  0.00    +0.012 A 
ATOM      4  C   UNL     1      -7.462  -4.747   3.454  0.00  0.00    +0.047 A 
ATOM      5  C   UNL     1      -8.441  -3.767   3.532  0.00  0.00    +0.135 A 
ATOM      6  C   UNL     1      -8.768  -3.027   2.408  0.00  0.00    +0.093 A 
ATOM      7  C   UNL     1      -8.118  -3.265   1.204  0.00  0.00    +0.138 A 
ATOM      8  O   UNL     1      -8.450  -2.533   0.113  0.00  0.00    -0.441 OA
ATOM      9  C   UNL     1      -8.140  -2.981  -1.115  0.00  0.00    +0.199 C 
ATOM     10  C   UNL     1      -7.190  -3.920  -1.313  0.00  0.00    +0.098 C 
ENDROOT
BRANCH   1  14
ATOM     11  C   UNL     1      -2.517  -2.791  -0.014  0.00  0.00    +0.162 A 
ATOM     12  C   UNL     1      -3.638  -1.988   0.117  0.00  0.00    +0.050 A 
ATOM     13  C   UNL     1      -4.900  -2.549   0.067  0.00  0.00    +0.008 A 
ATOM     14  C   UNL     1      -5.047  -3.912  -0.112  0.00  0.00    -0.031 A 
ATOM     15  C   UNL     1      -3.933  -4.720  -0.243  0.00  0.00    +0.054 A 
ATOM     16  C   UNL     1      -2.665  -4.162  -0.200  0.00  0.00    +0.162 A 
BRANCH  16  17
ATOM     17  O   UNL     1      -1.567  -4.954  -0.334  0.00  0.00    -0.491 OA
ATOM     18  C   UNL     1      -1.796  -6.353  -0.522  0.00  0.00    +0.277 C 
ENDBRANCH  16  17
BRANCH  11  19
ATOM     19  O   UNL     1      -1.274  -2.240   0.034  0.00  0.00    -0.488 OA
BRANCH  19  20
ATOM     20  C   UNL     1      -1.198  -0.827   0.228  0.00  0.00    +0.232 C 
BRANCH  20  22
ATOM     21  C   UNL     1       0.349   1.132   0.337  0.00  0.00    +0.010 C 
ATOM     22  C   UNL     1       0.269  -0.394   0.255  0.00  0.00    +0.020 C 
ATOM     23  C   UNL     1       0.959  -1.007   1.475  0.00  0.00    +0.010 C 
ENDBRANCH  20  22
ENDBRANCH  19  20
ENDBRANCH  11  19
ENDBRANCH   1  14
BRANCH   9  24
ATOM     24  N   UNL     1      -8.807  -2.468  -2.199  0.00  0.00    -0.328 N 
ATOM     25  H   UNL     1      -9.492  -1.792  -2.073  0.00  0.00    +0.145 HD
ATOM     26  H   UNL     1      -8.595  -2.781  -3.092  0.00  0.00    +0.145 HD
ENDBRANCH   9  24
BRANCH  10  27
ATOM     27  C   UNL     1      -6.906  -4.355  -2.647  0.00  0.00    +0.101 C 
ATOM     28  N   UNL     1      -6.681  -4.699  -3.706  0.00  0.00    -0.191 NA
ENDBRANCH  10  27
BRANCH   5  29
ATOM     29  O   UNL     1      -9.077  -3.533   4.710  0.00  0.00    -0.422 OA
BRANCH  29  30
ATOM     30  C   UNL     1     -10.378  -3.876   4.806  0.00  0.00    +0.351 C 
ATOM     31  O   UNL     1     -10.919  -4.472   3.894  0.00  0.00    -0.244 OA
BRANCH  30  32
ATOM     32  C   UNL     1     -11.140  -3.530   6.008  0.00  0.00    +0.097 A 
ATOM     33  C   UNL     1     -12.469  -3.791   6.306  0.00  0.00    +0.022 A 
ATOM     34  C   UNL     1     -12.907  -3.338   7.527  0.00  0.00    +0.008 A 
ATOM     35  C   UNL     1     -12.038  -2.685   8.338  0.00  0.00    +0.046 A 
ATOM     36  S   UNL     1     -10.598  -2.670   7.472  0.00  0.00    -0.090 S 
ENDBRANCH  30  32
ENDBRANCH  29  30
ENDBRANCH   5  29
TORSDOF 10
