REMARK  Name = ZINC20138229
REMARK  8 active torsions:
REMARK  status: ('A' for Active; 'I' for Inactive)
REMARK    1  A    between atoms: C_1  and  C_2
REMARK    2  A    between atoms: C_2  and  O_3
REMARK    3  A    between atoms: O_3  and  C_4
REMARK    4  A    between atoms: C_7  and  N_10
REMARK    5  A    between atoms: C_15  and  C_33
REMARK    6  A    between atoms: C_18  and  C_23
REMARK    7  A    between atoms: C_18  and  C_30
REMARK    8  A    between atoms: C_23  and  C_24
REMARK                            x       y       z     vdW  Elec       q    Type
REMARK                         _______ _______ _______ _____ _____    ______ ____
ROOT
ATOM      1  N   UNL     1       1.188  -6.266  -1.565  0.00  0.00    -0.210 N 
ATOM      2  C   UNL     1       0.499  -7.286  -0.957  0.00  0.00    +0.232 C 
ATOM      3  O   UNL     1      -0.381  -7.193  -0.128  0.00  0.00    -0.274 OA
ATOM      4  C   UNL     1       1.052  -8.492  -1.522  0.00  0.00    +0.111 C 
ATOM      5  C   UNL     1       0.718  -9.913  -1.717  0.00  0.00    +0.100 C 
ATOM      6  N   UNL     1       1.809 -10.368  -2.646  0.00  0.00    -0.293 NA
ATOM      7  C   UNL     1       2.331  -9.166  -3.362  0.00  0.00    +0.138 C 
ATOM      8  C   UNL     1       1.350  -8.039  -3.006  0.00  0.00    +0.121 C 
ATOM      9  C   UNL     1       1.901  -6.686  -2.652  0.00  0.00    +0.232 C 
ATOM     10  O   UNL     1       2.796  -6.091  -3.214  0.00  0.00    -0.274 OA
ATOM     11  H   UNL     1       2.546 -10.834  -2.137  0.00  0.00    +0.124 HD
ENDROOT
BRANCH   5  12
ATOM     12  C   UNL     1       0.774 -10.663  -0.411  0.00  0.00    +0.005 A 
ATOM     13  C   UNL     1       1.415 -10.105   0.679  0.00  0.00    +0.008 A 
ATOM     14  C   UNL     1       1.467 -10.793   1.877  0.00  0.00    +0.000 A 
ATOM     15  C   UNL     1       0.878 -12.039   1.987  0.00  0.00    +0.003 A 
ATOM     16  C   UNL     1       0.236 -12.598   0.898  0.00  0.00    +0.038 A 
ATOM     17  C   UNL     1       0.179 -11.908  -0.301  0.00  0.00    +0.128 A 
ATOM     18  F   UNL     1      -0.453 -12.452  -1.365  0.00  0.00    -0.205 F 
ENDBRANCH   5  12
BRANCH   1  22
ATOM     19  C   UNL     1       1.101  -2.309  -0.246  0.00  0.00    +0.121 A 
ATOM     20  C   UNL     1       0.379  -3.281   0.430  0.00  0.00    +0.047 A 
ATOM     21  C   UNL     1       0.407  -4.591  -0.006  0.00  0.00    +0.027 A 
ATOM     22  C   UNL     1       1.159  -4.935  -1.122  0.00  0.00    +0.044 A 
ATOM     23  C   UNL     1       1.881  -3.961  -1.798  0.00  0.00    +0.027 A 
ATOM     24  C   UNL     1       1.848  -2.651  -1.364  0.00  0.00    +0.047 A 
BRANCH  19  25
ATOM     25  O   UNL     1       1.072  -1.020   0.184  0.00  0.00    -0.492 OA
BRANCH  25  27
ATOM     26  C   UNL     1       0.373   0.752   1.671  0.00  0.00    +0.048 C 
ATOM     27  C   UNL     1       0.282  -0.739   1.341  0.00  0.00    +0.225 C 
ENDBRANCH  25  27
ENDBRANCH  19  25
ENDBRANCH   1  22
BRANCH   7  28
ATOM     28  C   UNL     1       2.321  -9.401  -4.851  0.00  0.00    +0.377 C 
ATOM     29  O   UNL     1       1.946 -10.472  -5.296  0.00  0.00    -0.244 OA
ATOM     30  O   UNL     1       2.687  -8.519  -5.609  0.00  0.00    -0.244 OA
ENDBRANCH   7  28
BRANCH   7  31
ATOM     31  C   UNL     1       3.748  -8.839  -2.886  0.00  0.00    +0.069 C 
BRANCH  31  32
ATOM     32  C   UNL     1       4.647 -10.021  -3.138  0.00  0.00    -0.045 A 
ATOM     33  C   UNL     1       4.885 -10.936  -2.129  0.00  0.00    +0.004 A 
ATOM     34  C   UNL     1       5.711 -12.021  -2.360  0.00  0.00    +0.000 A 
ATOM     35  C   UNL     1       6.298 -12.191  -3.599  0.00  0.00    +0.000 A 
ATOM     36  C   UNL     1       6.059 -11.277  -4.608  0.00  0.00    +0.000 A 
ATOM     37  C   UNL     1       5.231 -10.194  -4.379  0.00  0.00    +0.004 A 
ENDBRANCH  31  32
ENDBRANCH   7  31
TORSDOF 7
