REMARK  Name = ZINC03417134
REMARK  5 active torsions:
REMARK  status: ('A' for Active; 'I' for Inactive)
REMARK    1  A    between atoms: C_1  and  C_2
REMARK    2  A    between atoms: C_9  and  N_13
REMARK    3  A    between atoms: C_10  and  C_11
REMARK    4  A    between atoms: C_14  and  C_16
REMARK    5  A    between atoms: C_16  and  N_17
REMARK                            x       y       z     vdW  Elec       q    Type
REMARK                         _______ _______ _______ _____ _____    ______ ____
ROOT
ATOM      1  C   UNL     1       1.654   4.196   0.009  0.00  0.00    +0.214 C 
ENDROOT
BRANCH   1   2
ATOM      2  N   UNL     1       0.703   3.082   0.012  0.00  0.00    -0.215 N 
ATOM      3  C   UNL     1      -0.640   3.230   0.026  0.00  0.00    +0.251 C 
ATOM      4  O   UNL     1      -1.266   4.268   0.038  0.00  0.00    -0.272 OA
ATOM      5  C   UNL     1      -1.193   1.829   0.017  0.00  0.00    +0.138 C 
ATOM      6  C   UNL     1      -2.074   1.584  -1.215  0.00  0.00    +0.045 C 
ATOM      7  C   UNL     1      -3.491   1.852  -0.659  0.00  0.00    +0.038 C 
ATOM      8  C   UNL     1      -3.394   1.580   0.828  0.00  0.00    -0.042 A 
ATOM      9  C   UNL     1      -2.064   1.571   1.216  0.00  0.00    -0.012 A 
ATOM     10  C   UNL     1      -1.739   1.345   2.543  0.00  0.00    +0.006 A 
ATOM     11  C   UNL     1      -2.733   1.128   3.478  0.00  0.00    +0.000 A 
ATOM     12  C   UNL     1      -4.059   1.136   3.088  0.00  0.00    +0.000 A 
ATOM     13  C   UNL     1      -4.387   1.361   1.766  0.00  0.00    +0.004 A 
ATOM     14  N   UNL     1      -0.011   0.966   0.007  0.00  0.00    -0.281 N 
ATOM     15  C   UNL     1       1.056   1.790   0.002  0.00  0.00    +0.310 C 
ATOM     16  O   UNL     1       2.208   1.405  -0.012  0.00  0.00    -0.252 OA
ATOM     17  H   UNL     1       0.002  -0.004   0.002  0.00  0.00    +0.152 HD
ENDBRANCH   1   2
BRANCH   1  19
ATOM     18  N   UNL     1       2.824   5.596  -1.661  0.00  0.00    -0.278 N 
ATOM     19  C   UNL     1       1.966   4.587  -1.413  0.00  0.00    +0.236 C 
ATOM     20  O   UNL     1       1.445   3.993  -2.333  0.00  0.00    -0.274 OA
ATOM     21  H   UNL     1       3.240   6.071  -0.925  0.00  0.00    +0.155 HD
BRANCH  18  29
ATOM     22  C   UNL     1       4.101   7.375  -9.172  0.00  0.00    +0.008 C 
ATOM     23  C   UNL     1       3.878   7.523  -7.666  0.00  0.00    -0.009 C 
ATOM     24  C   UNL     1       5.216   7.788  -6.969  0.00  0.00    +0.008 C 
ATOM     25  C   UNL     1       4.975   8.182  -5.511  0.00  0.00    +0.037 C 
ATOM     26  C   UNL     1       4.086   7.130  -4.860  0.00  0.00    -0.018 A 
ATOM     27  C   UNL     1       3.349   6.281  -5.610  0.00  0.00    -0.004 A 
ATOM     28  S   UNL     1       2.498   5.264  -4.436  0.00  0.00    -0.077 S 
ATOM     29  C   UNL     1       3.111   5.955  -2.971  0.00  0.00    +0.090 A 
ATOM     30  C   UNL     1       3.954   6.960  -3.423  0.00  0.00    +0.084 A 
ATOM     31  C   UNL     1       3.277   6.226  -7.104  0.00  0.00    +0.046 C 
BRANCH  30  32
ATOM     32  C   UNL     1       4.672   7.795  -2.508  0.00  0.00    +0.102 C 
ATOM     33  N   UNL     1       5.242   8.457  -1.782  0.00  0.00    -0.191 NA
ENDBRANCH  30  32
ENDBRANCH  18  29
ENDBRANCH   1  19
TORSDOF 4
