REMARK  Name = ZINC45821566
REMARK  5 active torsions:
REMARK  status: ('A' for Active; 'I' for Inactive)
REMARK    1  A    between atoms: C_4  and  C_7
REMARK    2  A    between atoms: C_7  and  O_8
REMARK    3  A    between atoms: O_8  and  C_9
REMARK    4  A    between atoms: C_12  and  C_19
REMARK    5  A    between atoms: C_20  and  C_25
REMARK                            x       y       z     vdW  Elec       q    Type
REMARK                         _______ _______ _______ _____ _____    ______ ____
ROOT
ATOM      1  C   UNL     1       5.318  -1.605   1.466  0.00  0.00    +0.216 A 
ATOM      2  C   UNL     1       5.780  -1.869   2.743  0.00  0.00    +0.078 A 
ATOM      3  C   UNL     1       6.991  -2.546   2.887  0.00  0.00    +0.015 A 
ATOM      4  C   UNL     1       7.798  -3.001   4.026  0.00  0.00    +0.025 A 
ATOM      5  C   UNL     1       8.895  -3.611   3.507  0.00  0.00    +0.093 A 
ATOM      6  N   UNL     1       8.842  -3.576   2.143  0.00  0.00    -0.359 N 
ATOM      7  H   UNL     1       9.514  -3.949   1.551  0.00  0.00    +0.165 HD
ATOM      8  C   UNL     1       7.695  -2.933   1.729  0.00  0.00    +0.066 A 
ATOM      9  C   UNL     1       7.154  -2.626   0.489  0.00  0.00    +0.140 A 
ATOM     10  N   UNL     1       6.004  -1.989   0.399  0.00  0.00    -0.219 NA
ENDROOT
BRANCH   4  11
ATOM     11  C   UNL     1       7.479  -2.829   5.459  0.00  0.00    +0.070 A 
ATOM     12  C   UNL     1       6.434  -3.383   6.133  0.00  0.00    +0.049 A 
ATOM     13  N   UNL     1       6.503  -2.979   7.408  0.00  0.00    -0.349 N 
ATOM     14  C   UNL     1       7.538  -2.200   7.565  0.00  0.00    +0.171 A 
ATOM     15  N   UNL     1       8.183  -2.081   6.375  0.00  0.00    -0.346 N 
ATOM     16  H   UNL     1       8.986  -1.565   6.203  0.00  0.00    +0.167 HD
ATOM     17  H   UNL     1       5.878  -3.227   8.107  0.00  0.00    +0.166 HD
BRANCH  12  18
ATOM     18  C   UNL     1       5.385  -4.291   5.547  0.00  0.00    +0.068 C 
ATOM     19  C   UNL     1       4.011  -3.642   5.708  0.00  0.00    +0.015 C 
ATOM     20  C   UNL     1       2.943  -4.667   5.308  0.00  0.00    +0.006 C 
ATOM     21  C   UNL     1       2.906  -5.763   6.370  0.00  0.00    +0.035 C 
ATOM     22  C   UNL     1       4.290  -6.299   6.627  0.00  0.00    -0.044 A 
ATOM     23  C   UNL     1       5.428  -5.621   6.253  0.00  0.00    -0.035 A 
ATOM     24  C   UNL     1       6.675  -6.168   6.526  0.00  0.00    +0.004 A 
ATOM     25  C   UNL     1       6.781  -7.385   7.166  0.00  0.00    +0.000 A 
ATOM     26  C   UNL     1       5.638  -8.067   7.539  0.00  0.00    +0.000 A 
ATOM     27  C   UNL     1       4.400  -7.526   7.269  0.00  0.00    +0.004 A 
ENDBRANCH  12  18
ENDBRANCH   4  11
BRANCH   1  28
ATOM     28  O   UNL     1       4.141  -0.946   1.304  0.00  0.00    -0.472 OA
BRANCH  28  29
ATOM     29  C   UNL     1       3.711  -0.707  -0.038  0.00  0.00    +0.266 C 
BRANCH  29  33
ATOM     30  C   UNL     1      -0.017   1.378   0.010  0.00  0.00    +0.000 A 
ATOM     31  C   UNL     1       1.171   2.086   0.002  0.00  0.00    +0.000 A 
ATOM     32  C   UNL     1       2.377   1.411  -0.013  0.00  0.00    +0.007 A 
ATOM     33  C   UNL     1       2.396   0.029  -0.020  0.00  0.00    -0.010 A 
ATOM     34  C   UNL     1       1.208  -0.679  -0.012  0.00  0.00    +0.007 A 
ATOM     35  C   UNL     1       0.002  -0.004   0.002  0.00  0.00    +0.000 A 
ENDBRANCH  29  33
ENDBRANCH  28  29
ENDBRANCH   1  28
TORSDOF 5
