REMARK  Name = ZINC18749273
REMARK  8 active torsions:
REMARK  status: ('A' for Active; 'I' for Inactive)
REMARK    1  A    between atoms: C_3  and  N_18
REMARK    2  A    between atoms: C_5  and  S_7
REMARK    3  A    between atoms: S_7  and  N_10
REMARK    4  A    between atoms: C_19  and  C_21
REMARK    5  A    between atoms: C_21  and  O_22
REMARK    6  A    between atoms: O_22  and  C_23
REMARK    7  A    between atoms: C_23  and  C_25
REMARK    8  A    between atoms: C_30  and  N_31
REMARK                            x       y       z     vdW  Elec       q    Type
REMARK                         _______ _______ _______ _____ _____    ______ ____
ROOT
ATOM      1  C   UNL     1      -0.114   1.546  -0.477  0.00  0.00    +0.004 A 
ATOM      2  C   UNL     1       1.086   2.229  -0.442  0.00  0.00    +0.023 A 
ATOM      3  C   UNL     1       2.275   1.533  -0.274  0.00  0.00    +0.035 A 
ATOM      4  C   UNL     1       2.254   0.150  -0.142  0.00  0.00    +0.052 A 
ATOM      5  C   UNL     1       1.051  -0.527  -0.179  0.00  0.00    +0.114 A 
ATOM      6  C   UNL     1      -0.132   0.170  -0.346  0.00  0.00    +0.029 A 
ENDROOT
BRANCH   3   7
ATOM      7  N   UNL     1       3.492   2.222  -0.239  0.00  0.00    -0.283 N 
ATOM      8  C   UNL     1       3.551   3.458   0.295  0.00  0.00    +0.255 C 
ATOM      9  O   UNL     1       2.572   3.936   0.828  0.00  0.00    -0.272 OA
ATOM     10  H   UNL     1       4.293   1.810  -0.598  0.00  0.00    +0.155 HD
BRANCH   8  11
ATOM     11  C   UNL     1       4.834   4.247   0.230  0.00  0.00    +0.328 C 
BRANCH  11  12
ATOM     12  O   UNL     1       4.645   5.516   0.859  0.00  0.00    -0.452 OA
BRANCH  12  13
ATOM     13  C   UNL     1       5.705   6.349   0.886  0.00  0.00    +0.341 C 
ATOM     14  O   UNL     1       6.760   6.006   0.389  0.00  0.00    -0.245 OA
BRANCH  13  15
ATOM     15  C   UNL     1       5.584   7.673   1.517  0.00  0.00    +0.080 A 
ATOM     16  C   UNL     1       4.412   8.025   2.194  0.00  0.00    +0.019 A 
ATOM     17  C   UNL     1       4.304   9.264   2.783  0.00  0.00    +0.039 A 
ATOM     18  C   UNL     1       5.356  10.169   2.709  0.00  0.00    +0.125 A 
ATOM     19  C   UNL     1       6.521   9.835   2.044  0.00  0.00    +0.061 A 
ATOM     20  C   UNL     1       6.648   8.587   1.449  0.00  0.00    +0.041 A 
ATOM     21  F   UNL     1       5.239  11.383   3.291  0.00  0.00    -0.205 F 
BRANCH  20  22
ATOM     22  N   UNL     1       7.819   8.247   0.785  0.00  0.00    -0.357 N 
ATOM     23  H   UNL     1       7.943   7.345   0.452  0.00  0.00    +0.142 HD
ATOM     24  H   UNL     1       8.513   8.912   0.654  0.00  0.00    +0.142 HD
ENDBRANCH  20  22
ENDBRANCH  13  15
ENDBRANCH  12  13
ENDBRANCH  11  12
ENDBRANCH   8  11
ENDBRANCH   3   7
BRANCH   5  25
ATOM     25  S   UNL     1       1.024  -2.281  -0.012  0.00  0.00    +0.100 S 
ATOM     26  O   UNL     1      -0.178  -2.728  -0.625  0.00  0.00    -0.146 OA
ATOM     27  O   UNL     1       2.304  -2.747  -0.415  0.00  0.00    -0.146 OA
BRANCH  25  28
ATOM     28  N   UNL     1       0.884  -2.617   1.603  0.00  0.00    -0.118 NA
ATOM     29  C   UNL     1       0.840  -3.845   2.007  0.00  0.00    +0.117 C 
ATOM     30  C   UNL     1       0.923  -4.987   0.996  0.00  0.00    +0.073 C 
ATOM     31  C   UNL     1       2.260  -5.668   1.196  0.00  0.00    +0.008 C 
ATOM     32  C   UNL     1       2.225  -6.784   2.241  0.00  0.00    +0.002 C 
ATOM     33  C   UNL     1       1.427  -6.410   3.491  0.00  0.00    +0.019 C 
ATOM     34  C   UNL     1       1.697  -5.001   3.972  0.00  0.00    +0.102 C 
ATOM     35  N   UNL     1       0.729  -4.115   3.292  0.00  0.00    -0.331 N 
ATOM     36  H   UNL     1      -0.000  -3.728   3.802  0.00  0.00    +0.147 HD
ENDBRANCH  25  28
ENDBRANCH   5  25
TORSDOF 8
