REMARK  Name = ZINC58183482
REMARK  6 active torsions:
REMARK  status: ('A' for Active; 'I' for Inactive)
REMARK    1  A    between atoms: C_1  and  C_2
REMARK    2  A    between atoms: C_5  and  C_7
REMARK    3  A    between atoms: C_12  and  N_13
REMARK    4  A    between atoms: C_14  and  C_16
REMARK    5  A    between atoms: C_16  and  N_17
REMARK    6  A    between atoms: N_26  and  C_29
REMARK                            x       y       z     vdW  Elec       q    Type
REMARK                         _______ _______ _______ _____ _____    ______ ____
ROOT
ATOM      1  N   UNL     1      -0.028  -4.499  -0.816  0.00  0.00    -0.284 N 
ATOM      2  C   UNL     1       0.099  -5.734  -1.340  0.00  0.00    +0.235 C 
ATOM      3  O   UNL     1       0.048  -6.707  -0.618  0.00  0.00    -0.274 OA
ATOM      4  H   UNL     1      -0.055  -3.725  -1.400  0.00  0.00    +0.155 HD
ENDROOT
BRANCH   1  10
ATOM      5  C   UNL     1       0.459  -3.216   1.183  0.00  0.00    +0.060 A 
ATOM      6  C   UNL     1       0.355  -3.058   2.566  0.00  0.00    +0.015 A 
ATOM      7  C   UNL     1      -0.311  -4.003   3.318  0.00  0.00    +0.001 A 
ATOM      8  C   UNL     1      -0.878  -5.109   2.707  0.00  0.00    +0.002 A 
ATOM      9  C   UNL     1      -0.782  -5.278   1.339  0.00  0.00    +0.024 A 
ATOM     10  C   UNL     1      -0.121  -4.333   0.568  0.00  0.00    +0.046 A 
BRANCH   5  15
ATOM     11  C   UNL     1       3.062   0.823  -0.237  0.00  0.00    +0.111 C 
ATOM     12  C   UNL     1       2.291  -0.471  -0.243  0.00  0.00    +0.215 A 
ATOM     13  N   UNL     1       2.006  -1.192  -1.291  0.00  0.00    -0.112 NA
ATOM     14  N   UNL     1       1.338  -2.231  -0.930  0.00  0.00    -0.107 NA
ATOM     15  C   UNL     1       1.172  -2.208   0.372  0.00  0.00    +0.250 A 
ATOM     16  O   UNL     1       1.778  -1.095   0.832  0.00  0.00    -0.420 OA
ENDBRANCH   5  15
ENDBRANCH   1  10
BRANCH   2  17
ATOM     17  C   UNL     1       0.304  -5.906  -2.823  0.00  0.00    +0.214 C 
BRANCH  17  18
ATOM     18  N   UNL     1       0.412  -7.333  -3.138  0.00  0.00    -0.215 N 
ATOM     19  C   UNL     1       1.572  -8.021  -3.150  0.00  0.00    +0.247 C 
ATOM     20  O   UNL     1       2.681  -7.594  -2.911  0.00  0.00    -0.273 OA
ATOM     21  C   UNL     1       1.198  -9.437  -3.524  0.00  0.00    +0.115 C 
ATOM     22  C   UNL     1       1.570 -10.399  -2.401  0.00  0.00    +0.035 C 
ATOM     23  C   UNL     1       1.155 -11.822  -2.787  0.00  0.00    +0.003 C 
ATOM     24  C   UNL     1       1.863 -12.224  -4.083  0.00  0.00    +0.000 C 
ATOM     25  C   UNL     1       1.462 -11.264  -5.204  0.00  0.00    +0.003 C 
ATOM     26  C   UNL     1       1.877  -9.839  -4.828  0.00  0.00    +0.035 C 
ATOM     27  N   UNL     1      -0.260  -9.387  -3.697  0.00  0.00    -0.274 N 
ATOM     28  C   UNL     1      -0.629  -8.116  -3.446  0.00  0.00    +0.312 C 
ATOM     29  O   UNL     1      -1.779  -7.724  -3.495  0.00  0.00    -0.252 OA
ATOM     30  C   UNL     1      -1.138 -10.500  -4.065  0.00  0.00    +0.134 C 
ENDBRANCH  17  18
ENDBRANCH   2  17
TORSDOF 4
