REMARK  Name = ZINC59500430
REMARK  17 active torsions:
REMARK  status: ('A' for Active; 'I' for Inactive)
REMARK    1  A    between atoms: C_1  and  C_2
REMARK    2  A    between atoms: C_2  and  O_3
REMARK    3  A    between atoms: O_3  and  C_4
REMARK    4  A    between atoms: C_4  and  C_5
REMARK    5  A    between atoms: C_5  and  C_6
REMARK    6  A    between atoms: C_8  and  S_28
REMARK    7  A    between atoms: C_9  and  C_11
REMARK    8  A    between atoms: N_12  and  C_13
REMARK    9  A    between atoms: C_13  and  C_14
REMARK   10  A    between atoms: C_14  and  N_15
REMARK   11  A    between atoms: C_16  and  C_17
REMARK   12  A    between atoms: C_18  and  S_27
REMARK   13  A    between atoms: C_20  and  C_22
REMARK   14  A    between atoms: C_22  and  C_23
REMARK   15  A    between atoms: C_23  and  O_24
REMARK   16  A    between atoms: O_24  and  C_25
REMARK   17  A    between atoms: C_25  and  C_26
REMARK                            x       y       z     vdW  Elec       q    Type
REMARK                         _______ _______ _______ _____ _____    ______ ____
ROOT
ATOM      1  C   UNL     1      -0.451  -9.193  -4.635  0.00  0.00    +0.133 C 
ENDROOT
BRANCH   1   3
ATOM      2  C   UNL     1       0.065  -6.980  -3.878  0.00  0.00    +0.088 C 
ATOM      3  N   UNL     1       0.398  -8.235  -3.922  0.00  0.00    -0.388 N 
ATOM      4  H   UNL     1       1.208  -8.538  -3.484  0.00  0.00    +0.159 HD
BRANCH   2   8
ATOM      5  C   UNL     1       1.561  -3.749  -2.714  0.00  0.00    -0.006 A 
ATOM      6  S   UNL     1       2.814  -4.842  -2.069  0.00  0.00    -0.086 S 
ATOM      7  C   UNL     1       2.133  -6.399  -2.607  0.00  0.00    +0.051 A 
ATOM      8  C   UNL     1       0.967  -6.005  -3.261  0.00  0.00    +0.011 A 
ATOM      9  C   UNL     1       0.688  -4.590  -3.295  0.00  0.00    +0.021 A 
BRANCH   7  10
ATOM     10  S   UNL     1       2.772  -8.025  -2.372  0.00  0.00    -0.135 S 
ATOM     11  H   UNL     1       3.910  -7.830  -1.683  0.00  0.00    +0.108 HD
ENDBRANCH   7  10
BRANCH   5  12
ATOM     12  C   UNL     1       1.494  -2.247  -2.623  0.00  0.00    +0.070 C 
BRANCH  12  13
ATOM     13  C   UNL     1       0.748  -1.846  -1.349  0.00  0.00    +0.165 C 
BRANCH  13  14
ATOM     14  O   UNL     1       0.684  -0.421  -1.262  0.00  0.00    -0.380 OA
BRANCH  14  16
ATOM     15  C   UNL     1      -0.004   1.591  -0.114  0.00  0.00    +0.034 C 
ATOM     16  C   UNL     1       0.003   0.061  -0.102  0.00  0.00    +0.156 C 
ENDBRANCH  14  16
ENDBRANCH  13  14
ENDBRANCH  12  13
ENDBRANCH   5  12
ENDBRANCH   2   8
ENDBRANCH   1   3
BRANCH   1  17
ATOM     17  C   UNL     1       0.313  -9.758  -5.834  0.00  0.00    +0.133 C 
BRANCH  17  18
ATOM     18  N   UNL     1      -0.536 -10.716  -6.546  0.00  0.00    -0.388 N 
ATOM     19  C   UNL     1      -0.923 -10.464  -7.761  0.00  0.00    +0.088 C 
ATOM     20  H   UNL     1      -0.809 -11.540  -6.112  0.00  0.00    +0.159 HD
BRANCH  19  21
ATOM     21  C   UNL     1      -1.860 -11.366  -8.434  0.00  0.00    +0.011 A 
ATOM     22  C   UNL     1      -2.276 -12.560  -7.844  0.00  0.00    +0.051 A 
ATOM     23  S   UNL     1      -3.378 -13.228  -9.076  0.00  0.00    -0.086 S 
ATOM     24  C   UNL     1      -3.253 -11.937 -10.297  0.00  0.00    -0.006 A 
ATOM     25  C   UNL     1      -2.402 -11.061  -9.735  0.00  0.00    +0.021 A 
BRANCH  22  26
ATOM     26  S   UNL     1      -1.825 -13.235  -6.280  0.00  0.00    -0.135 S 
ATOM     27  H   UNL     1      -2.744 -12.736  -5.434  0.00  0.00    +0.108 HD
ENDBRANCH  22  26
BRANCH  24  28
ATOM     28  C   UNL     1      -3.940 -11.845 -11.635  0.00  0.00    +0.070 C 
BRANCH  28  29
ATOM     29  C   UNL     1      -3.066 -12.504 -12.704  0.00  0.00    +0.165 C 
BRANCH  29  30
ATOM     30  O   UNL     1      -3.718 -12.417 -13.973  0.00  0.00    -0.380 OA
BRANCH  30  31
ATOM     31  C   UNL     1      -2.982 -13.006 -15.046  0.00  0.00    +0.156 C 
ATOM     32  C   UNL     1      -3.770 -12.856 -16.349  0.00  0.00    +0.034 C 
ENDBRANCH  30  31
ENDBRANCH  29  30
ENDBRANCH  28  29
ENDBRANCH  24  28
ENDBRANCH  19  21
ENDBRANCH  17  18
ENDBRANCH   1  17
TORSDOF 15
