REMARK  Name = ZINC39638417
REMARK  10 active torsions:
REMARK  status: ('A' for Active; 'I' for Inactive)
REMARK    1  A    between atoms: C_1  and  O_2
REMARK    2  A    between atoms: O_2  and  C_3
REMARK    3  A    between atoms: C_7  and  C_11
REMARK    4  A    between atoms: C_8  and  O_9
REMARK    5  A    between atoms: O_9  and  C_10
REMARK    6  A    between atoms: C_11  and  N_12
REMARK    7  A    between atoms: C_13  and  C_15
REMARK    8  A    between atoms: C_26  and  C_28
REMARK    9  A    between atoms: C_28  and  O_29
REMARK   10  A    between atoms: O_29  and  C_30
REMARK                            x       y       z     vdW  Elec       q    Type
REMARK                         _______ _______ _______ _____ _____    ______ ____
ROOT
ATOM      1  C   UNL     1      -1.455  -6.469  -3.452  0.00  0.00    +0.100 C 
ATOM      2  C   UNL     1      -2.564  -6.236  -2.402  0.00  0.00    +0.121 C 
ATOM      3  N   UNL     1      -3.421  -7.442  -2.488  0.00  0.00    -0.297 N 
ATOM      4  C   UNL     1      -2.466  -8.560  -2.676  0.00  0.00    +0.115 C 
ATOM      5  C   UNL     1      -1.393  -7.996  -3.629  0.00  0.00    -0.004 C 
ATOM      6  C   UNL     1      -0.014  -8.517  -3.237  0.00  0.00    -0.010 C 
ATOM      7  C   UNL     1       0.043 -10.028  -3.477  0.00  0.00    -0.082 C 
ATOM      8  N   UNL     1      -0.227 -10.312  -4.892  0.00  0.00    +0.379 N 
ATOM      9  C   UNL     1      -1.590  -9.891  -5.236  0.00  0.00    -0.082 C 
ATOM     10  C   UNL     1      -1.716  -8.374  -5.071  0.00  0.00    -0.010 C 
ATOM     11  C   UNL     1      -4.765  -7.508  -2.413  0.00  0.00    +0.253 C 
ATOM     12  O   UNL     1      -5.326  -8.580  -2.501  0.00  0.00    -0.272 OA
ATOM     13  H   UNL     1       0.434  -9.809  -5.466  0.00  0.00    -0.086 HD
ATOM     14  H   UNL     1      -0.129 -11.302  -5.060  0.00  0.00    -0.086 HD
ENDROOT
BRANCH   1  16
ATOM     15  N   UNL     1       0.795  -5.511  -3.819  0.00  0.00    -0.311 N 
ATOM     16  C   UNL     1      -0.136  -5.945  -2.947  0.00  0.00    +0.218 C 
ATOM     17  O   UNL     1       0.088  -5.914  -1.755  0.00  0.00    -0.275 OA
ATOM     18  H   UNL     1       0.617  -5.537  -4.772  0.00  0.00    +0.149 HD
BRANCH  15  19
ATOM     19  C   UNL     1       2.078  -5.002  -3.328  0.00  0.00    +0.143 C 
BRANCH  19  24
ATOM     20  C   UNL     1       3.512  -2.978  -6.187  0.00  0.00    +0.162 A 
ATOM     21  C   UNL     1       4.509  -3.824  -6.645  0.00  0.00    +0.049 A 
ATOM     22  C   UNL     1       4.717  -5.044  -6.030  0.00  0.00    +0.004 A 
ATOM     23  C   UNL     1       3.930  -5.424  -4.958  0.00  0.00    +0.009 A 
ATOM     24  C   UNL     1       2.934  -4.585  -4.496  0.00  0.00    +0.015 A 
ATOM     25  C   UNL     1       2.724  -3.357  -5.104  0.00  0.00    +0.166 A 
BRANCH  20  27
ATOM     26  C   UNL     1       4.153  -1.453  -7.896  0.00  0.00    +0.277 C 
ATOM     27  O   UNL     1       3.307  -1.776  -6.791  0.00  0.00    -0.491 OA
ENDBRANCH  20  27
BRANCH  25  28
ATOM     28  O   UNL     1       1.748  -2.528  -4.648  0.00  0.00    -0.491 OA
ATOM     29  C   UNL     1       0.450  -2.675  -5.226  0.00  0.00    +0.277 C 
ENDBRANCH  25  28
ENDBRANCH  19  24
ENDBRANCH  15  19
ENDBRANCH   1  16
BRANCH  11  30
ATOM     30  C   UNL     1      -5.572  -6.250  -2.219  0.00  0.00    +0.324 C 
BRANCH  30  31
ATOM     31  O   UNL     1      -6.962  -6.578  -2.171  0.00  0.00    -0.483 OA
BRANCH  31  32
ATOM     32  C   UNL     1      -7.832  -5.549  -1.999  0.00  0.00    +0.123 A 
ATOM     33  C   UNL     1      -7.359  -4.249  -1.884  0.00  0.00    +0.046 A 
ATOM     34  C   UNL     1      -8.245  -3.205  -1.710  0.00  0.00    +0.005 A 
ATOM     35  C   UNL     1      -9.604  -3.452  -1.650  0.00  0.00    +0.020 A 
ATOM     36  C   UNL     1     -10.080  -4.747  -1.763  0.00  0.00    +0.044 A 
ATOM     37  C   UNL     1      -9.196  -5.795  -1.943  0.00  0.00    +0.065 A 
ATOM     38 CL   UNL     1     -11.787  -5.054  -1.686  0.00  0.00    -0.083 Cl
ENDBRANCH  31  32
ENDBRANCH  30  31
ENDBRANCH  11  30
TORSDOF 8
