REMARK  Name = ZINC63330584
REMARK  6 active torsions:
REMARK  status: ('A' for Active; 'I' for Inactive)
REMARK    1  A    between atoms: C_1  and  C_2
REMARK    2  A    between atoms: C_2  and  C_3
REMARK    3  A    between atoms: C_3  and  C_4
REMARK    4  A    between atoms: C_3  and  C_6
REMARK    5  A    between atoms: C_4  and  C_5
REMARK    6  A    between atoms: C_14  and  C_31
REMARK                            x       y       z     vdW  Elec       q    Type
REMARK                         _______ _______ _______ _____ _____    ______ ____
ROOT
ATOM      1  C   UNL     1       0.523  -1.933  -1.109  0.00  0.00    +0.220 C 
ATOM      2  O   UNL     1      -0.168  -2.369  -0.213  0.00  0.00    -0.275 OA
ATOM      3  N   UNL     1       1.128  -2.779  -1.967  0.00  0.00    -0.281 N 
ATOM      4  C   UNL     1       1.899  -2.239  -3.093  0.00  0.00    +0.113 C 
ATOM      5  C   UNL     1       1.349  -2.812  -4.412  0.00  0.00    +0.052 C 
ATOM      6  C   UNL     1       1.169  -4.295  -4.200  0.00  0.00    -0.034 C 
ATOM      7  C   UNL     1       1.597  -5.341  -4.895  0.00  0.00    -0.000 A 
ATOM      8  C   UNL     1       2.300  -5.441  -6.184  0.00  0.00    +0.013 A 
ATOM      9  C   UNL     1       2.616  -6.696  -6.599  0.00  0.00    -0.050 A 
ATOM     10  C   UNL     1       2.308  -7.848  -5.870  0.00  0.00    +0.005 A 
ATOM     11  C   UNL     1       1.653  -7.851  -4.681  0.00  0.00    +0.026 A 
ATOM     12  C   UNL     1       1.259  -6.590  -4.146  0.00  0.00    +0.043 A 
ATOM     13  N   UNL     1       0.606  -6.305  -3.058  0.00  0.00    -0.375 N 
ATOM     14  C   UNL     1       0.398  -4.857  -3.010  0.00  0.00    +0.143 C 
ATOM     15  C   UNL     1       1.013  -4.224  -1.759  0.00  0.00    +0.165 C 
ATOM     16  C   UNL     1       2.338  -4.834  -1.435  0.00  0.00    +0.008 A 
ATOM     17  C   UNL     1       3.515  -4.899  -2.149  0.00  0.00    +0.008 A 
ATOM     18  C   UNL     1       4.583  -5.555  -1.547  0.00  0.00    +0.000 A 
ATOM     19  C   UNL     1       4.468  -6.114  -0.291  0.00  0.00    +0.002 A 
ATOM     20  C   UNL     1       3.288  -6.053   0.433  0.00  0.00    +0.023 A 
ATOM     21  C   UNL     1       2.207  -5.397  -0.159  0.00  0.00    +0.039 A 
ATOM     22  N   UNL     1       0.929  -5.191   0.329  0.00  0.00    -0.283 N 
ATOM     23  C   UNL     1       0.157  -4.511  -0.545  0.00  0.00    +0.248 C 
ATOM     24  O   UNL     1      -1.002  -4.190  -0.387  0.00  0.00    -0.273 OA
ATOM     25  C   UNL     1       3.336  -6.854  -7.914  0.00  0.00    +0.044 C 
ATOM     26  H   UNL     1       0.623  -5.499   1.196  0.00  0.00    +0.155 HD
ATOM     27  H   UNL     1       0.307  -6.944  -2.392  0.00  0.00    +0.160 HD
ENDROOT
BRANCH   1  28
ATOM     28  C   UNL     1       0.704  -0.445  -1.264  0.00  0.00    +0.075 C 
BRANCH  28  30
ATOM     29  C   UNL     1      -0.175   1.607  -2.387  0.00  0.00    +0.004 C 
ATOM     30  C   UNL     1      -0.427   0.120  -2.126  0.00  0.00    +0.009 C 
ENDBRANCH  28  30
BRANCH  28  31
ATOM     31  C   UNL     1       0.676   0.219   0.114  0.00  0.00    +0.009 C 
ATOM     32  C   UNL     1       1.887  -0.243   0.927  0.00  0.00    +0.004 C 
ENDBRANCH  28  31
ENDBRANCH   1  28
TORSDOF 3
