REMARK  Name = ZINC08430608
REMARK  7 active torsions:
REMARK  status: ('A' for Active; 'I' for Inactive)
REMARK    1  A    between atoms: C_1  and  C_2
REMARK    2  A    between atoms: C_2  and  O_3
REMARK    3  A    between atoms: O_3  and  C_4
REMARK    4  A    between atoms: C_7  and  C_12
REMARK    5  A    between atoms: C_9  and  O_10
REMARK    6  A    between atoms: O_10  and  C_11
REMARK    7  A    between atoms: C_17  and  C_27
REMARK                            x       y       z     vdW  Elec       q    Type
REMARK                         _______ _______ _______ _____ _____    ______ ____
ROOT
ATOM      1  C   UNL     1      -2.379   0.774   0.620  0.00  0.00    +0.032 C 
ATOM      2  C   UNL     1      -2.370   0.006  -0.701  0.00  0.00    +0.059 C 
ATOM      3  C   UNL     1      -3.695  -0.712  -0.893  0.00  0.00    +0.017 C 
ATOM      4  C   UNL     1      -4.385  -1.169   0.167  0.00  0.00    +0.036 C 
ATOM      5  C   UNL     1      -5.700  -1.907   0.116  0.00  0.00    +0.136 C 
ATOM      6  N   UNL     1      -6.094  -2.346  -1.205  0.00  0.00    -0.331 N 
ATOM      7  C   UNL     1      -6.384  -1.425  -2.210  0.00  0.00    +0.049 A 
ATOM      8  C   UNL     1      -7.657  -1.313  -2.747  0.00  0.00    +0.025 A 
ATOM      9  C   UNL     1      -7.907  -0.350  -3.709  0.00  0.00    +0.002 A 
ATOM     10  C   UNL     1      -6.898   0.496  -4.131  0.00  0.00    +0.002 A 
ATOM     11  C   UNL     1      -5.621   0.375  -3.611  0.00  0.00    +0.025 A 
ATOM     12  C   UNL     1      -5.364  -0.602  -2.665  0.00  0.00    +0.052 A 
ATOM     13  N   UNL     1      -4.084  -0.854  -2.186  0.00  0.00    -0.316 N 
ATOM     14  C   UNL     1      -3.889  -0.971   1.477  0.00  0.00    +0.163 C 
ATOM     15  O   UNL     1      -4.523  -1.410   2.417  0.00  0.00    -0.292 OA
ATOM     16  C   UNL     1      -2.609  -0.239   1.748  0.00  0.00    +0.088 C 
ATOM     17  H   UNL     1      -6.158  -3.295  -1.394  0.00  0.00    +0.147 HD
ATOM     18  H   UNL     1      -3.418  -1.153  -2.824  0.00  0.00    +0.152 HD
ENDROOT
BRANCH   5  19
ATOM     19  C   UNL     1      -6.776  -1.001   0.658  0.00  0.00    -0.021 A 
ATOM     20  C   UNL     1      -7.081   0.178   0.005  0.00  0.00    +0.007 A 
ATOM     21  C   UNL     1      -8.071   1.007   0.498  0.00  0.00    +0.022 A 
ATOM     22  C   UNL     1      -8.751   0.662   1.652  0.00  0.00    +0.059 A 
ATOM     23  C   UNL     1      -8.442  -0.517   2.310  0.00  0.00    +0.060 A 
ATOM     24  C   UNL     1      -7.454  -1.348   1.812  0.00  0.00    +0.027 A 
ATOM     25 CL   UNL     1      -9.294  -0.952   3.758  0.00  0.00    -0.082 Cl
ATOM     26 CL   UNL     1      -9.990   1.705   2.275  0.00  0.00    -0.082 Cl
ENDBRANCH   5  19
BRANCH   1  30
ATOM     27  C   UNL     1       1.382   2.734   1.173  0.00  0.00    +0.162 A 
ATOM     28  C   UNL     1       1.331   1.359   1.014  0.00  0.00    +0.050 A 
ATOM     29  C   UNL     1       0.113   0.728   0.839  0.00  0.00    +0.008 A 
ATOM     30  C   UNL     1      -1.055   1.467   0.817  0.00  0.00    -0.040 A 
ATOM     31  C   UNL     1      -1.012   2.839   0.980  0.00  0.00    +0.053 A 
ATOM     32  C   UNL     1       0.205   3.477   1.155  0.00  0.00    +0.162 A 
BRANCH  32  33
ATOM     33  O   UNL     1       0.250   4.828   1.311  0.00  0.00    -0.491 OA
ATOM     34  C   UNL     1      -0.996   5.526   1.283  0.00  0.00    +0.277 C 
ENDBRANCH  32  33
BRANCH  27  35
ATOM     35  O   UNL     1       2.579   3.356   1.345  0.00  0.00    -0.489 OA
BRANCH  35  37
ATOM     36  C   UNL     1       4.986   3.401   1.555  0.00  0.00    +0.048 C 
ATOM     37  C   UNL     1       3.744   2.530   1.351  0.00  0.00    +0.226 C 
ENDBRANCH  35  37
ENDBRANCH  27  35
ENDBRANCH   1  30
TORSDOF 5
