REMARK  Name = ZINC38952156
REMARK  9 active torsions:
REMARK  status: ('A' for Active; 'I' for Inactive)
REMARK    1  A    between atoms: C_1  and  C_2
REMARK    2  A    between atoms: C_2  and  C_3
REMARK    3  A    between atoms: C_3  and  C_5
REMARK    4  A    between atoms: C_3  and  N_16
REMARK    5  A    between atoms: N_10  and  C_11
REMARK    6  A    between atoms: N_16  and  C_17
REMARK    7  A    between atoms: N_16  and  C_31
REMARK    8  A    between atoms: C_17  and  C_18
REMARK    9  A    between atoms: C_23  and  C_30
REMARK                            x       y       z     vdW  Elec       q    Type
REMARK                         _______ _______ _______ _____ _____    ______ ____
ROOT
ATOM      1  N   UNL     1       0.006  -0.720   1.869  0.00  0.00    +0.386 N 
ATOM      2  H   UNL     1      -0.920  -1.083   2.037  0.00  0.00    -0.081 HD
ENDROOT
BRANCH   1   3
ATOM      3  C   UNL     1      -0.044   0.747   1.818  0.00  0.00    -0.068 C 
ATOM      4  C   UNL     1      -0.511   1.307   3.177  0.00  0.00    -0.015 C 
ATOM      5  C   UNL     1      -1.399   2.520   2.804  0.00  0.00    -0.002 C 
ATOM      6  C   UNL     1      -2.141   2.024   1.538  0.00  0.00    -0.002 C 
ATOM      7  C   UNL     1      -1.081   1.203   0.775  0.00  0.00    -0.015 C 
ENDBRANCH   1   3
BRANCH   1   8
ATOM      8  C   UNL     1       0.509  -1.237   0.589  0.00  0.00    -0.025 C 
BRANCH   8   9
ATOM      9  C   UNL     1      -0.289  -0.618  -0.560  0.00  0.00    +0.204 C 
ATOM     10  N   UNL     1       0.124  -1.202  -1.844  0.00  0.00    -0.152 NA
ATOM     11  N   UNL     1      -0.846  -1.762  -2.358  0.00  0.00    -0.070 NA
ATOM     12  N   UNL     1      -2.000  -1.670  -1.581  0.00  0.00    -0.179 N 
ATOM     13  N   UNL     1      -1.721  -0.962  -0.438  0.00  0.00    -0.185 NA
ATOM     14  H   UNL     1      -2.864  -2.045  -1.811  0.00  0.00    +0.191 HD
BRANCH  13  15
ATOM     15  C   UNL     1      -1.966  -1.777   0.760  0.00  0.00    +0.080 C 
ATOM     16  C   UNL     1      -0.906  -2.893   0.866  0.00  0.00    +0.021 C 
ATOM     17  C   UNL     1      -1.690  -4.110   1.418  0.00  0.00    +0.002 C 
ATOM     18  C   UNL     1      -3.054  -3.994   0.695  0.00  0.00    +0.002 C 
ATOM     19  C   UNL     1      -3.332  -2.477   0.651  0.00  0.00    +0.021 C 
ENDBRANCH  13  15
ENDBRANCH   8   9
BRANCH   8  21
ATOM     20  C   UNL     1       2.536  -1.492  -0.850  0.00  0.00    +0.002 C 
ATOM     21  C   UNL     1       1.988  -0.873   0.437  0.00  0.00    -0.015 C 
ENDBRANCH   8  21
ENDBRANCH   1   8
BRANCH   1  22
ATOM     22  C   UNL     1       0.903  -1.142   2.953  0.00  0.00    -0.061 C 
BRANCH  22  23
ATOM     23  C   UNL     1       0.199  -0.953   4.299  0.00  0.00    +0.082 C 
ATOM     24  C   UNL     1       1.114  -1.492   5.381  0.00  0.00    -0.007 C 
ATOM     25  C   UNL     1       0.624  -2.484   6.177  0.00  0.00    -0.007 A 
ATOM     26  C   UNL     1       1.440  -3.061   7.246  0.00  0.00    +0.012 A 
ATOM     27  C   UNL     1       0.910  -4.049   8.014  0.00  0.00    -0.050 A 
ATOM     28  C   UNL     1      -0.387  -4.517   7.801  0.00  0.00    +0.005 A 
ATOM     29  C   UNL     1      -1.194  -4.024   6.826  0.00  0.00    +0.024 A 
ATOM     30  C   UNL     1      -0.742  -2.998   5.976  0.00  0.00    +0.040 A 
ATOM     31  N   UNL     1      -1.543  -2.522   5.023  0.00  0.00    -0.285 N 
ATOM     32  C   UNL     1      -1.181  -1.562   4.190  0.00  0.00    +0.222 C 
ATOM     33  O   UNL     1      -1.956  -1.168   3.339  0.00  0.00    -0.275 OA
ATOM     34  C   UNL     1       1.741  -4.651   9.117  0.00  0.00    +0.044 C 
ATOM     35  H   UNL     1      -2.433  -2.898   4.936  0.00  0.00    +0.155 HD
ENDBRANCH  22  23
ENDBRANCH   1  22
TORSDOF 7
