REMARK  Name = ZINC67332425
REMARK  7 active torsions:
REMARK  status: ('A' for Active; 'I' for Inactive)
REMARK    1  A    between atoms: C_2  and  C_10
REMARK    2  A    between atoms: C_5  and  S_6
REMARK    3  A    between atoms: S_6  and  N_9
REMARK    4  A    between atoms: N_12  and  C_13
REMARK    5  A    between atoms: C_13  and  C_14
REMARK    6  A    between atoms: N_19  and  C_20
REMARK    7  A    between atoms: C_20  and  C_21
REMARK                            x       y       z     vdW  Elec       q    Type
REMARK                         _______ _______ _______ _____ _____    ______ ____
ROOT
ATOM      1  C   UNL     1       1.404   3.454   0.007  0.00  0.00    +0.245 C 
ATOM      2  O   UNL     1       0.408   4.153   0.020  0.00  0.00    -0.270 OA
ATOM      3  N   UNL     1       2.626   4.023  -0.002  0.00  0.00    -0.313 N 
ATOM      4  H   UNL     1       3.420   3.466  -0.012  0.00  0.00    +0.149 HD
ENDROOT
BRANCH   1   6
ATOM      5  C   UNL     1      -0.016   1.344   0.009  0.00  0.00    +0.049 A 
ATOM      6  C   UNL     1       1.275   1.988   0.001  0.00  0.00    +0.046 A 
ATOM      7  C   UNL     1       2.380   1.167  -0.014  0.00  0.00    +0.060 A 
ATOM      8  S   UNL     1       1.741  -0.384  -0.017  0.00  0.00    -0.076 S 
ATOM      9  C   UNL     1       0.002  -0.004   0.002  0.00  0.00    +0.143 A 
BRANCH   9  10
ATOM     10  S   UNL     1      -1.363  -1.118   0.010  0.00  0.00    +0.062 S 
ATOM     11  O   UNL     1      -0.884  -2.343   0.549  0.00  0.00    -0.153 OA
ATOM     12  O   UNL     1      -2.459  -0.413   0.575  0.00  0.00    -0.153 OA
BRANCH  10  13
ATOM     13  N   UNL     1      -1.758  -1.419  -1.570  0.00  0.00    -0.203 NA
ATOM     14  H   UNL     1      -2.144  -2.274  -1.819  0.00  0.00    +0.144 HD
ATOM     15  H   UNL     1      -1.603  -0.742  -2.247  0.00  0.00    +0.144 HD
ENDBRANCH  10  13
ENDBRANCH   9  10
ENDBRANCH   1   6
BRANCH   3  16
ATOM     16  C   UNL     1       2.755   5.482   0.004  0.00  0.00    +0.089 C 
BRANCH  16  17
ATOM     17  C   UNL     1       4.237   5.864  -0.008  0.00  0.00    -0.051 C 
ATOM     18  C   UNL     1       4.384   7.391  -0.172  0.00  0.00    -0.016 C 
ATOM     19  C   UNL     1       5.617   7.525  -1.104  0.00  0.00    -0.020 C 
ATOM     20  C   UNL     1       5.439   6.300  -2.036  0.00  0.00    -0.078 C 
ATOM     21  N   UNL     1       4.908   5.231  -1.158  0.00  0.00    +0.383 N 
ATOM     22  H   UNL     1       4.246   4.667  -1.669  0.00  0.00    -0.081 HD
BRANCH  21  23
ATOM     23  C   UNL     1       6.011   4.385  -0.682  0.00  0.00    -0.075 C 
BRANCH  23  24
ATOM     24  C   UNL     1       6.625   3.634  -1.865  0.00  0.00    -0.028 C 
ATOM     25  C   UNL     1       5.592   2.665  -2.445  0.00  0.00    +0.002 C 
ATOM     26  C   UNL     1       6.206   1.914  -3.628  0.00  0.00    +0.000 C 
ATOM     27  C   UNL     1       7.432   1.130  -3.154  0.00  0.00    +0.000 C 
ATOM     28  C   UNL     1       8.464   2.099  -2.574  0.00  0.00    +0.000 C 
ATOM     29  C   UNL     1       7.850   2.850  -1.391  0.00  0.00    +0.002 C 
ENDBRANCH  23  24
ENDBRANCH  21  23
ENDBRANCH  16  17
ENDBRANCH   3  16
TORSDOF 7
