REMARK  Name = ZINC22502561
REMARK  4 active torsions:
REMARK  status: ('A' for Active; 'I' for Inactive)
REMARK    1  A    between atoms: C_8  and  C_13
REMARK    2  A    between atoms: C_13  and  C_14
REMARK    3  A    between atoms: C_14  and  C_15
REMARK    4  A    between atoms: N_23  and  C_24
REMARK                            x       y       z     vdW  Elec       q    Type
REMARK                         _______ _______ _______ _____ _____    ______ ____
ROOT
ATOM      1  C   UNL     1       2.304   1.073  -0.091  0.00  0.00    +0.233 C 
ATOM      2  O   UNL     1       3.351   1.678  -0.015  0.00  0.00    -0.272 OA
ATOM      3  N   UNL     1       1.141   1.747  -0.185  0.00  0.00    -0.274 N 
ATOM      4  C   UNL     1      -0.043   1.061  -0.271  0.00  0.00    +0.096 A 
ATOM      5  C   UNL     1      -1.213   1.720  -0.371  0.00  0.00    +0.018 A 
ATOM      6  C   UNL     1      -1.244   3.127  -0.379  0.00  0.00    +0.005 A 
ATOM      7  C   UNL     1      -0.084   3.828  -0.295  0.00  0.00    +0.044 A 
ATOM      8  C   UNL     1       1.144   3.129  -0.196  0.00  0.00    +0.114 A 
ATOM      9  N   UNL     1       2.277   3.789  -0.114  0.00  0.00    -0.368 N 
ATOM     10  H   UNL     1       3.233   3.245  -0.136  0.00  0.00    +0.161 HD
ENDROOT
BRANCH   9  11
ATOM     11  C   UNL     1       2.267   5.249   0.009  0.00  0.00    +0.081 C 
ATOM     12  C   UNL     1       3.120   5.859  -1.105  0.00  0.00    +0.024 C 
ATOM     13  C   UNL     1       3.110   7.384  -0.977  0.00  0.00    +0.002 C 
ATOM     14  C   UNL     1       3.682   7.786   0.383  0.00  0.00    +0.000 C 
ATOM     15  C   UNL     1       2.829   7.176   1.496  0.00  0.00    +0.002 C 
ATOM     16  C   UNL     1       2.839   5.651   1.369  0.00  0.00    +0.024 C 
ENDBRANCH   9  11
BRANCH   1  17
ATOM     17  C   UNL     1       2.302  -0.434  -0.079  0.00  0.00    +0.100 C 
BRANCH  17  18
ATOM     18  C   UNL     1       3.740  -0.945   0.035  0.00  0.00    +0.022 C 
BRANCH  18  26
ATOM     19  C   UNL     1       2.779  -6.798  -1.705  0.00  0.00    +0.000 A 
ATOM     20  C   UNL     1       3.918  -7.306  -1.107  0.00  0.00    +0.002 A 
ATOM     21  C   UNL     1       4.820  -6.454  -0.501  0.00  0.00    +0.023 A 
ATOM     22  C   UNL     1       4.582  -5.085  -0.492  0.00  0.00    +0.037 A 
ATOM     23  C   UNL     1       3.445  -4.578  -1.103  0.00  0.00    -0.025 A 
ATOM     24  C   UNL     1       2.543  -5.435  -1.704  0.00  0.00    +0.005 A 
ATOM     25  C   UNL     1       3.192  -3.092  -1.115  0.00  0.00    +0.049 C 
ATOM     26  C   UNL     1       3.731  -2.469   0.173  0.00  0.00    +0.080 C 
ATOM     27  C   UNL     1       5.132  -2.957   0.427  0.00  0.00    +0.221 C 
ATOM     28  O   UNL     1       5.958  -2.197   0.888  0.00  0.00    -0.275 OA
ATOM     29  N   UNL     1       5.477  -4.226   0.151  0.00  0.00    -0.285 N 
ATOM     30  H   UNL     1       6.476  -4.586   0.438  0.00  0.00    +0.155 HD
ENDBRANCH  18  26
ENDBRANCH  17  18
ENDBRANCH   1  17
TORSDOF 4
