REMARK  Name = ZINC13499650
REMARK  13 active torsions:
REMARK  status: ('A' for Active; 'I' for Inactive)
REMARK    1  A    between atoms: C_1  and  C_2
REMARK    2  A    between atoms: C_2  and  C_3
REMARK    3  A    between atoms: C_3  and  C_4
REMARK    4  A    between atoms: C_4  and  C_6
REMARK    5  A    between atoms: C_4  and  N_69
REMARK    6  A    between atoms: N_10  and  C_11
REMARK    7  A    between atoms: C_17  and  C_18
REMARK    8  A    between atoms: C_17  and  N_69
REMARK    9  A    between atoms: C_18  and  O_19
REMARK   10  A    between atoms: C_20  and  C_21
REMARK   11  A    between atoms: C_20  and  N_69
REMARK   12  A    between atoms: C_26  and  C_34
REMARK   13  A    between atoms: C_27  and  C_33
REMARK                            x       y       z     vdW  Elec       q    Type
REMARK                         _______ _______ _______ _____ _____    ______ ____
ROOT
ATOM      1  N   UNL     1      -0.513   2.241   2.039  0.00  0.00    +0.391 N 
ATOM      2  H   UNL     1      -0.616   3.255   2.167  0.00  0.00    -0.080 HD
ENDROOT
BRANCH   1   3
ATOM      3  C   UNL     1       0.663   1.777   2.805  0.00  0.00    +0.003 C 
BRANCH   3   4
ATOM      4  C   UNL     1       1.726   2.844   2.748  0.00  0.00    +0.138 A 
ATOM      5  N   UNL     1       2.117   3.502   1.685  0.00  0.00    -0.115 NA
ATOM      6  N   UNL     1       3.041   4.325   2.044  0.00  0.00    -0.023 NA
ATOM      7  N   UNL     1       3.249   4.209   3.309  0.00  0.00    -0.044 NA
ATOM      8  N   UNL     1       2.454   3.309   3.781  0.00  0.00    -0.228 N 
BRANCH   8   9
ATOM      9  C   UNL     1       2.362   2.873   5.176  0.00  0.00    +0.111 C 
ATOM     10  C   UNL     1       1.982   4.063   6.059  0.00  0.00    +0.027 C 
ATOM     11  C   UNL     1       1.887   3.608   7.516  0.00  0.00    +0.002 C 
ATOM     12  C   UNL     1       3.239   3.050   7.966  0.00  0.00    +0.000 C 
ATOM     13  C   UNL     1       3.619   1.859   7.083  0.00  0.00    +0.002 C 
ATOM     14  C   UNL     1       3.714   2.315   5.626  0.00  0.00    +0.027 C 
ENDBRANCH   8   9
ENDBRANCH   3   4
BRANCH   3  15
ATOM     15  C   UNL     1       1.210   0.478   2.209  0.00  0.00    -0.008 C 
BRANCH  15  17
ATOM     16  C   UNL     1       0.754  -1.954   1.871  0.00  0.00    +0.004 C 
ATOM     17  C   UNL     1       0.157  -0.624   2.334  0.00  0.00    -0.005 C 
ENDBRANCH  15  17
ENDBRANCH   3  15
ENDBRANCH   1   3
BRANCH   1  18
ATOM     18  C   UNL     1      -0.323   1.956   0.601  0.00  0.00    -0.049 C 
BRANCH  18  19
ATOM     19  C   UNL     1      -1.288   2.829  -0.204  0.00  0.00    +0.137 C 
BRANCH  19  20
ATOM     20  O   UNL     1      -0.989   4.207   0.027  0.00  0.00    -0.397 OA
ATOM     21  H   UNL     1      -1.563   4.819  -0.453  0.00  0.00    +0.209 HD
ENDBRANCH  19  20
ENDBRANCH  18  19
ENDBRANCH   1  18
BRANCH   1  22
ATOM     22  C   UNL     1      -1.734   1.569   2.530  0.00  0.00    -0.036 C 
BRANCH  22  23
ATOM     23  C   UNL     1      -2.137   2.196   3.840  0.00  0.00    +0.001 A 
ATOM     24  C   UNL     1      -3.017   3.228   3.852  0.00  0.00    +0.017 A 
ATOM     25  C   UNL     1      -3.391   3.812   5.141  0.00  0.00    -0.001 A 
ATOM     26  C   UNL     1      -4.298   4.875   5.218  0.00  0.00    +0.010 A 
ATOM     27  C   UNL     1      -4.623   5.401   6.436  0.00  0.00    +0.004 A 
ATOM     28  C   UNL     1      -4.061   4.891   7.599  0.00  0.00    -0.046 A 
ATOM     29  C   UNL     1      -3.166   3.844   7.547  0.00  0.00    -0.024 A 
ATOM     30  C   UNL     1      -2.820   3.292   6.318  0.00  0.00    +0.052 A 
ATOM     31  N   UNL     1      -1.927   2.245   6.237  0.00  0.00    -0.322 N 
ATOM     32  H   UNL     1      -1.534   1.887   7.048  0.00  0.00    +0.169 HD
ATOM     33  C   UNL     1      -1.593   1.712   5.048  0.00  0.00    +0.251 A 
ATOM     34  O   UNL     1      -0.801   0.786   5.014  0.00  0.00    -0.268 OA
ATOM     35  C   UNL     1      -2.564   3.300   8.817  0.00  0.00    +0.046 C 
ATOM     36  C   UNL     1      -4.434   5.487   8.931  0.00  0.00    +0.044 C 
ENDBRANCH  22  23
ENDBRANCH   1  22
TORSDOF 10
