REMARK  Name = ZINC13500078
REMARK  15 active torsions:
REMARK  status: ('A' for Active; 'I' for Inactive)
REMARK    1  A    between atoms: C_1  and  C_2
REMARK    2  A    between atoms: C_2  and  C_3
REMARK    3  A    between atoms: C_3  and  C_4
REMARK    4  A    between atoms: C_4  and  C_6
REMARK    5  A    between atoms: C_4  and  N_77
REMARK    6  A    between atoms: N_10  and  C_11
REMARK    7  A    between atoms: C_11  and  C_12
REMARK    8  A    between atoms: C_11  and  C_13
REMARK    9  A    between atoms: C_11  and  C_14
REMARK   10  A    between atoms: C_14  and  C_15
REMARK   11  A    between atoms: C_16  and  C_17
REMARK   12  A    between atoms: C_16  and  N_77
REMARK   13  A    between atoms: C_21  and  C_30
REMARK   14  A    between atoms: C_23  and  C_29
REMARK   15  A    between atoms: C_31  and  N_77
REMARK                            x       y       z     vdW  Elec       q    Type
REMARK                         _______ _______ _______ _____ _____    ______ ____
ROOT
ATOM      1  N   UNL     1      -3.040   0.149  -0.944  0.00  0.00    +0.391 N 
ATOM      2  H   UNL     1      -2.146  -0.266  -0.657  0.00  0.00    -0.080 HD
ENDROOT
BRANCH   1   3
ATOM      3  C   UNL     1      -2.784   1.176  -1.976  0.00  0.00    -0.067 C 
ATOM      4  C   UNL     1      -4.103   1.720  -2.530  0.00  0.00    -0.015 C 
ATOM      5  C   UNL     1      -3.810   2.777  -3.596  0.00  0.00    -0.002 C 
ATOM      6  C   UNL     1      -3.002   2.146  -4.732  0.00  0.00    -0.000 C 
ATOM      7  C   UNL     1      -1.684   1.601  -4.179  0.00  0.00    -0.002 C 
ATOM      8  C   UNL     1      -1.976   0.544  -3.112  0.00  0.00    -0.015 C 
ENDBRANCH   1   3
BRANCH   1   9
ATOM      9  C   UNL     1      -3.909  -0.913  -1.492  0.00  0.00    +0.003 C 
BRANCH   9  10
ATOM     10  C   UNL     1      -5.346  -0.461  -1.512  0.00  0.00    +0.139 A 
ATOM     11  N   UNL     1      -5.949   0.270  -0.607  0.00  0.00    -0.115 NA
ATOM     12  N   UNL     1      -7.169   0.443  -0.984  0.00  0.00    -0.023 NA
ATOM     13  N   UNL     1      -7.362  -0.166  -2.102  0.00  0.00    -0.043 NA
ATOM     14  N   UNL     1      -6.261  -0.736  -2.460  0.00  0.00    -0.225 N 
BRANCH  14  15
ATOM     15  C   UNL     1      -6.048  -1.532  -3.672  0.00  0.00    +0.061 C 
ATOM     16  C   UNL     1      -5.083  -0.795  -4.603  0.00  0.00    +0.036 C 
ATOM     17  C   UNL     1      -5.454  -2.889  -3.291  0.00  0.00    +0.036 C 
BRANCH  15  18
ATOM     18  C   UNL     1      -7.385  -1.742  -4.386  0.00  0.00    +0.026 C 
ATOM     19  C   UNL     1      -7.163  -2.573  -5.650  0.00  0.00    +0.006 C 
ENDBRANCH  15  18
ENDBRANCH  14  15
ENDBRANCH   9  10
BRANCH   9  20
ATOM     20  C   UNL     1      -3.777  -2.157  -0.611  0.00  0.00    -0.008 C 
BRANCH  20  22
ATOM     21  C   UNL     1      -2.247  -4.005   0.085  0.00  0.00    +0.004 C 
ATOM     22  C   UNL     1      -2.347  -2.694  -0.696  0.00  0.00    -0.005 C 
ENDBRANCH  20  22
ENDBRANCH   9  20
ENDBRANCH   1   9
BRANCH   1  23
ATOM     23  C   UNL     1      -3.682   0.768   0.235  0.00  0.00    -0.036 C 
BRANCH  23  24
ATOM     24  C   UNL     1      -2.640   1.540   1.004  0.00  0.00    +0.001 A 
ATOM     25  C   UNL     1      -2.635   2.895   0.959  0.00  0.00    +0.017 A 
ATOM     26  C   UNL     1      -1.605   3.615   1.711  0.00  0.00    -0.001 A 
ATOM     27  C   UNL     1      -1.544   5.013   1.698  0.00  0.00    +0.013 A 
ATOM     28  C   UNL     1      -0.571   5.654   2.410  0.00  0.00    -0.050 A 
ATOM     29  C   UNL     1       0.358   4.932   3.147  0.00  0.00    +0.008 A 
ATOM     30  C   UNL     1       0.317   3.555   3.175  0.00  0.00    -0.026 A 
ATOM     31  C   UNL     1      -0.665   2.879   2.457  0.00  0.00    +0.052 A 
ATOM     32  N   UNL     1      -0.729   1.502   2.466  0.00  0.00    -0.322 N 
ATOM     33  H   UNL     1      -0.081   0.997   2.980  0.00  0.00    +0.169 HD
ATOM     34  C   UNL     1      -1.678   0.850   1.772  0.00  0.00    +0.251 A 
ATOM     35  O   UNL     1      -1.705  -0.368   1.802  0.00  0.00    -0.268 OA
ATOM     36  C   UNL     1       1.331   2.784   3.979  0.00  0.00    +0.046 C 
ATOM     37  C   UNL     1      -0.505   7.160   2.395  0.00  0.00    +0.044 C 
ENDBRANCH  23  24
ENDBRANCH   1  23
TORSDOF 9
