REMARK  Name = ZINC39884104
REMARK  8 active torsions:
REMARK  status: ('A' for Active; 'I' for Inactive)
REMARK    1  A    between atoms: C_1  and  C_2
REMARK    2  A    between atoms: C_2  and  C_3
REMARK    3  A    between atoms: C_2  and  C_4
REMARK    4  A    between atoms: C_2  and  C_5
REMARK    5  A    between atoms: C_8  and  C_11
REMARK    6  A    between atoms: N_15  and  C_19
REMARK    7  A    between atoms: C_19  and  C_20
REMARK    8  A    between atoms: N_22  and  C_23
REMARK                            x       y       z     vdW  Elec       q    Type
REMARK                         _______ _______ _______ _____ _____    ______ ____
ROOT
ATOM      1  C   UNL     1       2.695  -2.042  -4.700  0.00  0.00    +0.072 C 
ATOM      2  C   UNL     1       3.985  -2.719  -4.327  0.00  0.00    +0.033 A 
ATOM      3  C   UNL     1       5.245  -2.233  -4.341  0.00  0.00    +0.091 A 
ATOM      4  N   UNL     1       6.215  -3.125  -3.957  0.00  0.00    -0.288 N 
ATOM      5  C   UNL     1       5.873  -4.374  -3.588  0.00  0.00    +0.292 A 
ATOM      6  O   UNL     1       6.601  -5.279  -3.219  0.00  0.00    -0.259 OA
ATOM      7  S   UNL     1       4.200  -4.385  -3.757  0.00  0.00    -0.030 S 
ATOM      8  S   UNL     1       5.578  -0.542  -4.816  0.00  0.00    -0.093 S 
ATOM      9  C   UNL     1       3.900   0.139  -4.759  0.00  0.00    +0.153 C 
ATOM     10  C   UNL     1       3.015  -0.856  -5.570  0.00  0.00    +0.112 C 
ATOM     11  C   UNL     1       1.925   0.051  -6.036  0.00  0.00    +0.245 C 
ATOM     12  O   UNL     1       0.668  -0.303  -6.346  0.00  0.00    -0.273 OA
ATOM     13  N   UNL     1       2.432   1.269  -6.083  0.00  0.00    -0.145 NA
ATOM     14  C   UNL     1       3.692   1.383  -5.580  0.00  0.00    +0.253 C 
ATOM     15  O   UNL     1       4.484   2.286  -5.759  0.00  0.00    -0.272 OA
ENDROOT
BRANCH   1  19
ATOM     16  C   UNL     1       0.686  -0.733  -1.164  0.00  0.00    -0.042 A 
ATOM     17  C   UNL     1      -0.046  -1.138  -2.265  0.00  0.00    +0.004 A 
ATOM     18  C   UNL     1       0.605  -1.561  -3.409  0.00  0.00    +0.004 A 
ATOM     19  C   UNL     1       1.986  -1.579  -3.453  0.00  0.00    -0.039 A 
ATOM     20  C   UNL     1       2.717  -1.174  -2.352  0.00  0.00    +0.004 A 
ATOM     21  C   UNL     1       2.067  -0.747  -1.209  0.00  0.00    +0.004 A 
BRANCH  16  23
ATOM     22  C   UNL     1       0.371   1.175   0.388  0.00  0.00    +0.015 C 
ATOM     23  C   UNL     1      -0.023  -0.272   0.083  0.00  0.00    -0.013 C 
ATOM     24  C   UNL     1       0.376  -1.167   1.258  0.00  0.00    +0.015 C 
ATOM     25  C   UNL     1      -1.536  -0.354  -0.130  0.00  0.00    +0.015 C 
ENDBRANCH  16  23
ENDBRANCH   1  19
BRANCH   4  26
ATOM     26  C   UNL     1       7.623  -2.718  -3.950  0.00  0.00    +0.222 C 
BRANCH  26  27
ATOM     27  C   UNL     1       7.973  -2.143  -2.601  0.00  0.00    +0.237 C 
ATOM     28  O   UNL     1       7.129  -2.080  -1.732  0.00  0.00    -0.274 OA
ATOM     29  N   UNL     1       9.222  -1.700  -2.361  0.00  0.00    -0.284 N 
ATOM     30  H   UNL     1       9.876  -1.680  -3.078  0.00  0.00    +0.155 HD
BRANCH  29  31
ATOM     31  C   UNL     1       9.578  -1.269  -1.078  0.00  0.00    +0.033 A 
ATOM     32  C   UNL     1      10.492  -0.236  -0.919  0.00  0.00    +0.023 A 
ATOM     33  C   UNL     1      10.840   0.187   0.349  0.00  0.00    +0.002 A 
ATOM     34  C   UNL     1      10.280  -0.417   1.459  0.00  0.00    +0.000 A 
ATOM     35  C   UNL     1       9.369  -1.447   1.304  0.00  0.00    +0.002 A 
ATOM     36  C   UNL     1       9.012  -1.870   0.039  0.00  0.00    +0.023 A 
ENDBRANCH  29  31
ENDBRANCH  26  27
ENDBRANCH   4  26
TORSDOF 5
