REMARK  Name = ZINC53055755
REMARK  7 active torsions:
REMARK  status: ('A' for Active; 'I' for Inactive)
REMARK    1  A    between atoms: C_1  and  O_2
REMARK    2  A    between atoms: O_2  and  C_3
REMARK    3  A    between atoms: C_9  and  C_13
REMARK    4  A    between atoms: N_16  and  C_19
REMARK    5  A    between atoms: C_19  and  C_20
REMARK    6  A    between atoms: N_22  and  C_23
REMARK    7  A    between atoms: C_24  and  C_28
REMARK                            x       y       z     vdW  Elec       q    Type
REMARK                         _______ _______ _______ _____ _____    ______ ____
ROOT
ATOM      1  C   UNL     1      -2.016  -5.255   0.009  0.00  0.00    -0.046 C 
ATOM      2  C   UNL     1      -1.399  -5.578  -1.109  0.00  0.00    -0.041 C 
ATOM      3  C   UNL     1      -0.480  -6.760  -1.222  0.00  0.00    -0.050 C 
ATOM      4  N   UNL     1      -0.046  -7.200   0.109  0.00  0.00    +0.388 N 
ATOM      5  C   UNL     1      -1.232  -7.408   0.955  0.00  0.00    -0.073 C 
ATOM      6  C   UNL     1      -1.843  -6.041   1.280  0.00  0.00    +0.017 C 
ATOM      7  H   UNL     1       0.544  -6.494   0.522  0.00  0.00    -0.081 HD
ENDROOT
BRANCH   1  14
ATOM      8  C   UNL     1      -1.201  -0.638   0.010  0.00  0.00    +0.121 A 
ATOM      9  C   UNL     1      -2.377   0.107   0.019  0.00  0.00    +0.047 A 
ATOM     10  C   UNL     1      -3.603  -0.520   0.027  0.00  0.00    +0.030 A 
ATOM     11  C   UNL     1      -3.674  -1.910   0.026  0.00  0.00    +0.047 A 
ATOM     12  C   UNL     1      -2.488  -2.662   0.016  0.00  0.00    +0.010 A 
ATOM     13  C   UNL     1      -1.252  -2.018   0.003  0.00  0.00    +0.056 A 
ATOM     14  C   UNL     1      -2.903  -4.075   0.017  0.00  0.00    +0.003 A 
ATOM     15  C   UNL     1      -4.261  -4.082   0.027  0.00  0.00    +0.091 A 
ATOM     16  N   UNL     1      -4.728  -2.801   0.032  0.00  0.00    -0.360 N 
ATOM     17  H   UNL     1      -5.666  -2.552   0.040  0.00  0.00    +0.165 HD
BRANCH   8  19
ATOM     18  C   UNL     1      -0.017   1.425   0.010  0.00  0.00    +0.277 C 
ATOM     19  O   UNL     1       0.002  -0.004   0.002  0.00  0.00    -0.495 OA
ENDBRANCH   8  19
ENDBRANCH   1  14
BRANCH   4  20
ATOM     20  C   UNL     1       0.701  -8.460  -0.009  0.00  0.00    +0.019 C 
BRANCH  20  21
ATOM     21  C   UNL     1       1.972  -8.219  -0.782  0.00  0.00    +0.201 C 
ATOM     22  O   UNL     1       2.230  -7.108  -1.195  0.00  0.00    -0.278 OA
ATOM     23  N   UNL     1       2.821  -9.239  -1.016  0.00  0.00    -0.281 N 
ATOM     24  H   UNL     1       2.615 -10.127  -0.686  0.00  0.00    +0.155 HD
BRANCH  23  25
ATOM     25  C   UNL     1       3.992  -9.018  -1.728  0.00  0.00    +0.089 A 
ATOM     26  C   UNL     1       4.972  -9.939  -2.065  0.00  0.00    +0.080 A 
ATOM     27  C   UNL     1       6.098  -9.439  -2.819  0.00  0.00    +0.028 A 
ATOM     28  C   UNL     1       6.071  -8.125  -3.112  0.00  0.00    +0.048 A 
ATOM     29  S   UNL     1       4.542  -7.575  -2.386  0.00  0.00    -0.081 S 
BRANCH  26  30
ATOM     30  C   UNL     1       4.872 -11.316  -1.685  0.00  0.00    +0.102 C 
ATOM     31  N   UNL     1       4.793 -12.408  -1.383  0.00  0.00    -0.191 NA
ENDBRANCH  26  30
ENDBRANCH  23  25
ENDBRANCH  20  21
ENDBRANCH   4  20
TORSDOF 6
