REMARK  Name = ZINC38592381
REMARK  2 active torsions:
REMARK  status: ('A' for Active; 'I' for Inactive)
REMARK    1  A    between atoms: C_6  and  C_10
REMARK    2  A    between atoms: N_17  and  C_20
REMARK                            x       y       z     vdW  Elec       q    Type
REMARK                         _______ _______ _______ _____ _____    ______ ____
ROOT
ATOM      1  C   UNL     1       4.864  -2.219  -1.480  0.00  0.00    +0.037 C 
ATOM      2  C   UNL     1       5.050  -3.544  -1.283  0.00  0.00    +0.101 C 
ATOM      3  C   UNL     1       4.827  -4.527  -2.366  0.00  0.00    +0.274 C 
ATOM      4  O   UNL     1       4.431  -4.127  -3.592  0.00  0.00    -0.268 OA
ATOM      5  N   UNL     1       5.027  -5.803  -2.105  0.00  0.00    -0.153 NA
ATOM      6  C   UNL     1       5.419  -6.229  -0.905  0.00  0.00    +0.171 C 
ATOM      7  S   UNL     1       5.648  -7.911  -0.681  0.00  0.00    -0.016 S 
ATOM      8  N   UNL     1       5.646  -5.417   0.138  0.00  0.00    -0.216 N 
ATOM      9  C   UNL     1       5.492  -4.080   0.027  0.00  0.00    +0.261 C 
ATOM     10  O   UNL     1       5.703  -3.342   0.971  0.00  0.00    -0.269 OA
ENDROOT
BRANCH   1  16
ATOM     11  C   UNL     1       3.945   3.148  -0.217  0.00  0.00    +0.002 A 
ATOM     12  C   UNL     1       5.143   3.336  -0.930  0.00  0.00    +0.002 A 
ATOM     13  C   UNL     1       5.957   2.316  -1.265  0.00  0.00    +0.027 A 
ATOM     14  C   UNL     1       5.598   0.944  -0.880  0.00  0.00    +0.060 A 
ATOM     15  N   UNL     1       6.177  -0.207  -1.063  0.00  0.00    -0.360 N 
ATOM     16  C   UNL     1       5.327  -1.231  -0.441  0.00  0.00    +0.199 C 
ATOM     17  N   UNL     1       4.175  -0.522   0.129  0.00  0.00    -0.360 N 
ATOM     18  C   UNL     1       4.330   0.745  -0.125  0.00  0.00    +0.060 A 
ATOM     19  C   UNL     1       3.522   1.932   0.184  0.00  0.00    +0.027 A 
ATOM     20  H   UNL     1       7.015  -0.361  -1.525  0.00  0.00    +0.162 HD
ATOM     21  H   UNL     1       3.433  -0.925   0.607  0.00  0.00    +0.162 HD
ENDBRANCH   1  16
BRANCH   8  22
ATOM     22  C   UNL     1       6.057  -5.965   1.360  0.00  0.00    +0.046 A 
ATOM     23  C   UNL     1       7.389  -5.883   1.746  0.00  0.00    +0.024 A 
ATOM     24  C   UNL     1       7.792  -6.423   2.952  0.00  0.00    +0.005 A 
ATOM     25  C   UNL     1       6.871  -7.045   3.775  0.00  0.00    +0.038 A 
ATOM     26  C   UNL     1       5.543  -7.128   3.394  0.00  0.00    +0.125 A 
ATOM     27  C   UNL     1       5.133  -6.584   2.190  0.00  0.00    +0.062 A 
ATOM     28  F   UNL     1       4.646  -7.736   4.201  0.00  0.00    -0.205 F 
ENDBRANCH   8  22
TORSDOF 2
