REMARK  Name = ZINC16647782
REMARK  11 active torsions:
REMARK  status: ('A' for Active; 'I' for Inactive)
REMARK    1  A    between atoms: C_1  and  C_2
REMARK    2  A    between atoms: C_2  and  C_3
REMARK    3  A    between atoms: C_3  and  C_5
REMARK    4  A    between atoms: C_3  and  C_6
REMARK    5  A    between atoms: C_6  and  N_7
REMARK    6  A    between atoms: C_8  and  C_10
REMARK    7  A    between atoms: C_10  and  N_11
REMARK    8  A    between atoms: N_13  and  C_32
REMARK    9  A    between atoms: N_19  and  S_22
REMARK   10  A    between atoms: S_22  and  C_25
REMARK   11  A    between atoms: C_28  and  C_31
REMARK                            x       y       z     vdW  Elec       q    Type
REMARK                         _______ _______ _______ _____ _____    ______ ____
ROOT
ATOM      1  N   UNL     1      -1.428  -0.604  -0.163  0.00  0.00    -0.275 N 
ATOM      2  C   UNL     1      -2.120  -0.940   1.088  0.00  0.00    +0.217 C 
ATOM      3  N   UNL     1      -3.571  -0.875   0.786  0.00  0.00    -0.300 N 
ATOM      4  C   UNL     1      -3.622  -1.169  -0.662  0.00  0.00    +0.115 C 
ATOM      5  C   UNL     1      -2.279  -0.742  -1.201  0.00  0.00    +0.241 C 
ATOM      6  O   UNL     1      -2.010  -0.554  -2.369  0.00  0.00    -0.273 OA
ATOM      7  C   UNL     1      -3.833  -2.664  -0.883  0.00  0.00    +0.052 C 
ATOM      8  C   UNL     1      -3.833  -2.961  -2.387  0.00  0.00    +0.112 C 
ATOM      9  N   UNL     1      -4.827  -2.096  -3.038  0.00  0.00    -0.176 NA
ATOM     10  C   UNL     1      -4.748  -0.644  -2.827  0.00  0.00    +0.112 C 
ATOM     11  C   UNL     1      -4.740  -0.365  -1.320  0.00  0.00    +0.052 C 
ENDROOT
BRANCH   3  12
ATOM     12  C   UNL     1      -4.275  -1.833   1.517  0.00  0.00    +0.032 A 
ATOM     13  C   UNL     1      -5.620  -2.060   1.254  0.00  0.00    +0.023 A 
ATOM     14  C   UNL     1      -6.312  -3.013   1.976  0.00  0.00    +0.002 A 
ATOM     15  C   UNL     1      -5.670  -3.733   2.967  0.00  0.00    +0.000 A 
ATOM     16  C   UNL     1      -4.333  -3.506   3.235  0.00  0.00    +0.002 A 
ATOM     17  C   UNL     1      -3.633  -2.559   2.513  0.00  0.00    +0.023 A 
ENDBRANCH   3  12
BRANCH   9  18
ATOM     18  S   UNL     1      -6.014  -2.746  -3.993  0.00  0.00    +0.061 S 
ATOM     19  O   UNL     1      -6.183  -4.092  -3.570  0.00  0.00    -0.153 OA
ATOM     20  O   UNL     1      -7.083  -1.810  -4.003  0.00  0.00    -0.153 OA
BRANCH  18  21
ATOM     21  C   UNL     1      -5.384  -2.809  -5.637  0.00  0.00    +0.105 A 
ATOM     22  C   UNL     1      -5.575  -1.739  -6.492  0.00  0.00    +0.029 A 
ATOM     23  C   UNL     1      -5.077  -1.787  -7.780  0.00  0.00    +0.005 A 
ATOM     24  C   UNL     1      -4.396  -2.908  -8.217  0.00  0.00    -0.050 A 
ATOM     25  C   UNL     1      -4.210  -3.980  -7.364  0.00  0.00    +0.005 A 
ATOM     26  C   UNL     1      -4.704  -3.930  -6.074  0.00  0.00    +0.029 A 
ATOM     27  C   UNL     1      -3.857  -2.962  -9.624  0.00  0.00    +0.044 C 
ENDBRANCH  18  21
ENDBRANCH   9  18
BRANCH   1  28
ATOM     28  C   UNL     1      -0.027  -0.189  -0.268  0.00  0.00    +0.205 C 
BRANCH  28  30
ATOM     29  N   UNL     1       1.260   1.923  -0.234  0.00  0.00    -0.314 N 
ATOM     30  C   UNL     1       0.061   1.312  -0.163  0.00  0.00    +0.230 C 
ATOM     31  O   UNL     1      -0.947   1.971  -0.020  0.00  0.00    -0.274 OA
ATOM     32  H   UNL     1       2.067   1.397  -0.352  0.00  0.00    +0.149 HD
BRANCH  29  33
ATOM     33  C   UNL     1       1.346   3.382  -0.132  0.00  0.00    +0.107 C 
BRANCH  33  34
ATOM     34  C   UNL     1       2.809   3.816  -0.241  0.00  0.00    +0.003 C 
ATOM     35  C   UNL     1       3.339   3.476  -1.636  0.00  0.00    +0.009 C 
BRANCH  34  37
ATOM     36  C   UNL     1       4.386   5.739   0.003  0.00  0.00    +0.004 C 
ATOM     37  C   UNL     1       2.913   5.325  -0.011  0.00  0.00    +0.001 C 
ENDBRANCH  34  37
ENDBRANCH  33  34
ENDBRANCH  29  33
ENDBRANCH  28  30
ENDBRANCH   1  28
TORSDOF 8
