REMARK  Name = ZINC08619120
REMARK  7 active torsions:
REMARK  status: ('A' for Active; 'I' for Inactive)
REMARK    1  A    between atoms: C_1  and  C_2
REMARK    2  A    between atoms: C_2  and  N_3
REMARK    3  A    between atoms: C_9  and  N_25
REMARK    4  A    between atoms: C_10  and  C_11
REMARK    5  A    between atoms: C_11  and  C_13
REMARK    6  A    between atoms: C_11  and  N_14
REMARK    7  A    between atoms: N_17  and  C_18
REMARK                            x       y       z     vdW  Elec       q    Type
REMARK                         _______ _______ _______ _____ _____    ______ ____
ROOT
ATOM      1  N   UNL     1      -1.865  -0.756   1.929  0.00  0.00    +0.383 N 
ATOM      2  C   UNL     1      -1.632  -2.168   1.599  0.00  0.00    -0.074 C 
ATOM      3  C   UNL     1      -2.963  -2.878   1.336  0.00  0.00    +0.018 C 
ATOM      4  C   UNL     1      -3.729  -2.073   0.290  0.00  0.00    -0.034 A 
ATOM      5  C   UNL     1      -3.364  -0.783   0.046  0.00  0.00    -0.021 A 
ATOM      6  S   UNL     1      -4.494  -0.253  -1.210  0.00  0.00    -0.077 S 
ATOM      7  C   UNL     1      -5.417  -1.775  -1.362  0.00  0.00    +0.090 A 
ATOM      8  C   UNL     1      -4.798  -2.571  -0.449  0.00  0.00    +0.007 A 
ATOM      9  C   UNL     1      -2.262  -0.026   0.710  0.00  0.00    -0.035 C 
ATOM     10  H   UNL     1      -2.601  -0.688   2.616  0.00  0.00    -0.081 HD
ENDROOT
BRANCH   7  11
ATOM     11  N   UNL     1      -6.497  -2.071  -2.202  0.00  0.00    -0.317 N 
ATOM     12  C   UNL     1      -7.671  -2.652  -1.815  0.00  0.00    +0.092 A 
ATOM     13  C   UNL     1      -8.460  -2.773  -2.903  0.00  0.00    +0.019 A 
ATOM     14  C   UNL     1      -7.749  -2.250  -4.001  0.00  0.00    +0.019 A 
ATOM     15  C   UNL     1      -6.554  -1.822  -3.543  0.00  0.00    +0.092 A 
ENDBRANCH   7  11
BRANCH   1  17
ATOM     16  C   UNL     1      -0.908   1.264   2.930  0.00  0.00    -0.017 C 
ATOM     17  C   UNL     1      -0.633  -0.170   2.472  0.00  0.00    -0.082 C 
ENDBRANCH   1  17
BRANCH   8  18
ATOM     18  C   UNL     1      -5.268  -3.988  -0.239  0.00  0.00    +0.104 C 
ATOM     19  C   UNL     1      -5.863  -4.125   1.163  0.00  0.00    +0.033 C 
BRANCH  18  20
ATOM     20  N   UNL     1      -4.133  -4.904  -0.381  0.00  0.00    -0.292 N 
ATOM     21  C   UNL     1      -4.343  -6.234  -0.427  0.00  0.00    +0.304 C 
ATOM     22  O   UNL     1      -5.474  -6.674  -0.351  0.00  0.00    -0.252 OA
ATOM     23  N   UNL     1      -3.300  -7.077  -0.557  0.00  0.00    -0.269 N 
ATOM     24  H   UNL     1      -3.231  -4.553  -0.441  0.00  0.00    +0.151 HD
ATOM     25  H   UNL     1      -2.404  -6.725  -0.679  0.00  0.00    +0.156 HD
BRANCH  23  26
ATOM     26  C   UNL     1      -3.508  -8.461  -0.514  0.00  0.00    +0.035 A 
ATOM     27  C   UNL     1      -2.568  -9.288   0.086  0.00  0.00    +0.024 A 
ATOM     28  C   UNL     1      -2.776 -10.653   0.127  0.00  0.00    +0.017 A 
ATOM     29  C   UNL     1      -3.920 -11.196  -0.430  0.00  0.00    +0.018 A 
ATOM     30  C   UNL     1      -4.858 -10.375  -1.029  0.00  0.00    +0.017 A 
ATOM     31  C   UNL     1      -4.658  -9.009  -1.067  0.00  0.00    +0.024 A 
ATOM     32 BR   UNL     1      -4.201 -13.065  -0.373  0.00  0.00    -0.050 Br
ENDBRANCH  23  26
ENDBRANCH  18  20
ENDBRANCH   8  18
TORSDOF 5
