REMARK  Name = ZINC38732214
REMARK  5 active torsions:
REMARK  status: ('A' for Active; 'I' for Inactive)
REMARK    1  A    between atoms: C_4  and  C_7
REMARK    2  A    between atoms: C_7  and  C_9
REMARK    3  A    between atoms: C_7  and  N_16
REMARK    4  A    between atoms: C_17  and  C_19
REMARK    5  A    between atoms: C_25  and  C_27
REMARK                            x       y       z     vdW  Elec       q    Type
REMARK                         _______ _______ _______ _____ _____    ______ ____
ROOT
ATOM      1  C   UNL     1       3.755  -2.953   3.090  0.00  0.00    +0.087 C 
ATOM      2  C   UNL     1       4.760  -4.020   2.649  0.00  0.00    +0.013 C 
ATOM      3  C   UNL     1       4.664  -5.227   3.584  0.00  0.00    +0.001 C 
ATOM      4  C   UNL     1       4.979  -4.790   5.016  0.00  0.00    +0.001 C 
ATOM      5  C   UNL     1       3.975  -3.723   5.456  0.00  0.00    +0.013 C 
ATOM      6  C   UNL     1       4.071  -2.516   4.521  0.00  0.00    +0.087 C 
ENDROOT
BRANCH   6   7
ATOM      7  C   UNL     1       3.082  -1.465   4.955  0.00  0.00    +0.219 C 
ATOM      8  O   UNL     1       1.990  -1.406   4.430  0.00  0.00    -0.275 OA
ATOM      9  N   UNL     1       3.410  -0.590   5.927  0.00  0.00    -0.298 N 
ATOM     10  C   UNL     1       4.764  -0.581   6.498  0.00  0.00    +0.126 C 
ATOM     11  C   UNL     1       5.343   0.833   6.365  0.00  0.00    +0.125 C 
ATOM     12  N   UNL     1       4.353   1.795   6.872  0.00  0.00    -0.314 N 
ATOM     13  C   UNL     1       2.999   1.786   6.300  0.00  0.00    +0.125 C 
ATOM     14  C   UNL     1       2.423   0.375   6.429  0.00  0.00    +0.126 C 
ATOM     15  C   UNL     1       4.692   2.697   7.874  0.00  0.00    +0.099 A 
ATOM     16  C   UNL     1       6.012   2.783   8.306  0.00  0.00    +0.042 A 
ATOM     17  C   UNL     1       6.335   3.685   9.304  0.00  0.00    +0.005 A 
ATOM     18  C   UNL     1       5.324   4.473   9.838  0.00  0.00    +0.018 A 
ATOM     19  C   UNL     1       4.036   4.335   9.361  0.00  0.00    +0.084 A 
ATOM     20  N   UNL     1       3.757   3.470   8.404  0.00  0.00    -0.350 N 
ATOM     21  H   UNL     1       2.844   3.395   8.085  0.00  0.00    +0.166 HD
ENDBRANCH   6   7
BRANCH   1  23
ATOM     22  N   UNL     1       3.610  -1.912   0.851  0.00  0.00    -0.304 N 
ATOM     23  C   UNL     1       3.849  -1.764   2.169  0.00  0.00    +0.218 C 
ATOM     24  O   UNL     1       4.141  -0.674   2.614  0.00  0.00    -0.275 OA
ATOM     25  H   UNL     1       3.378  -2.784   0.495  0.00  0.00    +0.150 HD
BRANCH  22  26
ATOM     26  C   UNL     1       3.702  -0.756  -0.045  0.00  0.00    +0.134 C 
BRANCH  26  27
ATOM     27  C   UNL     1       4.005  -1.227  -1.444  0.00  0.00    -0.023 A 
ATOM     28  C   UNL     1       3.389  -2.362  -1.939  0.00  0.00    +0.007 A 
ATOM     29  C   UNL     1       3.667  -2.794  -3.222  0.00  0.00    +0.020 A 
ATOM     30  C   UNL     1       4.560  -2.091  -4.011  0.00  0.00    +0.041 A 
ATOM     31  C   UNL     1       5.175  -0.956  -3.515  0.00  0.00    +0.020 A 
ATOM     32  C   UNL     1       4.893  -0.521  -2.234  0.00  0.00    +0.007 A 
ATOM     33 CL   UNL     1       4.909  -2.635  -5.623  0.00  0.00    -0.084 Cl
ENDBRANCH  26  27
BRANCH  26  37
ATOM     34  C   UNL     1      -0.010   1.357  -0.028  0.00  0.00    +0.000 A 
ATOM     35  C   UNL     1       1.183   2.056  -0.041  0.00  0.00    +0.000 A 
ATOM     36  C   UNL     1       2.384   1.372  -0.046  0.00  0.00    +0.006 A 
ATOM     37  C   UNL     1       2.392  -0.011  -0.038  0.00  0.00    -0.023 A 
ATOM     38  C   UNL     1       1.199  -0.709  -0.024  0.00  0.00    +0.006 A 
ATOM     39  C   UNL     1      -0.002  -0.025  -0.021  0.00  0.00    +0.000 A 
ENDBRANCH  26  37
ENDBRANCH  22  26
ENDBRANCH   1  23
TORSDOF 5
