REMARK  Name = ZINC24215542
REMARK  9 active torsions:
REMARK  status: ('A' for Active; 'I' for Inactive)
REMARK    1  A    between atoms: C_1  and  C_2
REMARK    2  A    between atoms: C_2  and  C_3
REMARK    3  A    between atoms: C_6  and  C_9
REMARK    4  A    between atoms: C_11  and  C_14
REMARK    5  A    between atoms: C_14  and  N_15
REMARK    6  A    between atoms: C_21  and  C_23
REMARK    7  A    between atoms: C_24  and  C_35
REMARK    8  A    between atoms: N_26  and  C_29
REMARK    9  A    between atoms: C_27  and  C_28
REMARK                            x       y       z     vdW  Elec       q    Type
REMARK                         _______ _______ _______ _____ _____    ______ ____
ROOT
ATOM      1  N   UNL     1      -1.691  -1.174   1.378  0.00  0.00    +0.397 N 
ATOM      2  C   UNL     1      -1.737   0.027   2.228  0.00  0.00    -0.058 C 
ATOM      3  C   UNL     1      -1.660  -0.405   3.694  0.00  0.00    +0.085 C 
ATOM      4  N   UNL     1      -2.644  -1.450   3.959  0.00  0.00    -0.318 N 
ATOM      5  C   UNL     1      -3.216  -2.173   2.991  0.00  0.00    +0.204 C 
ATOM      6  O   UNL     1      -4.001  -3.044   3.302  0.00  0.00    -0.277 OA
ATOM      7  C   UNL     1      -2.928  -1.952   1.533  0.00  0.00    +0.054 C 
ATOM      8  H   UNL     1      -2.945  -1.673   4.994  0.00  0.00    +0.149 HD
ATOM      9  H   UNL     1      -0.845  -1.799   1.700  0.00  0.00    -0.079 HD
ENDROOT
BRANCH   7  10
ATOM     10  C   UNL     1      -2.771  -3.284   0.846  0.00  0.00    -0.009 A 
ATOM     11  C   UNL     1      -1.658  -4.128   0.932  0.00  0.00    +0.063 A 
ATOM     12  N   UNL     1      -1.891  -5.189   0.202  0.00  0.00    -0.171 NA
ATOM     13  N   UNL     1      -3.161  -5.054  -0.373  0.00  0.00    -0.237 N 
ATOM     14  C   UNL     1      -3.683  -3.878   0.042  0.00  0.00    +0.044 A 
ATOM     15  C   UNL     1      -5.036  -3.326  -0.326  0.00  0.00    +0.066 C 
ATOM     16  C   UNL     1      -0.406  -3.861   1.728  0.00  0.00    +0.068 C 
BRANCH  13  17
ATOM     17  C   UNL     1      -3.784  -5.978  -1.224  0.00  0.00    +0.066 A 
ATOM     18  C   UNL     1      -3.699  -7.338  -0.956  0.00  0.00    +0.028 A 
ATOM     19  C   UNL     1      -4.318  -8.245  -1.794  0.00  0.00    +0.002 A 
ATOM     20  C   UNL     1      -5.012  -7.801  -2.904  0.00  0.00    +0.000 A 
ATOM     21  C   UNL     1      -5.094  -6.448  -3.177  0.00  0.00    +0.002 A 
ATOM     22  C   UNL     1      -4.482  -5.535  -2.340  0.00  0.00    +0.028 A 
ENDBRANCH  13  17
ENDBRANCH   7  10
BRANCH   1  23
ATOM     23  C   UNL     1      -1.467  -0.816  -0.028  0.00  0.00    +0.023 C 
BRANCH  23  26
ATOM     24  C   UNL     1       1.566   1.094  -0.293  0.00  0.00    +0.202 A 
ATOM     25  N   UNL     1       0.934  -0.101  -0.259  0.00  0.00    -0.193 NA
ATOM     26  C   UNL     1      -0.338   0.178  -0.120  0.00  0.00    +0.211 A 
ATOM     27  O   UNL     1      -0.446   1.509  -0.074  0.00  0.00    -0.340 OA
ATOM     28  N   UNL     1       0.650   2.019  -0.174  0.00  0.00    -0.056 NA
BRANCH  24  32
ATOM     29  C   UNL     1       5.752   1.725  -0.708  0.00  0.00    -0.048 A 
ATOM     30  C   UNL     1       4.899   2.808  -0.592  0.00  0.00    +0.004 A 
ATOM     31  C   UNL     1       3.540   2.609  -0.457  0.00  0.00    +0.012 A 
ATOM     32  C   UNL     1       3.027   1.314  -0.438  0.00  0.00    +0.022 A 
ATOM     33  C   UNL     1       3.890   0.226  -0.549  0.00  0.00    +0.012 A 
ATOM     34  C   UNL     1       5.247   0.437  -0.690  0.00  0.00    +0.004 A 
BRANCH  29  36
ATOM     35  C   UNL     1       7.885   1.987   0.529  0.00  0.00    +0.009 C 
ATOM     36  C   UNL     1       7.234   1.949  -0.856  0.00  0.00    +0.032 C 
ENDBRANCH  29  36
ENDBRANCH  24  32
ENDBRANCH  23  26
ENDBRANCH   1  23
TORSDOF 6
