REMARK  Name = ZINC00889302
REMARK  6 active torsions:
REMARK  status: ('A' for Active; 'I' for Inactive)
REMARK    1  A    between atoms: C_1  and  C_2
REMARK    2  A    between atoms: C_12  and  C_14
REMARK    3  A    between atoms: C_14  and  C_16
REMARK    4  A    between atoms: C_14  and  N_63
REMARK    5  A    between atoms: N_20  and  C_21
REMARK    6  A    between atoms: C_30  and  C_33
REMARK                            x       y       z     vdW  Elec       q    Type
REMARK                         _______ _______ _______ _____ _____    ______ ____
ROOT
ATOM      1  C   UNL     1       3.526   1.533  -1.198  0.00  0.00    +0.039 C 
ENDROOT
BRANCH   1  13
ATOM      2  C   UNL     1       5.657  -0.982  -6.885  0.00  0.00    +0.046 C 
ATOM      3  C   UNL     1       5.779   0.402  -6.301  0.00  0.00    -0.026 A 
ATOM      4  C   UNL     1       6.434   1.393  -7.000  0.00  0.00    +0.005 A 
ATOM      5  C   UNL     1       6.553   2.671  -6.473  0.00  0.00    +0.001 A 
ATOM      6  C   UNL     1       6.022   2.972  -5.251  0.00  0.00    +0.010 A 
ATOM      7  C   UNL     1       5.353   1.982  -4.523  0.00  0.00    -0.001 A 
ATOM      8  C   UNL     1       5.231   0.684  -5.054  0.00  0.00    +0.052 A 
ATOM      9  N   UNL     1       4.570  -0.288  -4.333  0.00  0.00    -0.322 N 
ATOM     10  H   UNL     1       4.484  -1.209  -4.712  0.00  0.00    +0.169 HD
ATOM     11  C   UNL     1       4.040  -0.014  -3.128  0.00  0.00    +0.251 A 
ATOM     12  O   UNL     1       3.462  -0.898  -2.519  0.00  0.00    -0.268 OA
ATOM     13  C   UNL     1       4.135   1.270  -2.551  0.00  0.00    +0.011 A 
ATOM     14  C   UNL     1       4.768   2.271  -3.213  0.00  0.00    +0.017 A 
ENDBRANCH   1  13
BRANCH   1  21
ATOM     15  C   UNL     1       1.444   1.674  -2.425  0.00  0.00    -0.077 C 
ATOM     16  C   UNL     1       0.009   1.145  -2.487  0.00  0.00    -0.018 C 
ATOM     17  C   UNL     1      -0.749   1.594  -1.235  0.00  0.00    -0.001 C 
ATOM     18  C   UNL     1      -0.013   1.086   0.008  0.00  0.00    -0.031 C 
ATOM     19  C   UNL     1       1.423   1.616  -0.003  0.00  0.00    -0.074 C 
ATOM     20  C   UNL     1      -0.730   1.580   1.266  0.00  0.00    +0.005 C 
ATOM     21  N   UNL     1       2.105   1.129  -1.220  0.00  0.00    +0.389 N 
ATOM     22  H   UNL     1       2.050   0.104  -1.245  0.00  0.00    -0.080 HD
ENDBRANCH   1  21
BRANCH   1  23
ATOM     23  C   UNL     1       4.245   0.715  -0.157  0.00  0.00    +0.143 A 
ATOM     24  N   UNL     1       4.122  -0.574   0.048  0.00  0.00    -0.115 NA
ATOM     25  N   UNL     1       4.901  -0.898   1.022  0.00  0.00    -0.023 NA
ATOM     26  N   UNL     1       5.512   0.152   1.449  0.00  0.00    -0.044 NA
ATOM     27  N   UNL     1       5.134   1.167   0.748  0.00  0.00    -0.227 N 
BRANCH  27  28
ATOM     28  C   UNL     1       5.587   2.551   0.906  0.00  0.00    +0.111 C 
ATOM     29  C   UNL     1       7.101   2.619   0.698  0.00  0.00    +0.027 C 
ATOM     30  C   UNL     1       7.575   4.064   0.863  0.00  0.00    +0.002 C 
ATOM     31  C   UNL     1       7.230   4.556   2.270  0.00  0.00    +0.000 C 
ATOM     32  C   UNL     1       5.716   4.488   2.478  0.00  0.00    +0.002 C 
ATOM     33  C   UNL     1       5.243   3.042   2.313  0.00  0.00    +0.027 C 
ENDBRANCH  27  28
ENDBRANCH   1  23
TORSDOF 4
