REMARK  Name = ZINC04048149
REMARK  6 active torsions:
REMARK  status: ('A' for Active; 'I' for Inactive)
REMARK    1  A    between atoms: C_1  and  C_2
REMARK    2  A    between atoms: C_7  and  C_8
REMARK    3  A    between atoms: C_12  and  C_15
REMARK    4  A    between atoms: C_18  and  C_21
REMARK    5  A    between atoms: C_28  and  C_30
REMARK    6  A    between atoms: C_28  and  C_31
REMARK                            x       y       z     vdW  Elec       q    Type
REMARK                         _______ _______ _______ _____ _____    ______ ____
ROOT
ATOM      1  C   UNL     1      -8.067   0.083  -3.109  0.00  0.00    +0.044 C 
ATOM      2  C   UNL     1      -6.924   0.509  -2.224  0.00  0.00    -0.046 A 
ATOM      3  C   UNL     1      -6.041   1.480  -2.663  0.00  0.00    +0.028 A 
ATOM      4  C   UNL     1      -4.991   1.867  -1.845  0.00  0.00    +0.050 A 
ATOM      5  C   UNL     1      -4.858   1.311  -0.582  0.00  0.00    +0.053 A 
ATOM      6  C   UNL     1      -5.730   0.328  -0.151  0.00  0.00    +0.028 A 
ATOM      7  C   UNL     1      -6.765  -0.073  -0.980  0.00  0.00    -0.046 A 
ATOM      8  C   UNL     1      -7.720  -1.146  -0.525  0.00  0.00    +0.044 C 
ATOM      9  N   UNL     1      -3.826   1.793   0.217  0.00  0.00    -0.316 N 
ATOM     10  C   UNL     1      -2.504   1.666  -0.067  0.00  0.00    +0.017 C 
ATOM     11  C   UNL     1      -1.939   1.930  -1.255  0.00  0.00    +0.036 C 
ATOM     12  C   UNL     1      -2.663   2.385  -2.501  0.00  0.00    +0.136 C 
ATOM     13  N   UNL     1      -4.037   2.784  -2.278  0.00  0.00    -0.331 N 
ATOM     14  C   UNL     1      -0.541   1.790  -1.428  0.00  0.00    +0.163 C 
ATOM     15  O   UNL     1      -0.061   2.015  -2.522  0.00  0.00    -0.292 OA
ATOM     16  C   UNL     1       0.368   1.374  -0.311  0.00  0.00    +0.086 C 
ATOM     17  C   UNL     1      -0.258   1.806   1.020  0.00  0.00    -0.023 C 
ATOM     18  C   UNL     1      -1.654   1.182   1.097  0.00  0.00    +0.058 C 
ATOM     19  C   UNL     1       0.604   1.310   2.183  0.00  0.00    +0.011 C 
ATOM     20  C   UNL     1      -0.368   3.331   1.070  0.00  0.00    +0.011 C 
ATOM     21  H   UNL     1      -4.068   2.253   1.036  0.00  0.00    +0.152 HD
ATOM     22  H   UNL     1      -4.296   3.706  -2.433  0.00  0.00    +0.147 HD
ENDROOT
BRANCH  12  23
ATOM     23  C   UNL     1      -2.649   1.257  -3.501  0.00  0.00    -0.023 A 
ATOM     24  C   UNL     1      -3.290   0.068  -3.210  0.00  0.00    +0.006 A 
ATOM     25  C   UNL     1      -3.281  -0.965  -4.130  0.00  0.00    +0.013 A 
ATOM     26  C   UNL     1      -2.622  -0.811  -5.335  0.00  0.00    +0.055 A 
ATOM     27  C   UNL     1      -1.976   0.377  -5.623  0.00  0.00    +0.013 A 
ATOM     28  C   UNL     1      -1.990   1.411  -4.706  0.00  0.00    +0.006 A 
BRANCH  26  29
ATOM     29  C   UNL     1      -2.607  -1.939  -6.335  0.00  0.00    +0.417 C 
ATOM     30  F   UNL     1      -1.497  -2.756  -6.099  0.00  0.00    -0.166 F 
ATOM     31  F   UNL     1      -3.778  -2.693  -6.204  0.00  0.00    -0.166 F 
ATOM     32  F   UNL     1      -2.533  -1.413  -7.629  0.00  0.00    -0.166 F 
ENDBRANCH  26  29
ENDBRANCH  12  23
TORSDOF 2
