REMARK  Name = ZINC12496177
REMARK  3 active torsions:
REMARK  status: ('A' for Active; 'I' for Inactive)
REMARK    1  A    between atoms: C_1  and  C_2
REMARK    2  A    between atoms: N_10  and  N_11
REMARK    3  A    between atoms: C_12  and  C_13
REMARK                            x       y       z     vdW  Elec       q    Type
REMARK                         _______ _______ _______ _____ _____    ______ ____
ROOT
ATOM      1  C   UNL     1      -0.018   1.503   0.010  0.00  0.00    +0.066 C 
ATOM      2  C   UNL     1       0.002  -0.004   0.002  0.00  0.00    +0.047 A 
ATOM      3  C   UNL     1      -1.171  -0.701   0.004  0.00  0.00    +0.093 A 
ATOM      4  C   UNL     1      -1.127  -2.107  -0.004  0.00  0.00    +0.253 A 
ATOM      5  O   UNL     1      -2.156  -2.762  -0.003  0.00  0.00    -0.268 OA
ATOM      6  N   UNL     1       0.077  -2.718  -0.013  0.00  0.00    -0.294 N 
ATOM      7  H   UNL     1       0.132  -3.686  -0.019  0.00  0.00    +0.172 HD
ATOM      8  C   UNL     1       1.215  -1.970  -0.015  0.00  0.00    +0.216 A 
ATOM      9  N   UNL     1       1.164  -0.652  -0.013  0.00  0.00    -0.220 NA
ATOM     10  N   UNL     1       2.433  -2.597  -0.023  0.00  0.00    -0.207 N 
ATOM     11  H   UNL     1       2.480  -3.566  -0.028  0.00  0.00    +0.177 HD
ENDROOT
BRANCH  10  12
ATOM     12  N   UNL     1       3.611  -1.839  -0.025  0.00  0.00    -0.192 NA
ATOM     13  C   UNL     1       4.749  -2.425  -0.033  0.00  0.00    +0.107 C 
BRANCH  13  14
ATOM     14  C   UNL     1       6.017  -1.609  -0.035  0.00  0.00    +0.036 C 
ATOM     15  C   UNL     1       6.840  -1.939  -1.286  0.00  0.00    +0.013 C 
ATOM     16  C   UNL     1       8.026  -0.974  -1.353  0.00  0.00    +0.027 C 
ATOM     17  C   UNL     1       8.736  -0.934  -0.031  0.00  0.00    -0.031 C 
ATOM     18  C   UNL     1       8.223  -1.357   1.080  0.00  0.00    -0.030 C 
ATOM     19  C   UNL     1       6.850  -1.951   1.203  0.00  0.00    +0.036 C 
ENDBRANCH  13  14
ENDBRANCH  10  12
TORSDOF 2
