REMARK  Name = ZINC11395076
REMARK  5 active torsions:
REMARK  status: ('A' for Active; 'I' for Inactive)
REMARK    1  A    between atoms: C_7  and  N_25
REMARK    2  A    between atoms: C_9  and  C_11
REMARK    3  A    between atoms: C_11  and  S_12
REMARK    4  A    between atoms: S_12  and  C_13
REMARK    5  A    between atoms: N_17  and  C_18
REMARK                            x       y       z     vdW  Elec       q    Type
REMARK                         _______ _______ _______ _____ _____    ______ ____
ROOT
ATOM      1  C   UNL     1      -1.350   2.020   0.019  0.00  0.00    +0.153 C 
ENDROOT
BRANCH   1  10
ATOM      2  C   UNL     1       4.738   0.178  -0.044  0.00  0.00    +0.001 A 
ATOM      3  C   UNL     1       4.669   1.568  -0.035  0.00  0.00    +0.002 A 
ATOM      4  C   UNL     1       3.468   2.212  -0.019  0.00  0.00    +0.028 A 
ATOM      5  C   UNL     1       2.283   1.465  -0.012  0.00  0.00    +0.076 A 
ATOM      6  C   UNL     1       2.355   0.050  -0.020  0.00  0.00    +0.040 A 
ATOM      7  C   UNL     1       3.604  -0.580  -0.036  0.00  0.00    +0.013 A 
ATOM      8  C   UNL     1       1.142  -0.681  -0.013  0.00  0.00    +0.127 A 
ATOM      9  N   UNL     1       0.002  -0.004   0.002  0.00  0.00    -0.216 NA
ATOM     10  C   UNL     1      -0.016   1.319   0.009  0.00  0.00    +0.142 A 
ATOM     11  N   UNL     1       1.075   2.048   0.003  0.00  0.00    -0.231 NA
BRANCH   8  12
ATOM     12  N   UNL     1       1.147  -2.060  -0.020  0.00  0.00    -0.343 N 
ATOM     13  H   UNL     1       0.309  -2.548  -0.014  0.00  0.00    +0.144 HD
ATOM     14  H   UNL     1       1.989  -2.542  -0.030  0.00  0.00    +0.144 HD
ENDBRANCH   8  12
ENDBRANCH   1  10
BRANCH   1  15
ATOM     15  S   UNL     1      -1.876   2.292   1.730  0.00  0.00    -0.080 S 
BRANCH  15  16
ATOM     16  C   UNL     1      -3.415   3.102   1.451  0.00  0.00    +0.174 A 
ATOM     17  N   UNL     1      -3.937   3.380   0.279  0.00  0.00    -0.230 NA
ATOM     18  C   UNL     1      -5.117   3.999   0.451  0.00  0.00    +0.131 A 
ATOM     19  C   UNL     1      -5.346   4.115   1.771  0.00  0.00    +0.113 A 
ATOM     20  N   UNL     1      -4.271   3.543   2.417  0.00  0.00    -0.295 N 
BRANCH  20  21
ATOM     21  C   UNL     1      -4.091   3.437   3.804  0.00  0.00    +0.049 A 
ATOM     22  C   UNL     1      -3.759   2.214   4.370  0.00  0.00    +0.027 A 
ATOM     23  C   UNL     1      -3.578   2.113   5.736  0.00  0.00    +0.017 A 
ATOM     24  C   UNL     1      -3.737   3.228   6.540  0.00  0.00    +0.018 A 
ATOM     25  C   UNL     1      -4.074   4.447   5.979  0.00  0.00    +0.017 A 
ATOM     26  C   UNL     1      -4.251   4.554   4.613  0.00  0.00    +0.027 A 
ATOM     27 BR   UNL     1      -3.496   3.084   8.410  0.00  0.00    -0.050 Br
ENDBRANCH  20  21
ENDBRANCH  15  16
ENDBRANCH   1  15
TORSDOF 5
