REMARK  Name = ZINC31633653
REMARK  7 active torsions:
REMARK  status: ('A' for Active; 'I' for Inactive)
REMARK    1  A    between atoms: C_1  and  C_2
REMARK    2  A    between atoms: C_2  and  C_27
REMARK    3  A    between atoms: N_5  and  C_9
REMARK    4  A    between atoms: C_9  and  C_10
REMARK    5  A    between atoms: N_18  and  C_19
REMARK    6  A    between atoms: C_19  and  C_20
REMARK    7  A    between atoms: C_30  and  C_33
REMARK                            x       y       z     vdW  Elec       q    Type
REMARK                         _______ _______ _______ _____ _____    ______ ____
ROOT
ATOM      1  C   UNL     1      -2.554  -1.984   1.797  0.00  0.00    +0.192 C 
ENDROOT
BRANCH   1   2
ATOM      2  C   UNL     1      -2.646  -3.347   1.162  0.00  0.00    +0.129 A 
ATOM      3  N   UNL     1      -3.206  -3.599   0.015  0.00  0.00    -0.231 NA
ATOM      4  C   UNL     1      -3.113  -4.926  -0.257  0.00  0.00    +0.091 A 
ATOM      5  C   UNL     1      -3.534  -5.721  -1.326  0.00  0.00    +0.050 A 
ATOM      6  C   UNL     1      -3.286  -7.075  -1.310  0.00  0.00    +0.043 A 
ATOM      7  C   UNL     1      -2.619  -7.657  -0.239  0.00  0.00    +0.022 A 
ATOM      8  C   UNL     1      -2.197  -6.886   0.823  0.00  0.00    +0.029 A 
ATOM      9  C   UNL     1      -2.439  -5.519   0.823  0.00  0.00    +0.069 A 
ATOM     10  N   UNL     1      -2.152  -4.494   1.702  0.00  0.00    -0.322 N 
ATOM     11 CL   UNL     1      -3.809  -8.064  -2.638  0.00  0.00    -0.083 Cl
BRANCH  10  12
ATOM     12  C   UNL     1      -1.448  -4.618   2.981  0.00  0.00    +0.158 C 
BRANCH  12  13
ATOM     13  C   UNL     1      -2.427  -5.014   4.057  0.00  0.00    -0.028 A 
ATOM     14  C   UNL     1      -3.095  -4.041   4.776  0.00  0.00    +0.005 A 
ATOM     15  C   UNL     1      -3.993  -4.405   5.762  0.00  0.00    +0.000 A 
ATOM     16  C   UNL     1      -4.223  -5.742   6.029  0.00  0.00    +0.000 A 
ATOM     17  C   UNL     1      -3.556  -6.715   5.309  0.00  0.00    +0.000 A 
ATOM     18  C   UNL     1      -2.661  -6.351   4.319  0.00  0.00    +0.005 A 
ENDBRANCH  12  13
ENDBRANCH  10  12
ENDBRANCH   1   2
BRANCH   1  23
ATOM     19  C   UNL     1      -0.070   1.532  -0.083  0.00  0.00    +0.047 C 
ATOM     20  C   UNL     1      -0.035   0.002  -0.075  0.00  0.00    +0.135 C 
ATOM     21  C   UNL     1      -1.431  -0.562   0.094  0.00  0.00    +0.251 C 
ATOM     22  O   UNL     1      -2.376  -0.414  -0.650  0.00  0.00    -0.272 OA
ATOM     23  N   UNL     1      -1.404  -1.264   1.244  0.00  0.00    -0.217 N 
ATOM     24  C   UNL     1      -0.197  -1.222   1.819  0.00  0.00    +0.310 C 
ATOM     25  O   UNL     1       0.074  -1.780   2.865  0.00  0.00    -0.252 OA
ATOM     26  N   UNL     1       0.685  -0.494   1.111  0.00  0.00    -0.281 N 
ATOM     27  H   UNL     1       1.614  -0.328   1.337  0.00  0.00    +0.152 HD
BRANCH  20  28
ATOM     28  C   UNL     1       0.602  -0.519  -1.338  0.00  0.00    -0.015 A 
ATOM     29  C   UNL     1      -0.185  -0.792  -2.443  0.00  0.00    +0.007 A 
ATOM     30  C   UNL     1       0.391  -1.269  -3.602  0.00  0.00    +0.019 A 
ATOM     31  C   UNL     1       1.771  -1.475  -3.659  0.00  0.00    +0.052 A 
ATOM     32  C   UNL     1       2.559  -1.197  -2.540  0.00  0.00    +0.019 A 
ATOM     33  C   UNL     1       1.970  -0.716  -1.389  0.00  0.00    +0.007 A 
BRANCH  31  34
ATOM     34  C   UNL     1       2.376  -1.970  -4.859  0.00  0.00    +0.099 C 
ATOM     35  N   UNL     1       2.855  -2.363  -5.811  0.00  0.00    -0.191 NA
ENDBRANCH  31  34
ENDBRANCH  20  28
ENDBRANCH   1  23
TORSDOF 6
