REMARK  Name = ZINC11044353
REMARK  9 active torsions:
REMARK  status: ('A' for Active; 'I' for Inactive)
REMARK    1  A    between atoms: C_1  and  C_2
REMARK    2  A    between atoms: C_2  and  C_4
REMARK    3  A    between atoms: C_2  and  N_61
REMARK    4  A    between atoms: N_6  and  C_7
REMARK    5  A    between atoms: C_10  and  S_13
REMARK    6  A    between atoms: S_13  and  N_16
REMARK    7  A    between atoms: C_22  and  C_24
REMARK    8  A    between atoms: C_22  and  C_30
REMARK    9  A    between atoms: C_22  and  N_61
REMARK                            x       y       z     vdW  Elec       q    Type
REMARK                         _______ _______ _______ _____ _____    ______ ____
ROOT
ATOM      1  C   UNL     1      -0.718   1.570   1.249  0.00  0.00    +0.203 C 
ATOM      2  O   UNL     1      -0.127   2.264   2.049  0.00  0.00    -0.277 OA
ATOM      3  N   UNL     1      -2.002   1.228   1.472  0.00  0.00    -0.287 N 
ATOM      4  H   UNL     1      -2.494   0.729   0.801  0.00  0.00    +0.155 HD
ENDROOT
BRANCH   3   5
ATOM      5  C   UNL     1      -2.625   1.590   2.671  0.00  0.00    +0.033 A 
ATOM      6  C   UNL     1      -3.560   0.745   3.253  0.00  0.00    +0.025 A 
ATOM      7  C   UNL     1      -4.169   1.103   4.439  0.00  0.00    +0.030 A 
ATOM      8  C   UNL     1      -3.857   2.308   5.042  0.00  0.00    +0.106 A 
ATOM      9  C   UNL     1      -2.930   3.155   4.462  0.00  0.00    +0.030 A 
ATOM     10  C   UNL     1      -2.313   2.800   3.279  0.00  0.00    +0.025 A 
BRANCH   8  11
ATOM     11  S   UNL     1      -4.641   2.765   6.552  0.00  0.00    +0.061 S 
ATOM     12  O   UNL     1      -5.063   1.558   7.172  0.00  0.00    -0.153 OA
ATOM     13  O   UNL     1      -3.776   3.690   7.196  0.00  0.00    -0.153 OA
BRANCH  11  14
ATOM     14  N   UNL     1      -6.016   3.599   6.157  0.00  0.00    -0.177 NA
ATOM     15  C   UNL     1      -5.985   5.059   5.996  0.00  0.00    +0.109 C 
ATOM     16  C   UNL     1      -6.571   5.412   4.620  0.00  0.00    +0.017 C 
ATOM     17  C   UNL     1      -7.965   4.795   4.492  0.00  0.00    +0.003 C 
ATOM     18  C   UNL     1      -7.863   3.271   4.596  0.00  0.00    +0.017 C 
ATOM     19  C   UNL     1      -7.291   2.894   5.966  0.00  0.00    +0.109 C 
ENDBRANCH  11  14
ENDBRANCH   8  11
ENDBRANCH   3   5
BRANCH   1  21
ATOM     20  C   UNL     1      -0.755   1.609  -1.230  0.00  0.00    -0.004 C 
ATOM     21  C   UNL     1      -0.015   1.091   0.004  0.00  0.00    +0.014 C 
BRANCH  21  22
ATOM     22  N   UNL     1       1.368   1.605   0.001  0.00  0.00    +0.394 N 
ATOM     23  H   UNL     1       1.721   1.633   0.964  0.00  0.00    -0.083 HD
ATOM     24  H   UNL     1       1.376   2.553  -0.394  0.00  0.00    -0.083 HD
BRANCH  22  25
ATOM     25  C   UNL     1       2.236   0.733  -0.811  0.00  0.00    -0.002 C 
BRANCH  25  26
ATOM     26  C   UNL     1       3.413   1.532  -1.310  0.00  0.00    -0.057 A 
ATOM     27  C   UNL     1       4.021   2.457  -0.482  0.00  0.00    +0.002 A 
ATOM     28  C   UNL     1       5.103   3.187  -0.939  0.00  0.00    +0.000 A 
ATOM     29  C   UNL     1       5.570   2.998  -2.226  0.00  0.00    +0.000 A 
ATOM     30  C   UNL     1       4.958   2.077  -3.055  0.00  0.00    +0.000 A 
ATOM     31  C   UNL     1       3.880   1.344  -2.598  0.00  0.00    +0.002 A 
ENDBRANCH  25  26
BRANCH  25  32
ATOM     32  C   UNL     1       2.730  -0.413   0.034  0.00  0.00    -0.020 A 
ATOM     33  C   UNL     1       2.887  -1.716  -0.303  0.00  0.00    +0.010 A 
ATOM     34  C   UNL     1       3.362  -2.602   0.647  0.00  0.00    +0.008 A 
ATOM     35  C   UNL     1       3.655  -2.140   1.887  0.00  0.00    +0.045 A 
ATOM     36  S   UNL     1       3.267  -0.404   1.737  0.00  0.00    -0.103 S 
ENDBRANCH  25  32
ENDBRANCH  22  25
ENDBRANCH  21  22
ENDBRANCH   1  21
TORSDOF 8
