REMARK  Name = ZINC63526611
REMARK  5 active torsions:
REMARK  status: ('A' for Active; 'I' for Inactive)
REMARK    1  A    between atoms: C_1  and  O_2
REMARK    2  A    between atoms: O_2  and  C_3
REMARK    3  A    between atoms: C_10  and  C_30
REMARK    4  A    between atoms: C_18  and  C_20
REMARK    5  A    between atoms: C_34  and  N_36
REMARK                            x       y       z     vdW  Elec       q    Type
REMARK                         _______ _______ _______ _____ _____    ______ ____
ROOT
ATOM      1  C   UNL     1       0.303  -0.195  -2.172  0.00  0.00    +0.121 A 
ATOM      2  C   UNL     1       0.964   0.451  -3.232  0.00  0.00    +0.047 A 
ATOM      3  C   UNL     1       1.670  -0.223  -4.165  0.00  0.00    +0.029 A 
ATOM      4  C   UNL     1       1.766  -1.684  -4.094  0.00  0.00    +0.043 A 
ATOM      5  N   UNL     1       2.391  -2.558  -4.847  0.00  0.00    -0.375 N 
ATOM      6  C   UNL     1       2.082  -3.899  -4.355  0.00  0.00    +0.131 C 
ATOM      7  C   UNL     1       3.350  -4.679  -3.989  0.00  0.00    +0.133 C 
ATOM      8  N   UNL     1       2.952  -5.818  -3.147  0.00  0.00    -0.291 N 
ATOM      9  C   UNL     1       2.265  -5.598  -1.870  0.00  0.00    +0.113 C 
ATOM     10  C   UNL     1       0.965  -4.811  -2.120  0.00  0.00    +0.052 C 
ATOM     11  C   UNL     1       1.289  -3.686  -3.076  0.00  0.00    -0.035 C 
ATOM     12  C   UNL     1       1.074  -2.368  -2.972  0.00  0.00    +0.003 A 
ATOM     13  C   UNL     1       0.336  -1.539  -2.011  0.00  0.00    +0.055 A 
ATOM     14  C   UNL     1       3.222  -7.075  -3.552  0.00  0.00    +0.222 C 
ATOM     15  O   UNL     1       3.873  -7.261  -4.558  0.00  0.00    -0.275 OA
ATOM     16  H   UNL     1       2.961  -2.350  -5.603  0.00  0.00    +0.160 HD
ENDROOT
BRANCH  14  17
ATOM     17  C   UNL     1       2.714  -8.248  -2.755  0.00  0.00    +0.048 C 
ATOM     18  C   UNL     1       3.354  -8.236  -1.365  0.00  0.00    +0.019 C 
ATOM     19  C   UNL     1       2.839  -9.428  -0.556  0.00  0.00    -0.009 C 
ATOM     20  C   UNL     1       3.204 -10.729  -1.274  0.00  0.00    +0.007 C 
ATOM     21  C   UNL     1       2.564 -10.741  -2.664  0.00  0.00    -0.009 C 
ATOM     22  C   UNL     1       3.079  -9.549  -3.473  0.00  0.00    +0.019 C 
ATOM     23  C   UNL     1       1.043 -10.644  -2.526  0.00  0.00    +0.007 C 
ATOM     24  C   UNL     1       0.678  -9.344  -1.807  0.00  0.00    -0.009 C 
ATOM     25  C   UNL     1       1.318  -9.331  -0.418  0.00  0.00    +0.007 C 
ATOM     26  C   UNL     1       1.193  -8.152  -2.617  0.00  0.00    +0.019 C 
ENDBRANCH  14  17
BRANCH   7  27
ATOM     27  C   UNL     1       4.297  -3.787  -3.229  0.00  0.00    -0.023 A 
ATOM     28  C   UNL     1       5.553  -3.518  -3.740  0.00  0.00    +0.007 A 
ATOM     29  C   UNL     1       6.422  -2.699  -3.044  0.00  0.00    +0.022 A 
ATOM     30  C   UNL     1       6.035  -2.149  -1.835  0.00  0.00    +0.071 A 
ATOM     31  C   UNL     1       4.778  -2.419  -1.324  0.00  0.00    +0.145 A 
ATOM     32  C   UNL     1       3.908  -3.233  -2.024  0.00  0.00    +0.039 A 
ATOM     33 CL   UNL     1       7.126  -1.121  -0.959  0.00  0.00    -0.081 Cl
BRANCH  31  34
ATOM     34  N   UNL     1       4.362  -1.831  -0.031  0.00  0.00    +0.058 N 
ATOM     35  O   UNL     1       3.264  -2.067   0.415  0.00  0.00    -0.126 OA
ATOM     36  O   UNL     1       5.122  -1.114   0.579  0.00  0.00    -0.126 OA
ENDBRANCH  31  34
ENDBRANCH   7  27
BRANCH   1  38
ATOM     37  C   UNL     1      -0.398   1.970  -1.484  0.00  0.00    +0.277 C 
ATOM     38  O   UNL     1      -0.390   0.556  -1.276  0.00  0.00    -0.495 OA
ENDBRANCH   1  38
TORSDOF 4
