REMARK  Name = ZINC49500199
REMARK  8 active torsions:
REMARK  status: ('A' for Active; 'I' for Inactive)
REMARK    1  A    between atoms: C_1  and  C_2
REMARK    2  A    between atoms: C_2  and  C_3
REMARK    3  A    between atoms: C_2  and  C_4
REMARK    4  A    between atoms: C_2  and  C_5
REMARK    5  A    between atoms: C_8  and  N_10
REMARK    6  A    between atoms: N_10  and  S_11
REMARK    7  A    between atoms: S_11  and  C_14
REMARK    8  A    between atoms: N_20  and  N_21
REMARK                            x       y       z     vdW  Elec       q    Type
REMARK                         _______ _______ _______ _____ _____    ______ ____
ROOT
ATOM      1  S   UNL     1       1.109  -2.432  -5.732  0.00  0.00    +0.094 S 
ATOM      2  O   UNL     1       1.698  -1.246  -6.248  0.00  0.00    -0.148 OA
ATOM      3  O   UNL     1       1.884  -3.520  -5.248  0.00  0.00    -0.148 OA
ENDROOT
BRANCH   1   4
ATOM      4  C   UNL     1       0.076  -3.077  -7.006  0.00  0.00    +0.115 A 
ATOM      5  C   UNL     1      -0.255  -4.426  -7.037  0.00  0.00    +0.046 A 
ATOM      6  C   UNL     1      -1.065  -4.900  -8.048  0.00  0.00    +0.086 A 
ATOM      7  N   UNL     1      -1.528  -4.089  -8.982  0.00  0.00    -0.349 N 
ATOM      8  C   UNL     1      -1.234  -2.798  -8.987  0.00  0.00    +0.112 A 
ATOM      9  C   UNL     1      -0.427  -2.251  -7.994  0.00  0.00    +0.071 A 
ATOM     10  N   UNL     1      -1.742  -1.980  -9.989  0.00  0.00    -0.269 N 
ATOM     11  H   UNL     1      -1.530  -1.034  -9.997  0.00  0.00    +0.167 HD
ATOM     12  H   UNL     1      -2.096  -4.448  -9.681  0.00  0.00    +0.167 HD
BRANCH  10  13
ATOM     13  N   UNL     1      -2.540  -2.509 -10.964  0.00  0.00    -0.255 NA
ATOM     14  H   UNL     1      -2.831  -1.799 -11.618  0.00  0.00    +0.140 HD
ATOM     15  H   UNL     1      -2.076  -3.270 -11.438  0.00  0.00    +0.140 HD
ENDBRANCH  10  13
ENDBRANCH   1   4
BRANCH   1  16
ATOM     16  N   UNL     1       0.119  -1.967  -4.488  0.00  0.00    -0.070 NA
BRANCH  16  20
ATOM     17  C   UNL     1       0.707  -0.490  -1.238  0.00  0.00    +0.056 A 
ATOM     18  C   UNL     1       2.056  -0.430  -1.354  0.00  0.00    +0.072 A 
ATOM     19  S   UNL     1       2.281  -1.127  -2.982  0.00  0.00    -0.057 S 
ATOM     20  C   UNL     1       0.662  -1.417  -3.338  0.00  0.00    +0.202 A 
ATOM     21  N   UNL     1       0.038  -0.999  -2.257  0.00  0.00    -0.227 NA
BRANCH  17  23
ATOM     22  C   UNL     1      -0.019   1.526   0.010  0.00  0.00    +0.017 C 
ATOM     23  C   UNL     1       0.002  -0.004   0.002  0.00  0.00    +0.005 C 
ATOM     24  C   UNL     1       0.742  -0.511   1.242  0.00  0.00    +0.017 C 
ATOM     25  C   UNL     1      -1.433  -0.534   0.013  0.00  0.00    +0.017 C 
ENDBRANCH  17  23
ENDBRANCH  16  20
ENDBRANCH   1  16
TORSDOF 5
