REMARK  Name = ZINC04475314
REMARK  6 active torsions:
REMARK  status: ('A' for Active; 'I' for Inactive)
REMARK    1  A    between atoms: C_2  and  C_3
REMARK    2  A    between atoms: C_3  and  N_4
REMARK    3  A    between atoms: C_12  and  O_35
REMARK    4  A    between atoms: N_18  and  N_19
REMARK    5  A    between atoms: C_20  and  C_22
REMARK    6  A    between atoms: C_30  and  O_34
REMARK                            x       y       z     vdW  Elec       q    Type
REMARK                         _______ _______ _______ _____ _____    ______ ____
ROOT
ATOM      1  N   UNL     1       1.352  -1.689   1.105  0.00  0.00    +0.386 N 
ATOM      2  C   UNL     1       0.219  -2.617   1.036  0.00  0.00    -0.077 C 
ATOM      3  C   UNL     1       0.251  -3.574   2.235  0.00  0.00    -0.000 C 
ATOM      4  C   UNL     1       1.583  -4.321   2.214  0.00  0.00    +0.067 C 
ATOM      5  C   UNL     1       1.738  -5.041   0.897  0.00  0.00    +0.014 A 
ATOM      6  C   UNL     1       2.263  -4.524  -0.265  0.00  0.00    -0.041 A 
ATOM      7  C   UNL     1       2.286  -5.383  -1.350  0.00  0.00    +0.007 A 
ATOM      8  C   UNL     1       1.855  -6.692  -1.213  0.00  0.00    +0.049 A 
ATOM      9  C   UNL     1       1.401  -7.224  -0.009  0.00  0.00    +0.159 A 
ATOM     10  C   UNL     1       1.363  -6.362   1.093  0.00  0.00    +0.167 A 
ATOM     11  O   UNL     1       1.049  -6.572   2.390  0.00  0.00    -0.478 OA
ATOM     12  C   UNL     1       1.603  -5.487   3.192  0.00  0.00    +0.232 C 
ATOM     13  C   UNL     1       2.998  -5.883   3.574  0.00  0.00    +0.078 C 
ATOM     14  N   UNL     1       3.206  -7.085   3.962  0.00  0.00    -0.185 NA
ATOM     15  C   UNL     1       4.161  -4.938   3.523  0.00  0.00    +0.059 C 
ATOM     16  C   UNL     1       4.071  -4.066   2.269  0.00  0.00    +0.040 C 
ATOM     17  C   UNL     1       2.733  -3.328   2.283  0.00  0.00    +0.068 C 
ATOM     18  C   UNL     1       2.627  -2.413   1.060  0.00  0.00    -0.031 C 
ATOM     19  C   UNL     1       2.791  -3.127  -0.271  0.00  0.00    +0.023 C 
ATOM     20  H   UNL     1       1.298  -1.164   1.965  0.00  0.00    -0.081 HD
ENDROOT
BRANCH  14  21
ATOM     21  N   UNL     1       4.466  -7.456   4.451  0.00  0.00    -0.203 N 
ATOM     22  C   UNL     1       4.718  -8.744   4.757  0.00  0.00    +0.263 C 
ATOM     23  O   UNL     1       3.852  -9.584   4.609  0.00  0.00    -0.268 OA
ATOM     24  H   UNL     1       5.157  -6.785   4.569  0.00  0.00    +0.178 HD
BRANCH  22  25
ATOM     25  C   UNL     1       6.046  -9.135   5.273  0.00  0.00    +0.038 A 
ATOM     26  C   UNL     1       7.041  -8.171   5.449  0.00  0.00    +0.013 A 
ATOM     27  C   UNL     1       8.279  -8.543   5.931  0.00  0.00    +0.001 A 
ATOM     28  C   UNL     1       8.536  -9.867   6.240  0.00  0.00    +0.000 A 
ATOM     29  C   UNL     1       7.555 -10.827   6.067  0.00  0.00    +0.001 A 
ATOM     30  C   UNL     1       6.311 -10.468   5.591  0.00  0.00    +0.013 A 
ENDBRANCH  22  25
ENDBRANCH  14  21
BRANCH  17  31
ATOM     31  O   UNL     1       2.626  -2.554   3.479  0.00  0.00    -0.389 OA
ATOM     32  H   UNL     1       3.329  -1.899   3.588  0.00  0.00    +0.210 HD
ENDBRANCH  17  31
BRANCH   9  33
ATOM     33  O   UNL     1       1.012  -8.524   0.092  0.00  0.00    -0.503 OA
ATOM     34  H   UNL     1       1.726  -9.131   0.330  0.00  0.00    +0.292 HD
ENDBRANCH   9  33
BRANCH   1  35
ATOM     35  C   UNL     1       1.284  -0.761  -0.032  0.00  0.00    -0.051 C 
BRANCH  35  37
ATOM     36  C   UNL     1       0.170   1.409   0.081  0.00  0.00    +0.002 C 
ATOM     37  C   UNL     1       0.057   0.104   0.098  0.00  0.00    -0.053 C 
ENDBRANCH  35  37
ENDBRANCH   1  35
TORSDOF 6
