REMARK  Name = ZINC00875666
REMARK  5 active torsions:
REMARK  status: ('A' for Active; 'I' for Inactive)
REMARK    1  A    between atoms: C_1  and  C_2
REMARK    2  A    between atoms: C_5  and  C_8
REMARK    3  A    between atoms: C_13  and  C_18
REMARK    4  A    between atoms: C_13  and  C_19
REMARK    5  A    between atoms: C_25  and  O_27
REMARK                            x       y       z     vdW  Elec       q    Type
REMARK                         _______ _______ _______ _____ _____    ______ ____
ROOT
ATOM      1  C   UNL     1       0.009   1.540  -0.293  0.00  0.00    +0.058 C 
ATOM      2  C   UNL     1      -0.692   1.939   1.008  0.00  0.00    +0.081 C 
ATOM      3  C   UNL     1      -0.463   3.437   1.238  0.00  0.00    +0.182 C 
ATOM      4  C   UNL     1      -0.943   4.219   0.012  0.00  0.00    +0.094 C 
ATOM      5  C   UNL     1      -0.815   5.717   0.307  0.00  0.00    +0.036 C 
ATOM      6  N   UNL     1      -1.547   6.030   1.535  0.00  0.00    -0.294 N 
ATOM      7  C   UNL     1      -1.701   5.120   2.508  0.00  0.00    +0.303 C 
ATOM      8  O   UNL     1      -2.309   5.436   3.513  0.00  0.00    -0.253 OA
ATOM      9  N   UNL     1      -1.212   3.874   2.415  0.00  0.00    -0.262 N 
ATOM     10  C   UNL     1      -1.402   6.519  -0.856  0.00  0.00    +0.031 C 
ATOM     11  C   UNL     1       0.661   6.080   0.485  0.00  0.00    +0.031 C 
ATOM     12  O   UNL     1       0.932   3.661   1.438  0.00  0.00    -0.468 OA
ATOM     13  C   UNL     1       1.802   3.094   0.562  0.00  0.00    +0.131 A 
ATOM     14  C   UNL     1       1.419   2.074  -0.292  0.00  0.00    +0.004 A 
ATOM     15  C   UNL     1       2.340   1.523  -1.168  0.00  0.00    +0.031 A 
ATOM     16  C   UNL     1       3.642   1.984  -1.194  0.00  0.00    +0.083 A 
ATOM     17  C   UNL     1       4.032   3.005  -0.338  0.00  0.00    +0.139 A 
ATOM     18  C   UNL     1       3.113   3.558   0.537  0.00  0.00    +0.093 A 
ATOM     19 CL   UNL     1       4.788   1.288  -2.296  0.00  0.00    -0.080 Cl
ATOM     20  H   UNL     1      -1.928   6.915   1.649  0.00  0.00    +0.151 HD
ATOM     21  H   UNL     1      -1.358   3.251   3.144  0.00  0.00    +0.154 HD
ENDROOT
BRANCH   1  26
ATOM     22  C   UNL     1       0.133  -4.221  -0.727  0.00  0.00    +0.044 C 
ATOM     23  C   UNL     1       0.100  -2.718  -0.614  0.00  0.00    -0.050 A 
ATOM     24  C   UNL     1      -0.541  -1.966  -1.580  0.00  0.00    +0.003 A 
ATOM     25  C   UNL     1      -0.571  -0.588  -1.476  0.00  0.00    +0.004 A 
ATOM     26  C   UNL     1       0.041   0.038  -0.406  0.00  0.00    -0.040 A 
ATOM     27  C   UNL     1       0.686  -0.714   0.557  0.00  0.00    +0.004 A 
ATOM     28  C   UNL     1       0.712  -2.092   0.457  0.00  0.00    +0.003 A 
ENDBRANCH   1  26
BRANCH  17  29
ATOM     29  O   UNL     1       5.312   3.460  -0.358  0.00  0.00    -0.505 OA
ATOM     30  H   UNL     1       5.905   2.994   0.247  0.00  0.00    +0.292 HD
ENDBRANCH  17  29
TORSDOF 2
