REMARK  Name = ZINC40529881
REMARK  10 active torsions:
REMARK  status: ('A' for Active; 'I' for Inactive)
REMARK    1  A    between atoms: C_2  and  C_3
REMARK    2  A    between atoms: C_3  and  O_4
REMARK    3  A    between atoms: O_4  and  C_5
REMARK    4  A    between atoms: C_9  and  C_11
REMARK    5  A    between atoms: C_16  and  O_25
REMARK    6  A    between atoms: C_20  and  N_24
REMARK    7  A    between atoms: C_21  and  C_22
REMARK    8  A    between atoms: O_25  and  C_26
REMARK    9  A    between atoms: C_26  and  C_28
REMARK   10  A    between atoms: C_28  and  C_29
REMARK                            x       y       z     vdW  Elec       q    Type
REMARK                         _______ _______ _______ _____ _____    ______ ____
ROOT
ATOM      1  C   UNL     1      -3.495  -5.616  -3.079  0.00  0.00    +0.098 C 
ATOM      2  C   UNL     1      -3.682  -6.915  -2.341  0.00  0.00    +0.008 A 
ATOM      3  C   UNL     1      -2.595  -7.510  -1.725  0.00  0.00    +0.012 A 
ATOM      4  C   UNL     1      -2.747  -8.701  -1.044  0.00  0.00    +0.047 A 
ATOM      5  C   UNL     1      -3.994  -9.307  -0.977  0.00  0.00    +0.135 A 
ATOM      6  C   UNL     1      -5.084  -8.715  -1.593  0.00  0.00    +0.093 A 
ATOM      7  C   UNL     1      -4.929  -7.516  -2.277  0.00  0.00    +0.138 A 
ATOM      8  O   UNL     1      -6.006  -6.949  -2.876  0.00  0.00    -0.441 OA
ATOM      9  C   UNL     1      -5.830  -6.033  -3.842  0.00  0.00    +0.199 C 
ATOM     10  C   UNL     1      -4.664  -5.366  -3.990  0.00  0.00    +0.098 C 
ENDROOT
BRANCH   1  15
ATOM     11  C   UNL     1      -2.146  -2.677  -1.124  0.00  0.00    +0.121 A 
ATOM     12  C   UNL     1      -3.197  -2.420  -0.255  0.00  0.00    +0.045 A 
ATOM     13  C   UNL     1      -4.338  -3.197  -0.304  0.00  0.00    +0.004 A 
ATOM     14  C   UNL     1      -4.433  -4.230  -1.218  0.00  0.00    +0.005 A 
ATOM     15  C   UNL     1      -3.388  -4.489  -2.084  0.00  0.00    -0.031 A 
ATOM     16  C   UNL     1      -2.247  -3.711  -2.043  0.00  0.00    +0.050 A 
BRANCH  11  17
ATOM     17  O   UNL     1      -1.023  -1.913  -1.078  0.00  0.00    -0.488 OA
BRANCH  17  18
ATOM     18  C   UNL     1      -0.989  -0.867  -0.106  0.00  0.00    +0.256 C 
BRANCH  18  20
ATOM     19  C   UNL     1       0.346   1.177  -0.181  0.00  0.00    +0.007 C 
ATOM     20  C   UNL     1       0.324  -0.133  -0.203  0.00  0.00    +0.006 C 
ENDBRANCH  18  20
ENDBRANCH  17  18
ENDBRANCH  11  17
ENDBRANCH   1  15
BRANCH   9  21
ATOM     21  N   UNL     1      -6.865  -5.766  -4.704  0.00  0.00    -0.328 N 
ATOM     22  H   UNL     1      -7.708  -6.237  -4.609  0.00  0.00    +0.145 HD
ATOM     23  H   UNL     1      -6.753  -5.107  -5.407  0.00  0.00    +0.145 HD
ENDBRANCH   9  21
BRANCH  10  24
ATOM     24  C   UNL     1      -4.542  -4.400  -5.040  0.00  0.00    +0.101 C 
ATOM     25  N   UNL     1      -4.445  -3.634  -5.873  0.00  0.00    -0.191 NA
ENDBRANCH  10  24
BRANCH   5  26
ATOM     26  O   UNL     1      -4.146 -10.481  -0.308  0.00  0.00    -0.425 OA
BRANCH  26  27
ATOM     27  C   UNL     1      -4.403 -11.587  -1.025  0.00  0.00    +0.317 C 
ATOM     28  O   UNL     1      -4.391 -11.540  -2.232  0.00  0.00    -0.250 OA
BRANCH  27  29
ATOM     29  C   UNL     1      -4.707 -12.885  -0.323  0.00  0.00    +0.156 C 
BRANCH  29  30
ATOM     30  C   UNL     1      -4.958 -13.963  -1.347  0.00  0.00    -0.029 A 
ATOM     31  C   UNL     1      -6.229 -14.249  -1.742  0.00  0.00    +0.005 A 
ATOM     32  C   UNL     1      -6.479 -15.241  -2.688  0.00  0.00    +0.001 A 
ATOM     33  C   UNL     1      -5.461 -15.954  -3.243  0.00  0.00    +0.008 A 
ATOM     34  C   UNL     1      -4.136 -15.686  -2.860  0.00  0.00    -0.018 A 
ATOM     35  C   UNL     1      -3.880 -14.672  -1.903  0.00  0.00    -0.014 A 
ATOM     36  C   UNL     1      -2.554 -14.401  -1.524  0.00  0.00    +0.009 A 
ATOM     37  C   UNL     1      -1.536 -15.109  -2.084  0.00  0.00    +0.001 A 
ATOM     38  C   UNL     1      -1.787 -16.102  -3.030  0.00  0.00    +0.001 A 
ATOM     39  C   UNL     1      -3.059 -16.401  -3.411  0.00  0.00    +0.008 A 
ENDBRANCH  29  30
ENDBRANCH  27  29
ENDBRANCH  26  27
ENDBRANCH   5  26
TORSDOF 10
