REMARK  Name = ZINC04366879
REMARK  5 active torsions:
REMARK  status: ('A' for Active; 'I' for Inactive)
REMARK    1  A    between atoms: C_1  and  N_2
REMARK    2  A    between atoms: N_2  and  C_3
REMARK    3  A    between atoms: N_2  and  C_4
REMARK    4  A    between atoms: C_9  and  N_10
REMARK    5  A    between atoms: C_19  and  O_21
REMARK                            x       y       z     vdW  Elec       q    Type
REMARK                         _______ _______ _______ _____ _____    ______ ____
ROOT
ATOM      1  C   UNL     1       3.401   3.300  -0.010  0.00  0.00    +0.060 A 
ATOM      2  C   UNL     1       2.015   3.186   0.001  0.00  0.00    +0.032 A 
ATOM      3  C   UNL     1       1.426   1.942  -0.001  0.00  0.00    -0.005 A 
ATOM      4  C   UNL     1       2.212   0.791  -0.015  0.00  0.00    -0.009 A 
ATOM      5  C   UNL     1       3.604   0.909  -0.026  0.00  0.00    +0.043 A 
ATOM      6  C   UNL     1       4.190   2.156  -0.025  0.00  0.00    +0.148 A 
ATOM      7  C   UNL     1       1.335  -0.406  -0.013  0.00  0.00    -0.012 A 
ATOM      8  C   UNL     1       1.639  -1.768  -0.023  0.00  0.00    +0.009 A 
ATOM      9  C   UNL     1       0.623  -2.701  -0.018  0.00  0.00    +0.001 A 
ATOM     10  C   UNL     1      -0.698  -2.292  -0.003  0.00  0.00    +0.000 A 
ATOM     11  C   UNL     1      -1.007  -0.944   0.007  0.00  0.00    +0.007 A 
ATOM     12  C   UNL     1       0.002  -0.004   0.002  0.00  0.00    -0.007 A 
ATOM     13  C   UNL     1      -0.018   1.505   0.010  0.00  0.00    +0.176 C 
ENDROOT
BRANCH   1  15
ATOM     14  C   UNL     1       3.593   5.338  -1.188  0.00  0.00    +0.129 C 
ATOM     15  N   UNL     1       3.998   4.561  -0.008  0.00  0.00    -0.334 N 
ATOM     16  C   UNL     1       3.691   5.287   1.231  0.00  0.00    +0.129 C 
ENDBRANCH   1  15
BRANCH   6  17
ATOM     17  N   UNL     1       5.665   2.278  -0.037  0.00  0.00    +0.058 N 
ATOM     18  O   UNL     1       6.359   1.277  -0.049  0.00  0.00    -0.126 OA
ATOM     19  O   UNL     1       6.186   3.379  -0.035  0.00  0.00    -0.126 OA
ENDBRANCH   6  17
BRANCH  13  20
ATOM     20  O   UNL     1      -0.667   1.982   1.191  0.00  0.00    -0.382 OA
ATOM     21  H   UNL     1      -1.591   1.708   1.270  0.00  0.00    +0.211 HD
ENDBRANCH  13  20
TORSDOF 3
