REMARK  Name = ZINC15859187
REMARK  11 active torsions:
REMARK  status: ('A' for Active; 'I' for Inactive)
REMARK    1  A    between atoms: C_1  and  C_2
REMARK    2  A    between atoms: C_7  and  C_33
REMARK    3  A    between atoms: C_8  and  C_13
REMARK    4  A    between atoms: C_13  and  C_14
REMARK    5  A    between atoms: C_17  and  S_20
REMARK    6  A    between atoms: N_18  and  C_19
REMARK    7  A    between atoms: S_20  and  C_21
REMARK    8  A    between atoms: C_21  and  C_22
REMARK    9  A    between atoms: N_24  and  C_25
REMARK   10  A    between atoms: C_28  and  C_32
REMARK   11  A    between atoms: C_29  and  C_31
REMARK                            x       y       z     vdW  Elec       q    Type
REMARK                         _______ _______ _______ _____ _____    ______ ____
ROOT
ATOM      1  C   UNL     1       2.035   0.717   0.373  0.00  0.00    +0.138 A 
ATOM      2  N   UNL     1       1.200   1.703   0.204  0.00  0.00    -0.133 NA
ATOM      3  N   UNL     1      -0.007   1.262   0.195  0.00  0.00    -0.122 NA
ATOM      4  C   UNL     1      -0.008  -0.041   0.358  0.00  0.00    +0.192 A 
ATOM      5  N   UNL     1       1.296  -0.429   0.477  0.00  0.00    -0.309 N 
ATOM      6  C   UNL     1       1.798  -1.791   0.675  0.00  0.00    +0.152 C 
ENDROOT
BRANCH   1   7
ATOM      7  C   UNL     1       3.537   0.820   0.440  0.00  0.00    +0.118 C 
BRANCH   7  15
ATOM      8  C   UNL     1       5.915  -3.388  -5.088  0.00  0.00    +0.045 C 
ATOM      9  C   UNL     1       5.646  -2.022  -4.510  0.00  0.00    -0.034 A 
ATOM     10  C   UNL     1       5.934  -0.875  -5.264  0.00  0.00    +0.008 A 
ATOM     11  C   UNL     1       5.688   0.356  -4.734  0.00  0.00    +0.047 A 
ATOM     12  C   UNL     1       5.149   0.456  -3.438  0.00  0.00    +0.140 A 
ATOM     13  N   UNL     1       4.909   1.659  -2.918  0.00  0.00    -0.234 NA
ATOM     14  C   UNL     1       4.403   1.795  -1.703  0.00  0.00    +0.049 A 
ATOM     15  C   UNL     1       4.113   0.677  -0.945  0.00  0.00    +0.046 A 
ATOM     16  C   UNL     1       4.368  -0.590  -1.482  0.00  0.00    +0.262 A 
ATOM     17  O   UNL     1       4.127  -1.597  -0.836  0.00  0.00    -0.267 OA
ATOM     18  N   UNL     1       4.880  -0.680  -2.728  0.00  0.00    -0.268 N 
ATOM     19  C   UNL     1       5.129  -1.906  -3.267  0.00  0.00    +0.099 A 
ATOM     20  C   UNL     1       4.143   3.171  -1.145  0.00  0.00    +0.066 C 
ENDBRANCH   7  15
ENDBRANCH   1   7
BRANCH   4  21
ATOM     21  S   UNL     1      -1.423  -1.089   0.413  0.00  0.00    -0.077 S 
BRANCH  21  22
ATOM     22  C   UNL     1      -2.733   0.140   0.189  0.00  0.00    +0.173 C 
BRANCH  22  23
ATOM     23  C   UNL     1      -4.074  -0.548   0.203  0.00  0.00    +0.227 C 
ATOM     24  O   UNL     1      -4.138  -1.750   0.350  0.00  0.00    -0.275 OA
ATOM     25  N   UNL     1      -5.203   0.173   0.052  0.00  0.00    -0.285 N 
ATOM     26  H   UNL     1      -5.158   1.141   0.011  0.00  0.00    +0.155 HD
BRANCH  25  27
ATOM     27  C   UNL     1      -6.439  -0.475  -0.045  0.00  0.00    +0.034 A 
ATOM     28  C   UNL     1      -6.528  -1.716  -0.663  0.00  0.00    +0.023 A 
ATOM     29  C   UNL     1      -7.748  -2.356  -0.752  0.00  0.00    +0.005 A 
ATOM     30  C   UNL     1      -8.884  -1.756  -0.238  0.00  0.00    -0.047 A 
ATOM     31  C   UNL     1      -8.800  -0.518   0.372  0.00  0.00    -0.046 A 
ATOM     32  C   UNL     1      -7.581   0.124   0.470  0.00  0.00    +0.027 A 
ATOM     33  C   UNL     1     -10.040   0.131   0.930  0.00  0.00    +0.044 C 
ATOM     34  C   UNL     1     -10.215  -2.454  -0.343  0.00  0.00    +0.044 C 
ENDBRANCH  25  27
ENDBRANCH  22  23
ENDBRANCH  21  22
ENDBRANCH   4  21
TORSDOF 6
