REMARK  Name = ZINC40979009
REMARK  1 active torsions:
REMARK  status: ('A' for Active; 'I' for Inactive)
REMARK    1  A    between atoms: C_5  and  C_6
REMARK                            x       y       z     vdW  Elec       q    Type
REMARK                         _______ _______ _______ _____ _____    ______ ____
ROOT
ATOM      1  C   UNL     1      -1.208  -0.902   0.009  0.00  0.00    +0.211 C 
ATOM      2  C   UNL     1      -1.177  -1.777   1.243  0.00  0.00    +0.044 C 
ATOM      3  C   UNL     1      -1.429  -3.102   1.190  0.00  0.00    +0.020 C 
ATOM      4  C   UNL     1      -1.408  -3.947   2.442  0.00  0.00    +0.052 C 
ATOM      5  C   UNL     1      -0.394  -3.372   3.433  0.00  0.00    +0.014 C 
ATOM      6  C   UNL     1      -0.794  -1.927   3.748  0.00  0.00    +0.080 C 
ATOM      7  C   UNL     1      -0.870  -1.150   2.464  0.00  0.00    +0.163 C 
ATOM      8  O   UNL     1      -0.661   0.047   2.481  0.00  0.00    -0.292 OA
ATOM      9  N   UNL     1      -1.709  -3.740   0.004  0.00  0.00    -0.287 N 
ATOM     10  C   UNL     1      -1.445  -3.064  -1.176  0.00  0.00    +0.219 A 
ATOM     11  N   UNL     1      -1.202  -1.732  -1.188  0.00  0.00    -0.218 N 
ATOM     12  N   UNL     1      -0.969  -1.387  -2.519  0.00  0.00    -0.156 NA
ATOM     13  C   UNL     1      -1.083  -2.487  -3.220  0.00  0.00    +0.247 A 
ATOM     14  N   UNL     1      -1.375  -3.499  -2.404  0.00  0.00    -0.201 NA
ATOM     15  H   UNL     1      -2.079  -4.636  -0.005  0.00  0.00    +0.155 HD
ENDROOT
BRANCH   1  20
ATOM     16  C   UNL     1      -0.016   1.341   0.009  0.00  0.00    +0.048 A 
ATOM     17  C   UNL     1       1.331   1.769  -0.001  0.00  0.00    +0.057 A 
ATOM     18  C   UNL     1       2.093   0.659  -0.014  0.00  0.00    +0.170 A 
ATOM     19  O   UNL     1       1.282  -0.412  -0.012  0.00  0.00    -0.451 OA
ATOM     20  C   UNL     1       0.002  -0.004   0.002  0.00  0.00    +0.136 A 
ATOM     21 BR   UNL     1       3.983   0.615  -0.034  0.00  0.00    -0.008 Br
ENDBRANCH   1  20
TORSDOF 1
