REMARK  Name = ZINC07960654
REMARK  3 active torsions:
REMARK  status: ('A' for Active; 'I' for Inactive)
REMARK    1  A    between atoms: C_3  and  C_22
REMARK    2  A    between atoms: C_5  and  N_7
REMARK    3  A    between atoms: C_8  and  C_10
REMARK                            x       y       z     vdW  Elec       q    Type
REMARK                         _______ _______ _______ _____ _____    ______ ____
ROOT
ATOM      1  C   UNL     1       0.791  -1.370  -5.831  0.00  0.00    +0.002 A 
ATOM      2  C   UNL     1       0.249  -1.045  -7.058  0.00  0.00    +0.012 A 
ATOM      3  C   UNL     1      -0.538   0.100  -7.192  0.00  0.00    +0.021 A 
ATOM      4  C   UNL     1      -0.774   0.911  -6.083  0.00  0.00    +0.035 A 
ATOM      5  C   UNL     1      -0.225   0.576  -4.855  0.00  0.00    +0.034 A 
ATOM      6  C   UNL     1       0.562  -0.563  -4.733  0.00  0.00    +0.023 A 
ENDROOT
BRANCH   3   7
ATOM      7  C   UNL     1      -1.120   0.451  -8.506  0.00  0.00    +0.164 A 
ATOM      8  N   UNL     1      -2.131   1.265  -8.724  0.00  0.00    -0.129 NA
ATOM      9  N   UNL     1      -2.363   1.340  -9.988  0.00  0.00    -0.134 NA
ATOM     10  C   UNL     1      -1.520   0.590 -10.641  0.00  0.00    +0.134 A 
ATOM     11  N   UNL     1      -0.708  -0.003  -9.725  0.00  0.00    -0.311 N 
ATOM     12  C   UNL     1       0.364  -0.959 -10.002  0.00  0.00    +0.125 C 
ATOM     13  C   UNL     1       0.931  -0.690 -11.398  0.00  0.00    +0.022 C 
ATOM     14  C   UNL     1       0.155  -1.501 -12.435  0.00  0.00    +0.002 C 
ATOM     15  C   UNL     1      -1.314  -1.089 -12.447  0.00  0.00    +0.008 C 
ATOM     16  C   UNL     1      -1.431   0.406 -12.134  0.00  0.00    +0.076 C 
ENDBRANCH   3   7
BRANCH   5  17
ATOM     17  N   UNL     1      -0.460   1.388  -3.739  0.00  0.00    -0.285 N 
ATOM     18  C   UNL     1      -0.722   2.700  -3.903  0.00  0.00    +0.224 C 
ATOM     19  O   UNL     1      -0.662   3.196  -5.008  0.00  0.00    -0.275 OA
ATOM     20  H   UNL     1      -0.433   1.006  -2.848  0.00  0.00    +0.155 HD
BRANCH  18  21
ATOM     21  C   UNL     1      -1.090   3.549  -2.714  0.00  0.00    +0.117 C 
ATOM     22  C   UNL     1      -1.337   4.990  -3.165  0.00  0.00    +0.055 C 
ATOM     23  C   UNL     1      -1.412   5.893  -1.960  0.00  0.00    -0.004 A 
ATOM     24  C   UNL     1      -1.988   7.145  -2.100  0.00  0.00    +0.027 A 
ATOM     25  C   UNL     1      -2.071   8.000  -1.018  0.00  0.00    +0.041 A 
ATOM     26  C   UNL     1      -1.575   7.606   0.213  0.00  0.00    +0.023 A 
ATOM     27  C   UNL     1      -1.003   6.361   0.357  0.00  0.00    +0.047 A 
ATOM     28  C   UNL     1      -0.920   5.497  -0.730  0.00  0.00    +0.124 A 
ATOM     29  O   UNL     1      -0.351   4.277  -0.546  0.00  0.00    -0.491 OA
ATOM     30  C   UNL     1       0.065   3.552  -1.704  0.00  0.00    +0.242 C 
ATOM     31 CL   UNL     1      -2.795   9.566  -1.201  0.00  0.00    -0.084 Cl
ENDBRANCH  18  21
ENDBRANCH   5  17
TORSDOF 3
