REMARK  Name = ZINC05072168
REMARK  3 active torsions:
REMARK  status: ('A' for Active; 'I' for Inactive)
REMARK    1  A    between atoms: C_4  and  C_7
REMARK    2  A    between atoms: C_8  and  C_22
REMARK    3  A    between atoms: C_9  and  C_15
REMARK                            x       y       z     vdW  Elec       q    Type
REMARK                         _______ _______ _______ _____ _____    ______ ____
ROOT
ATOM      1  C   UNL     1       3.642  -0.732  -0.048  0.00  0.00    +0.051 C 
ATOM      2  C   UNL     1       3.708  -2.086   0.051  0.00  0.00    +0.041 C 
ATOM      3  C   UNL     1       5.080  -2.728   0.024  0.00  0.00    +0.142 C 
ATOM      4  N   UNL     1       6.239  -1.831  -0.110  0.00  0.00    -0.288 N 
ATOM      5  C   UNL     1       6.023  -0.504  -0.199  0.00  0.00    +0.305 C 
ATOM      6  O   UNL     1       6.979   0.239  -0.309  0.00  0.00    -0.252 OA
ATOM      7  N   UNL     1       4.793   0.024  -0.176  0.00  0.00    -0.268 N 
ATOM      8  H   UNL     1       7.140  -2.187  -0.132  0.00  0.00    +0.151 HD
ATOM      9  H   UNL     1       4.705   0.988  -0.248  0.00  0.00    +0.156 HD
ENDROOT
BRANCH   2  10
ATOM     10  C   UNL     1       2.497  -2.894   0.181  0.00  0.00    +0.139 A 
ATOM     11  N   UNL     1       1.525  -3.024  -0.780  0.00  0.00    -0.338 N 
ATOM     12  H   UNL     1       1.519  -2.602  -1.653  0.00  0.00    +0.167 HD
ATOM     13  C   UNL     1       0.556  -3.869  -0.269  0.00  0.00    +0.066 A 
ATOM     14  C   UNL     1      -0.641  -4.366  -0.763  0.00  0.00    +0.028 A 
ATOM     15  C   UNL     1      -1.404  -5.215   0.012  0.00  0.00    +0.002 A 
ATOM     16  C   UNL     1      -0.984  -5.575   1.284  0.00  0.00    +0.002 A 
ATOM     17  C   UNL     1       0.201  -5.093   1.791  0.00  0.00    +0.030 A 
ATOM     18  C   UNL     1       0.989  -4.232   1.019  0.00  0.00    +0.089 A 
ATOM     19  N   UNL     1       2.174  -3.614   1.236  0.00  0.00    -0.228 NA
ENDBRANCH   2  10
BRANCH   3  20
ATOM     20  C   UNL     1       5.249  -3.516   1.298  0.00  0.00    -0.004 A 
ATOM     21  C   UNL     1       5.813  -2.919   2.409  0.00  0.00    +0.007 A 
ATOM     22  C   UNL     1       5.968  -3.642   3.578  0.00  0.00    +0.000 A 
ATOM     23  C   UNL     1       5.558  -4.961   3.635  0.00  0.00    +0.001 A 
ATOM     24  C   UNL     1       4.994  -5.558   2.524  0.00  0.00    +0.020 A 
ATOM     25  C   UNL     1       4.833  -4.834   1.356  0.00  0.00    +0.046 A 
ATOM     26 CL   UNL     1       4.118  -5.582  -0.038  0.00  0.00    -0.083 Cl
ENDBRANCH   3  20
BRANCH   1  30
ATOM     27  C   UNL     1      -0.140   1.198   0.015  0.00  0.00    +0.000 A 
ATOM     28  C   UNL     1       0.167   0.252   0.978  0.00  0.00    +0.001 A 
ATOM     29  C   UNL     1       1.393  -0.379   0.963  0.00  0.00    +0.010 A 
ATOM     30  C   UNL     1       2.326  -0.061  -0.026  0.00  0.00    -0.003 A 
ATOM     31  C   UNL     1       2.010   0.894  -0.995  0.00  0.00    +0.010 A 
ATOM     32  C   UNL     1       0.780   1.517  -0.968  0.00  0.00    +0.001 A 
ENDBRANCH   1  30
TORSDOF 3
