REMARK  Name = ZINC39659913
REMARK  3 active torsions:
REMARK  status: ('A' for Active; 'I' for Inactive)
REMARK    1  A    between atoms: C_5  and  N_9
REMARK    2  A    between atoms: C_10  and  C_12
REMARK    3  A    between atoms: C_23  and  C_25
REMARK                            x       y       z     vdW  Elec       q    Type
REMARK                         _______ _______ _______ _____ _____    ______ ____
ROOT
ATOM      1  C   UNL     1       6.666  -1.451  -0.349  0.00  0.00    +0.100 C 
ATOM      2  C   UNL     1       6.483  -2.960  -0.630  0.00  0.00    +0.121 C 
ATOM      3  N   UNL     1       7.724  -3.589  -0.121  0.00  0.00    -0.300 N 
ATOM      4  C   UNL     1       8.025  -2.852   1.130  0.00  0.00    +0.115 C 
ATOM      5  C   UNL     1       7.678  -1.385   0.806  0.00  0.00    -0.004 C 
ATOM      6  C   UNL     1       8.930  -0.630   0.369  0.00  0.00    -0.010 C 
ATOM      7  C   UNL     1       9.898  -0.528   1.552  0.00  0.00    -0.082 C 
ATOM      8  N   UNL     1       9.242   0.173   2.663  0.00  0.00    +0.379 N 
ATOM      9  C   UNL     1       8.092  -0.605   3.138  0.00  0.00    -0.082 C 
ATOM     10  C   UNL     1       7.049  -0.711   2.022  0.00  0.00    -0.010 C 
ATOM     11  C   UNL     1       8.422  -4.602  -0.670  0.00  0.00    +0.219 C 
ATOM     12  O   UNL     1       9.428  -5.010  -0.128  0.00  0.00    -0.275 OA
ATOM     13  H   UNL     1       9.901   0.293   3.418  0.00  0.00    -0.086 HD
ATOM     14  H   UNL     1       8.927   1.079   2.348  0.00  0.00    -0.086 HD
ENDROOT
BRANCH  11  15
ATOM     15  C   UNL     1       7.954  -5.228  -1.958  0.00  0.00    +0.079 C 
ATOM     16  C   UNL     1       8.911  -6.357  -2.361  0.00  0.00    +0.017 C 
ATOM     17  C   UNL     1       8.516  -6.853  -3.754  0.00  0.00    +0.027 C 
ATOM     18  C   UNL     1       7.041  -7.126  -3.806  0.00  0.00    -0.031 C 
ATOM     19  C   UNL     1       6.189  -6.675  -2.942  0.00  0.00    -0.030 C 
ATOM     20  C   UNL     1       6.556  -5.819  -1.764  0.00  0.00    +0.039 C 
ENDBRANCH  11  15
BRANCH   1  22
ATOM     21  N   UNL     1       5.116   0.470  -0.191  0.00  0.00    -0.312 N 
ATOM     22  C   UNL     1       5.356  -0.832   0.064  0.00  0.00    +0.218 C 
ATOM     23  O   UNL     1       4.517  -1.504   0.626  0.00  0.00    -0.275 OA
ATOM     24  H   UNL     1       5.787   1.008  -0.640  0.00  0.00    +0.149 HD
BRANCH  21  29
ATOM     25  C   UNL     1       1.074   2.998   1.267  0.00  0.00    +0.000 C 
ATOM     26  C   UNL     1       2.182   2.299   2.058  0.00  0.00    +0.000 C 
ATOM     27  C   UNL     1       3.519   2.989   1.782  0.00  0.00    +0.002 C 
ATOM     28  C   UNL     1       4.028   2.579   0.398  0.00  0.00    +0.022 C 
ATOM     29  C   UNL     1       3.842   1.072   0.211  0.00  0.00    +0.073 C 
ATOM     30  C   UNL     1       2.793   0.818  -0.873  0.00  0.00    +0.022 C 
ATOM     31  C   UNL     1       1.398   1.081  -0.303  0.00  0.00    +0.002 C 
ATOM     32  C   UNL     1       1.164   2.590  -0.204  0.00  0.00    +0.000 C 
ENDBRANCH  21  29
ENDBRANCH   1  22
TORSDOF 3
