REMARK  Name = ZINC06801461
REMARK  9 active torsions:
REMARK  status: ('A' for Active; 'I' for Inactive)
REMARK    1  A    between atoms: C_1  and  C_2
REMARK    2  A    between atoms: C_3  and  C_22
REMARK    3  A    between atoms: C_4  and  N_9
REMARK    4  A    between atoms: C_6  and  C_8
REMARK    5  A    between atoms: N_17  and  C_18
REMARK    6  A    between atoms: C_18  and  C_19
REMARK    7  A    between atoms: C_18  and  C_20
REMARK    8  A    between atoms: C_18  and  C_21
REMARK    9  A    between atoms: C_22  and  C_23
REMARK                            x       y       z     vdW  Elec       q    Type
REMARK                         _______ _______ _______ _____ _____    ______ ____
ROOT
ATOM      1  C   UNL     1      -0.699   6.242  -4.907  0.00  0.00    +0.066 C 
ATOM      2  C   UNL     1      -1.357   5.104  -4.170  0.00  0.00    +0.047 A 
ATOM      3  C   UNL     1      -0.788   4.593  -3.020  0.00  0.00    +0.018 A 
ATOM      4  C   UNL     1      -1.434   3.539  -2.372  0.00  0.00    +0.129 A 
ATOM      5  N   UNL     1      -2.566   3.065  -2.886  0.00  0.00    -0.217 NA
ATOM      6  C   UNL     1      -3.076   3.586  -3.983  0.00  0.00    +0.128 A 
ATOM      7  N   UNL     1      -2.490   4.581  -4.618  0.00  0.00    -0.237 NA
ATOM      8  C   UNL     1      -4.363   3.024  -4.530  0.00  0.00    +0.088 C 
ENDROOT
BRANCH   4   9
ATOM      9  N   UNL     1      -0.903   2.991  -1.216  0.00  0.00    -0.312 N 
ATOM     10  C   UNL     1      -0.720   1.541  -1.356  0.00  0.00    +0.125 C 
ATOM     11  C   UNL     1       0.033   1.004  -0.134  0.00  0.00    +0.128 C 
ATOM     12  N   UNL     1      -0.680   1.426   1.081  0.00  0.00    -0.283 N 
ATOM     13  C   UNL     1      -1.025   2.849   1.226  0.00  0.00    +0.128 C 
ATOM     14  C   UNL     1      -1.736   3.313  -0.050  0.00  0.00    +0.125 C 
ATOM     15  C   UNL     1      -1.012   0.532   2.034  0.00  0.00    +0.303 C 
ATOM     16  O   UNL     1      -0.644  -0.623   1.939  0.00  0.00    -0.253 OA
ATOM     17  N   UNL     1      -1.750   0.919   3.093  0.00  0.00    -0.294 N 
ATOM     18  H   UNL     1      -1.980   1.855   3.208  0.00  0.00    +0.151 HD
BRANCH  17  19
ATOM     19  C   UNL     1      -2.207  -0.073   4.069  0.00  0.00    +0.028 C 
ATOM     20  C   UNL     1      -0.996  -0.765   4.697  0.00  0.00    +0.031 C 
ATOM     21  C   UNL     1      -3.020   0.624   5.163  0.00  0.00    +0.031 C 
ATOM     22  C   UNL     1      -3.083  -1.113   3.368  0.00  0.00    +0.031 C 
ENDBRANCH  17  19
ENDBRANCH   4   9
BRANCH   3  23
ATOM     23  C   UNL     1       0.499   5.160  -2.478  0.00  0.00    +0.075 C 
BRANCH  23  24
ATOM     24  C   UNL     1       1.668   4.468  -3.131  0.00  0.00    -0.043 A 
ATOM     25  C   UNL     1       2.204   3.329  -2.559  0.00  0.00    +0.007 A 
ATOM     26  C   UNL     1       3.272   2.691  -3.159  0.00  0.00    +0.038 A 
ATOM     27  C   UNL     1       3.812   3.197  -4.330  0.00  0.00    +0.123 A 
ATOM     28  C   UNL     1       3.277   4.341  -4.899  0.00  0.00    +0.038 A 
ATOM     29  C   UNL     1       2.206   4.974  -4.299  0.00  0.00    +0.007 A 
ATOM     30  F   UNL     1       4.859   2.577  -4.915  0.00  0.00    -0.205 F 
ENDBRANCH  23  24
ENDBRANCH   3  23
TORSDOF 4
