REMARK  Name = ZINC00844597
REMARK  4 active torsions:
REMARK  status: ('A' for Active; 'I' for Inactive)
REMARK    1  A    between atoms: C_1  and  C_2
REMARK    2  A    between atoms: C_5  and  N_14
REMARK    3  A    between atoms: N_14  and  C_15
REMARK    4  A    between atoms: C_21  and  C_23
REMARK                            x       y       z     vdW  Elec       q    Type
REMARK                         _______ _______ _______ _____ _____    ______ ____
ROOT
ATOM      1  N   UNL     1       2.797   0.582   1.417  0.00  0.00    -0.260 N 
ATOM      2  C   UNL     1       3.052   1.505   2.366  0.00  0.00    +0.251 C 
ATOM      3  O   UNL     1       3.409   1.154   3.475  0.00  0.00    -0.270 OA
ENDROOT
BRANCH   1   7
ATOM      4  C   UNL     1      -1.351   1.287   0.393  0.00  0.00    +0.028 C 
ATOM      5  C   UNL     1       0.026   0.622   0.325  0.00  0.00    +0.069 C 
ATOM      6  C   UNL     1       1.101   1.681   0.046  0.00  0.00    +0.049 C 
ATOM      7  C   UNL     1       2.472   1.006   0.053  0.00  0.00    +0.115 C 
ATOM      8  C   UNL     1       2.472  -0.196  -0.854  0.00  0.00    -0.006 A 
ATOM      9  C   UNL     1       3.682  -0.683  -1.321  0.00  0.00    +0.007 A 
ATOM     10  C   UNL     1       3.715  -1.783  -2.156  0.00  0.00    +0.000 A 
ATOM     11  C   UNL     1       2.540  -2.414  -2.522  0.00  0.00    +0.002 A 
ATOM     12  C   UNL     1       1.330  -1.935  -2.061  0.00  0.00    +0.023 A 
ATOM     13  C   UNL     1       1.293  -0.823  -1.227  0.00  0.00    +0.032 A 
ATOM     14  N   UNL     1       0.056  -0.350  -0.776  0.00  0.00    -0.341 N 
ATOM     15  H   UNL     1      -0.768  -0.659  -1.184  0.00  0.00    +0.146 HD
ENDBRANCH   1   7
BRANCH   2  16
ATOM     16  C   UNL     1       2.900   2.940   2.060  0.00  0.00    +0.041 A 
ATOM     17  C   UNL     1       2.597   3.350   0.759  0.00  0.00    +0.017 A 
ATOM     18  C   UNL     1       2.454   4.691   0.475  0.00  0.00    +0.050 A 
ATOM     19  C   UNL     1       2.612   5.638   1.478  0.00  0.00    +0.166 A 
ATOM     20  C   UNL     1       2.914   5.235   2.779  0.00  0.00    +0.167 A 
ATOM     21  C   UNL     1       3.052   3.892   3.071  0.00  0.00    +0.062 A 
ATOM     22  O   UNL     1       3.015   6.346   3.567  0.00  0.00    -0.453 OA
ATOM     23  C   UNL     1       2.370   7.400   2.828  0.00  0.00    +0.466 C 
ATOM     24  O   UNL     1       2.524   6.999   1.454  0.00  0.00    -0.453 OA
ENDBRANCH   2  16
BRANCH   1  25
ATOM     25  C   UNL     1       2.841  -0.779   1.735  0.00  0.00    +0.037 A 
ATOM     26  C   UNL     1       1.742  -1.589   1.481  0.00  0.00    +0.023 A 
ATOM     27  C   UNL     1       1.792  -2.934   1.791  0.00  0.00    +0.002 A 
ATOM     28  C   UNL     1       2.930  -3.472   2.364  0.00  0.00    +0.000 A 
ATOM     29  C   UNL     1       4.023  -2.667   2.624  0.00  0.00    +0.002 A 
ATOM     30  C   UNL     1       3.983  -1.322   2.311  0.00  0.00    +0.023 A 
ENDBRANCH   1  25
TORSDOF 3
