REMARK  Name = ZINC01896712
REMARK  8 active torsions:
REMARK  status: ('A' for Active; 'I' for Inactive)
REMARK    1  A    between atoms: C_1  and  C_2
REMARK    2  A    between atoms: C_2  and  O_3
REMARK    3  A    between atoms: O_3  and  C_4
REMARK    4  A    between atoms: C_4  and  C_6
REMARK    5  A    between atoms: C_10  and  N_11
REMARK    6  A    between atoms: C_12  and  C_14
REMARK    7  A    between atoms: C_18  and  C_27
REMARK    8  A    between atoms: C_20  and  C_23
REMARK                            x       y       z     vdW  Elec       q    Type
REMARK                         _______ _______ _______ _____ _____    ______ ____
ROOT
ATOM      1  C   UNL     1       0.761   9.632   0.044  0.00  0.00    +0.168 A 
ATOM      2  C   UNL     1      -0.199   8.612   0.048  0.00  0.00    +0.117 A 
ATOM      3  C   UNL     1       0.478   7.400   0.036  0.00  0.00    +0.176 A 
ATOM      4  N   UNL     1       0.051   6.131   0.028  0.00  0.00    -0.226 NA
ATOM      5  C   UNL     1       0.913   5.128   0.021  0.00  0.00    +0.082 A 
ATOM      6  C   UNL     1       2.305   5.390   0.009  0.00  0.00    +0.061 A 
ATOM      7  C   UNL     1       2.738   6.668   0.011  0.00  0.00    +0.149 A 
ATOM      8  N   UNL     1       1.821   7.687   0.025  0.00  0.00    -0.208 N 
ATOM      9  N   UNL     1       1.965   9.079   0.030  0.00  0.00    -0.158 NA
ATOM     10 CL   UNL     1      -1.921   8.825   0.065  0.00  0.00    -0.077 Cl
ENDROOT
BRANCH   5  11
ATOM     11  C   UNL     1       0.425   3.737   0.018  0.00  0.00    +0.038 A 
ATOM     12  C   UNL     1      -0.867   3.274   0.028  0.00  0.00    +0.017 A 
ATOM     13  C   UNL     1      -1.081   1.916   0.017  0.00  0.00    +0.008 A 
ATOM     14  C   UNL     1      -0.013   1.076   0.008  0.00  0.00    +0.046 A 
ATOM     15  S   UNL     1       1.361   2.217   0.001  0.00  0.00    -0.095 S 
ENDBRANCH   5  11
BRANCH   1  17
ATOM     16  N   UNL     1       1.495  11.967   0.048  0.00  0.00    -0.274 N 
ATOM     17  C   UNL     1       0.478  11.082   0.053  0.00  0.00    +0.270 C 
ATOM     18  O   UNL     1      -0.671  11.477   0.065  0.00  0.00    -0.268 OA
ATOM     19  H   UNL     1       2.412  11.652   0.038  0.00  0.00    +0.156 HD
BRANCH  16  24
ATOM     20  C   UNL     1       2.132  14.382   0.058  0.00  0.00    +0.091 A 
ATOM     21  C   UNL     1       1.588  15.729   0.063  0.00  0.00    -0.021 A 
ATOM     22  C   UNL     1       0.240  15.806   0.077  0.00  0.00    -0.004 A 
ATOM     23  S   UNL     1      -0.309  14.123   0.074  0.00  0.00    -0.077 S 
ATOM     24  C   UNL     1       1.229  13.326   0.056  0.00  0.00    +0.087 A 
ATOM     25  C   UNL     1      -0.594  17.049   0.091  0.00  0.00    +0.043 C 
ATOM     26  C   UNL     1       0.309  18.233   0.466  0.00  0.00    +0.005 C 
ATOM     27  C   UNL     1       1.582  18.171  -0.384  0.00  0.00    +0.005 C 
ATOM     28  C   UNL     1       2.446  16.989   0.060  0.00  0.00    +0.037 C 
BRANCH  20  29
ATOM     29  C   UNL     1       3.577  14.145   0.052  0.00  0.00    +0.342 C 
ATOM     30  O   UNL     1       4.174  14.053  -1.004  0.00  0.00    -0.245 OA
BRANCH  29  31
ATOM     31  O   UNL     1       4.247  14.030   1.217  0.00  0.00    -0.461 OA
BRANCH  31  33
ATOM     32  C   UNL     1       6.260  13.694   2.546  0.00  0.00    +0.048 C 
ATOM     33  C   UNL     1       5.678  13.797   1.134  0.00  0.00    +0.229 C 
ENDBRANCH  31  33
ENDBRANCH  29  31
ENDBRANCH  20  29
ENDBRANCH  16  24
ENDBRANCH   1  17
BRANCH   7  34
ATOM     34  C   UNL     1       4.214   6.973  -0.001  0.00  0.00    +0.434 C 
ATOM     35  F   UNL     1       4.935   5.781  -0.128  0.00  0.00    -0.164 F 
ATOM     36  F   UNL     1       4.508   7.813  -1.080  0.00  0.00    -0.164 F 
ATOM     37  F   UNL     1       4.569   7.607   1.194  0.00  0.00    -0.164 F 
ENDBRANCH   7  34
TORSDOF 7
