REMARK  Name = ZINC38350099
REMARK  2 active torsions:
REMARK  status: ('A' for Active; 'I' for Inactive)
REMARK    1  A    between atoms: C_5  and  N_7
REMARK    2  A    between atoms: N_7  and  C_8
REMARK                            x       y       z     vdW  Elec       q    Type
REMARK                         _______ _______ _______ _____ _____    ______ ____
ROOT
ATOM      1  C   UNL     1      -0.023   1.836   0.012  0.00  0.00    +0.174 C 
ATOM      2  C   UNL     1       1.478   2.101  -0.001  0.00  0.00    +0.249 C 
ATOM      3  O   UNL     1       1.965   3.215   0.001  0.00  0.00    -0.273 OA
ATOM      4  N   UNL     1       2.188   1.000  -0.013  0.00  0.00    -0.156 NA
ATOM      5  C   UNL     1       1.672  -0.214  -0.015  0.00  0.00    +0.181 C 
ATOM      6  S   UNL     1       0.002  -0.004   0.002  0.00  0.00    -0.081 S 
ENDROOT
BRANCH   5   7
ATOM      7  N   UNL     1       2.355  -1.401  -0.029  0.00  0.00    -0.117 NA
BRANCH   7   8
ATOM      8  C   UNL     1       3.710  -1.403  -0.042  0.00  0.00    +0.195 C 
ATOM      9  N   UNL     1       4.846  -1.404  -0.053  0.00  0.00    -0.172 NA
ENDBRANCH   7   8
ENDBRANCH   5   7
TORSDOF 2
