REMARK  Name = ZINC03173849
REMARK  3 active torsions:
REMARK  status: ('A' for Active; 'I' for Inactive)
REMARK    1  A    between atoms: C_6  and  C_7
REMARK    2  A    between atoms: C_12  and  C_14
REMARK    3  A    between atoms: C_17  and  N_20
REMARK                            x       y       z     vdW  Elec       q    Type
REMARK                         _______ _______ _______ _____ _____    ______ ____
ROOT
ATOM      1  C   UNL     1       1.257  -2.150  -0.021  0.00  0.00    +0.041 C 
ATOM      2  C   UNL     1       2.458  -2.814  -0.140  0.00  0.00    +0.128 C 
ATOM      3  C   UNL     1       2.659  -4.271  -0.262  0.00  0.00    +0.268 C 
ATOM      4  O   UNL     1       1.801  -5.135  -0.278  0.00  0.00    -0.268 OA
ATOM      5  N   UNL     1       3.996  -4.443  -0.355  0.00  0.00    -0.265 N 
ATOM      6  C   UNL     1       4.595  -3.207  -0.289  0.00  0.00    +0.133 C 
ATOM      7  N   UNL     1       3.702  -2.260  -0.164  0.00  0.00    -0.227 NA
ATOM      8  H   UNL     1       4.455  -5.292  -0.448  0.00  0.00    +0.157 HD
ENDROOT
BRANCH   1  14
ATOM      9  C   UNL     1       2.423   0.045  -0.009  0.00  0.00    +0.009 A 
ATOM     10  C   UNL     1       2.386   1.422  -0.006  0.00  0.00    +0.016 A 
ATOM     11  C   UNL     1       1.170   2.087  -0.012  0.00  0.00    +0.018 A 
ATOM     12  C   UNL     1      -0.018   1.373  -0.021  0.00  0.00    +0.016 A 
ATOM     13  C   UNL     1       0.001  -0.004  -0.024  0.00  0.00    +0.009 A 
ATOM     14  C   UNL     1       1.227  -0.684  -0.018  0.00  0.00    -0.023 A 
ATOM     15 BR   UNL     1       1.132   3.977  -0.008  0.00  0.00    -0.050 Br
ENDBRANCH   1  14
BRANCH   6  16
ATOM     16  C   UNL     1       6.053  -2.979  -0.350  0.00  0.00    +0.015 A 
ATOM     17  C   UNL     1       6.927  -4.060  -0.478  0.00  0.00    +0.013 A 
ATOM     18  C   UNL     1       8.287  -3.840  -0.540  0.00  0.00    +0.033 A 
ATOM     19  C   UNL     1       8.787  -2.552  -0.464  0.00  0.00    +0.126 A 
ATOM     20  C   UNL     1       7.927  -1.476  -0.331  0.00  0.00    +0.033 A 
ATOM     21  C   UNL     1       6.564  -1.682  -0.273  0.00  0.00    +0.013 A 
BRANCH  19  22
ATOM     22  N   UNL     1      10.248  -2.324  -0.525  0.00  0.00    +0.056 N 
ATOM     23  O   UNL     1      10.691  -1.191  -0.459  0.00  0.00    -0.126 OA
ATOM     24  O   UNL     1      11.008  -3.269  -0.642  0.00  0.00    -0.126 OA
ENDBRANCH  19  22
ENDBRANCH   6  16
TORSDOF 3
