REMARK  Name = ZINC43547857
REMARK  14 active torsions:
REMARK  status: ('A' for Active; 'I' for Inactive)
REMARK    1  A    between atoms: C_1  and  C_2
REMARK    2  A    between atoms: C_2  and  C_3
REMARK    3  A    between atoms: C_2  and  N_4
REMARK    4  A    between atoms: N_4  and  C_5
REMARK    5  A    between atoms: C_8  and  C_36
REMARK    6  A    between atoms: C_8  and  C_37
REMARK    7  A    between atoms: C_11  and  C_18
REMARK    8  A    between atoms: C_14  and  C_16
REMARK    9  A    between atoms: C_14  and  O_17
REMARK   10  A    between atoms: C_18  and  C_19
REMARK   11  A    between atoms: C_19  and  C_20
REMARK   12  A    between atoms: N_25  and  C_28
REMARK   13  A    between atoms: C_33  and  O_34
REMARK   14  A    between atoms: O_34  and  C_35
REMARK                            x       y       z     vdW  Elec       q    Type
REMARK                         _______ _______ _______ _____ _____    ______ ____
ROOT
ATOM      1  C   UNL     1      -2.045  -2.170   0.212  0.00  0.00    -0.064 C 
ATOM      2  C   UNL     1      -1.388  -2.669   1.523  0.00  0.00    -0.009 C 
ATOM      3  C   UNL     1      -2.499  -3.408   2.316  0.00  0.00    -0.033 C 
ATOM      4  C   UNL     1      -3.787  -2.784   1.765  0.00  0.00    +0.002 C 
ATOM      5  C   UNL     1      -3.472  -2.706   0.244  0.00  0.00    -0.038 C 
ATOM      6  C   UNL     1      -4.537  -1.837  -0.395  0.00  0.00    +0.008 C 
ATOM      7  C   UNL     1      -5.880  -2.569  -0.235  0.00  0.00    +0.035 C 
ATOM      8  C   UNL     1      -6.190  -2.852   1.232  0.00  0.00    +0.064 C 
ATOM      9  C   UNL     1      -5.047  -3.613   1.934  0.00  0.00    +0.039 C 
ATOM     10  C   UNL     1      -7.473  -3.681   1.321  0.00  0.00    +0.041 C 
ATOM     11  C   UNL     1      -2.366  -3.137   3.816  0.00  0.00    +0.011 C 
ATOM     12  C   UNL     1      -2.460  -4.911   2.030  0.00  0.00    +0.011 C 
ENDROOT
BRANCH   1  13
ATOM     13  N   UNL     1      -2.053  -0.702   0.173  0.00  0.00    +0.383 N 
ATOM     14  H   UNL     1      -2.488  -0.346   1.011  0.00  0.00    -0.085 HD
ATOM     15  H   UNL     1      -2.572  -0.390  -0.634  0.00  0.00    -0.085 HD
BRANCH  13  17
ATOM     16  C   UNL     1      -0.039  -0.683  -1.220  0.00  0.00    -0.014 C 
ATOM     17  C   UNL     1      -0.673  -0.206   0.088  0.00  0.00    -0.078 C 
ATOM     18  C   UNL     1      -0.677   1.323   0.126  0.00  0.00    -0.014 C 
ENDBRANCH  13  17
ENDBRANCH   1  13
BRANCH   8  19
ATOM     19  O   UNL     1      -6.388  -1.612   1.914  0.00  0.00    -0.389 OA
ATOM     20  H   UNL     1      -7.116  -1.081   1.562  0.00  0.00    +0.210 HD
ENDBRANCH   8  19
BRANCH   5  21
ATOM     21  C   UNL     1      -3.512  -4.109  -0.366  0.00  0.00    +0.015 C 
BRANCH  21  22
ATOM     22  C   UNL     1      -3.196  -4.024  -1.861  0.00  0.00    +0.096 C 
BRANCH  22  23
ATOM     23  C   UNL     1      -3.236  -5.405  -2.462  0.00  0.00    +0.216 C 
ATOM     24  O   UNL     1      -3.492  -6.363  -1.763  0.00  0.00    -0.276 OA
ATOM     25  N   UNL     1      -2.987  -5.575  -3.775  0.00  0.00    -0.298 N 
ATOM     26  C   UNL     1      -2.670  -4.425  -4.632  0.00  0.00    +0.126 C 
ATOM     27  C   UNL     1      -1.331  -4.689  -5.332  0.00  0.00    +0.124 C 
ATOM     28  N   UNL     1      -1.372  -6.029  -5.933  0.00  0.00    -0.324 N 
ATOM     29  C   UNL     1      -1.689  -7.180  -5.076  0.00  0.00    +0.124 C 
ATOM     30  C   UNL     1      -3.023  -6.917  -4.375  0.00  0.00    +0.126 C 
BRANCH  28  31
ATOM     31  C   UNL     1      -1.114  -6.207  -7.297  0.00  0.00    +0.072 A 
ATOM     32  C   UNL     1       0.181  -6.443  -7.734  0.00  0.00    +0.027 A 
ATOM     33  C   UNL     1       0.434  -6.619  -9.082  0.00  0.00    +0.002 A 
ATOM     34  C   UNL     1      -0.602  -6.559  -9.996  0.00  0.00    +0.004 A 
ATOM     35  C   UNL     1      -1.895  -6.323  -9.568  0.00  0.00    +0.047 A 
ATOM     36  C   UNL     1      -2.157  -6.152  -8.218  0.00  0.00    +0.141 A 
BRANCH  36  37
ATOM     37  O   UNL     1      -3.429  -5.925  -7.795  0.00  0.00    -0.493 OA
ATOM     38  C   UNL     1      -4.449  -5.881  -8.795  0.00  0.00    +0.277 C 
ENDBRANCH  36  37
ENDBRANCH  28  31
ENDBRANCH  22  23
ENDBRANCH  21  22
ENDBRANCH   5  21
TORSDOF 8
