REMARK  Name = ZINC04710353
REMARK  3 active torsions:
REMARK  status: ('A' for Active; 'I' for Inactive)
REMARK    1  A    between atoms: C_1  and  C_2
REMARK    2  A    between atoms: C_5  and  N_8
REMARK    3  A    between atoms: N_25  and  C_28
REMARK                            x       y       z     vdW  Elec       q    Type
REMARK                         _______ _______ _______ _____ _____    ______ ____
ROOT
ATOM      1  N   UNL     1       1.168   2.861   0.917  0.00  0.00    -0.234 N 
ATOM      2  C   UNL     1       0.173   3.739   0.675  0.00  0.00    +0.255 C 
ATOM      3  O   UNL     1       0.333   4.924   0.894  0.00  0.00    -0.269 OA
ATOM      4  C   UNL     1      -1.110   3.248   0.142  0.00  0.00    +0.058 A 
ATOM      5  C   UNL     1      -2.101   4.124  -0.294  0.00  0.00    +0.015 A 
ATOM      6  C   UNL     1      -3.285   3.620  -0.792  0.00  0.00    +0.001 A 
ATOM      7  C   UNL     1      -3.496   2.252  -0.855  0.00  0.00    +0.002 A 
ATOM      8  C   UNL     1      -2.528   1.372  -0.411  0.00  0.00    +0.024 A 
ATOM      9  C   UNL     1      -1.336   1.859   0.091  0.00  0.00    +0.041 A 
ATOM     10  N   UNL     1      -0.341   1.013   0.572  0.00  0.00    -0.311 N 
ATOM     11  C   UNL     1       1.052   1.460   0.520  0.00  0.00    +0.212 C 
ATOM     12  C   UNL     1       1.632   1.238  -0.842  0.00  0.00    +0.025 A 
ATOM     13  C   UNL     1       1.289   1.747  -2.075  0.00  0.00    +0.010 A 
ATOM     14  C   UNL     1       2.046   1.329  -3.164  0.00  0.00    +0.001 A 
ATOM     15  C   UNL     1       3.094   0.444  -3.013  0.00  0.00    +0.002 A 
ATOM     16  C   UNL     1       3.446  -0.072  -1.776  0.00  0.00    +0.024 A 
ATOM     17  C   UNL     1       2.692   0.339  -0.675  0.00  0.00    +0.043 A 
ATOM     18  N   UNL     1       2.820  -0.013   0.657  0.00  0.00    -0.271 N 
ATOM     19  C   UNL     1       1.899   0.596   1.432  0.00  0.00    +0.267 C 
ATOM     20  O   UNL     1       1.773   0.474   2.632  0.00  0.00    -0.271 OA
ATOM     21  C   UNL     1       3.836  -0.938   1.166  0.00  0.00    +0.138 C 
ATOM     22  H   UNL     1      -0.566   0.141   0.931  0.00  0.00    +0.149 HD
ENDROOT
BRANCH   1  27
ATOM     23  C   UNL     1       5.882   4.640   3.522  0.00  0.00    +0.044 C 
ATOM     24  C   UNL     1       4.630   4.167   2.830  0.00  0.00    -0.050 A 
ATOM     25  C   UNL     1       4.597   4.074   1.451  0.00  0.00    +0.005 A 
ATOM     26  C   UNL     1       3.450   3.641   0.814  0.00  0.00    +0.024 A 
ATOM     27  C   UNL     1       2.330   3.300   1.560  0.00  0.00    +0.039 A 
ATOM     28  C   UNL     1       2.364   3.400   2.944  0.00  0.00    +0.024 A 
ATOM     29  C   UNL     1       3.516   3.827   3.576  0.00  0.00    +0.005 A 
ENDBRANCH   1  27
TORSDOF 1
