REMARK  Name = ZINC63886494
REMARK  8 active torsions:
REMARK  status: ('A' for Active; 'I' for Inactive)
REMARK    1  A    between atoms: C_1  and  C_2
REMARK    2  A    between atoms: C_6  and  C_8
REMARK    3  A    between atoms: C_9  and  C_10
REMARK    4  A    between atoms: N_12  and  C_13
REMARK    5  A    between atoms: C_18  and  C_19
REMARK    6  A    between atoms: C_19  and  C_20
REMARK    7  A    between atoms: C_20  and  C_21
REMARK    8  A    between atoms: C_20  and  C_30
REMARK                            x       y       z     vdW  Elec       q    Type
REMARK                         _______ _______ _______ _____ _____    ______ ____
ROOT
ATOM      1  C   UNL     1       5.465  -1.517   6.684  0.00  0.00    +0.050 C 
ENDROOT
BRANCH   1   2
ATOM      2  C   UNL     1       5.702  -1.808   8.143  0.00  0.00    -0.034 C 
ATOM      3  C   UNL     1       4.768  -1.903   9.116  0.00  0.00    -0.001 A 
ATOM      4  C   UNL     1       3.306  -1.768   9.108  0.00  0.00    +0.010 A 
ATOM      5  C   UNL     1       2.627  -1.920  10.267  0.00  0.00    +0.001 A 
ATOM      6  C   UNL     1       3.281  -2.202  11.474  0.00  0.00    +0.002 A 
ATOM      7  C   UNL     1       4.621  -2.341  11.561  0.00  0.00    +0.026 A 
ATOM      8  C   UNL     1       5.435  -2.202  10.403  0.00  0.00    +0.043 A 
ATOM      9  N   UNL     1       6.732  -2.288  10.232  0.00  0.00    -0.380 N 
ATOM     10  C   UNL     1       7.034  -2.060   8.815  0.00  0.00    +0.145 C 
ATOM     11  H   UNL     1       7.383  -2.476  10.927  0.00  0.00    +0.160 HD
ENDBRANCH   1   2
BRANCH   1  12
ATOM     12  C   UNL     1       6.199  -0.260   6.296  0.00  0.00    -0.034 C 
ATOM     13  C   UNL     1       5.658   0.881   5.810  0.00  0.00    -0.001 A 
ATOM     14  C   UNL     1       4.277   1.276   5.508  0.00  0.00    +0.010 A 
ATOM     15  C   UNL     1       4.042   2.515   5.019  0.00  0.00    +0.001 A 
ATOM     16  C   UNL     1       5.081   3.428   4.794  0.00  0.00    +0.002 A 
ATOM     17  C   UNL     1       6.375   3.138   5.047  0.00  0.00    +0.026 A 
ATOM     18  C   UNL     1       6.737   1.864   5.564  0.00  0.00    +0.043 A 
ATOM     19  N   UNL     1       7.900   1.351   5.885  0.00  0.00    -0.380 N 
ATOM     20  C   UNL     1       7.689  -0.015   6.378  0.00  0.00    +0.145 C 
ATOM     21  H   UNL     1       8.757   1.800   5.813  0.00  0.00    +0.160 HD
ENDBRANCH   1  12
BRANCH   1  22
ATOM     22  C   UNL     1       5.976  -2.687   5.840  0.00  0.00    +0.049 C 
BRANCH  22  28
ATOM     23  C   UNL     1       3.960  -4.135   5.473  0.00  0.00    +0.037 A 
ATOM     24  C   UNL     1       3.213  -5.273   5.748  0.00  0.00    +0.023 A 
ATOM     25  C   UNL     1       3.661  -6.181   6.687  0.00  0.00    +0.002 A 
ATOM     26  C   UNL     1       4.852  -5.959   7.353  0.00  0.00    +0.000 A 
ATOM     27  C   UNL     1       5.598  -4.827   7.082  0.00  0.00    +0.005 A 
ATOM     28  C   UNL     1       5.159  -3.917   6.140  0.00  0.00    -0.025 A 
BRANCH  23  31
ATOM     29  C   UNL     1       2.677  -3.611   3.541  0.00  0.00    +0.241 C 
ATOM     30  O   UNL     1       2.398  -4.789   3.419  0.00  0.00    -0.270 OA
ATOM     31  N   UNL     1       3.509  -3.213   4.524  0.00  0.00    -0.282 N 
ATOM     32  H   UNL     1       3.795  -2.288   4.572  0.00  0.00    +0.155 HD
BRANCH  29  34
ATOM     33  C   UNL     1       1.276  -3.025   1.635  0.00  0.00    +0.050 C 
ATOM     34  C   UNL     1       2.110  -2.626   2.620  0.00  0.00    +0.071 C 
BRANCH  33  39
ATOM     35  C   UNL     1       0.047   1.304  -0.260  0.00  0.00    +0.052 C 
ATOM     36  C   UNL     1       0.617  -0.100  -0.475  0.00  0.00    +0.174 C 
ATOM     37  C   UNL     1      -0.472  -1.062  -1.008  0.00  0.00    +0.075 C 
ATOM     38  C   UNL     1      -0.125  -2.354  -0.288  0.00  0.00    +0.022 C 
ATOM     39  C   UNL     1       0.707  -2.037   0.711  0.00  0.00    +0.117 C 
ATOM     40  O   UNL     1       0.971  -0.709   0.781  0.00  0.00    -0.489 OA
ENDBRANCH  33  39
ENDBRANCH  29  34
ENDBRANCH  23  31
ENDBRANCH  22  28
ENDBRANCH   1  22
TORSDOF 7
