REMARK  Name = ZINC31815392
REMARK  8 active torsions:
REMARK  status: ('A' for Active; 'I' for Inactive)
REMARK    1  A    between atoms: C_1  and  O_2
REMARK    2  A    between atoms: O_2  and  C_3
REMARK    3  A    between atoms: C_6  and  C_11
REMARK    4  A    between atoms: C_8  and  O_9
REMARK    5  A    between atoms: O_9  and  C_10
REMARK    6  A    between atoms: N_17  and  C_20
REMARK    7  A    between atoms: C_20  and  C_22
REMARK    8  A    between atoms: C_20  and  C_33
REMARK                            x       y       z     vdW  Elec       q    Type
REMARK                         _______ _______ _______ _____ _____    ______ ____
ROOT
ATOM      1  C   UNL     1       1.270   2.255   3.705  0.00  0.00    +0.109 A 
ATOM      2  N   UNL     1       0.606   3.023   2.856  0.00  0.00    -0.244 NA
ATOM      3  C   UNL     1       0.459   2.704   1.579  0.00  0.00    +0.049 A 
ATOM      4  C   UNL     1       1.024   1.535   1.158  0.00  0.00    -0.004 A 
ATOM      5  S   UNL     1       1.771   0.908   2.638  0.00  0.00    -0.074 S 
ATOM      6  C   UNL     1       0.994   0.962  -0.217  0.00  0.00    -0.032 C 
ATOM      7  N   UNL     1      -0.035   1.681  -0.993  0.00  0.00    +0.395 N 
ATOM      8  C   UNL     1       0.121   3.134  -0.837  0.00  0.00    -0.071 C 
ATOM      9  C   UNL     1      -0.297   3.567   0.570  0.00  0.00    +0.038 C 
ATOM     10  H   UNL     1      -1.025   1.401  -0.603  0.00  0.00    -0.080 HD
ENDROOT
BRANCH   1  14
ATOM     11  C   UNL     1       2.019   2.827   7.852  0.00  0.00    +0.162 A 
ATOM     12  C   UNL     1       2.504   1.698   7.209  0.00  0.00    +0.050 A 
ATOM     13  C   UNL     1       2.263   1.509   5.864  0.00  0.00    +0.014 A 
ATOM     14  C   UNL     1       1.529   2.456   5.147  0.00  0.00    +0.011 A 
ATOM     15  C   UNL     1       1.045   3.595   5.793  0.00  0.00    +0.060 A 
ATOM     16  C   UNL     1       1.286   3.776   7.142  0.00  0.00    +0.162 A 
BRANCH  11  18
ATOM     17  C   UNL     1       3.017   1.997   9.844  0.00  0.00    +0.277 C 
ATOM     18  O   UNL     1       2.259   3.009   9.178  0.00  0.00    -0.491 OA
ENDBRANCH  11  18
BRANCH  16  19
ATOM     19  O   UNL     1       0.811   4.882   7.775  0.00  0.00    -0.491 OA
ATOM     20  C   UNL     1       0.068   5.812   6.986  0.00  0.00    +0.277 C 
ENDBRANCH  16  19
ENDBRANCH   1  14
BRANCH   7  21
ATOM     21  C   UNL     1       0.009   1.296  -2.410  0.00  0.00    +0.080 C 
BRANCH  21  22
ATOM     22  C   UNL     1      -1.065   2.035  -3.166  0.00  0.00    -0.025 A 
ATOM     23  C   UNL     1      -2.217   2.504  -2.661  0.00  0.00    +0.086 A 
ATOM     24  N   UNL     1      -2.942   3.120  -3.646  0.00  0.00    -0.360 N 
ATOM     25  H   UNL     1      -3.920   3.566  -3.412  0.00  0.00    +0.165 HD
ATOM     26  C   UNL     1      -2.256   3.060  -4.838  0.00  0.00    +0.048 A 
ATOM     27  C   UNL     1      -1.047   2.384  -4.589  0.00  0.00    +0.002 A 
ATOM     28  C   UNL     1      -0.136   2.179  -5.626  0.00  0.00    +0.011 A 
ATOM     29  C   UNL     1      -0.421   2.640  -6.880  0.00  0.00    +0.021 A 
ATOM     30  C   UNL     1      -1.610   3.312  -7.132  0.00  0.00    +0.043 A 
ATOM     31  C   UNL     1      -2.528   3.517  -6.123  0.00  0.00    +0.046 A 
ATOM     32 CL   UNL     1      -1.950   3.889  -8.734  0.00  0.00    -0.083 Cl
ENDBRANCH  21  22
BRANCH  21  33
ATOM     33  C   UNL     1      -0.220  -0.188  -2.535  0.00  0.00    +0.347 C 
ATOM     34  O   UNL     1      -0.880  -0.769  -1.706  0.00  0.00    -0.248 OA
ATOM     35  O   UNL     1       0.309  -0.865  -3.566  0.00  0.00    -0.248 OA
ENDBRANCH  21  33
ENDBRANCH   7  21
TORSDOF 6
