REMARK  Name = ZINC40044297
REMARK  8 active torsions:
REMARK  status: ('A' for Active; 'I' for Inactive)
REMARK    1  A    between atoms: C_1  and  C_2
REMARK    2  A    between atoms: C_2  and  C_3
REMARK    3  A    between atoms: N_16  and  C_30
REMARK    4  A    between atoms: C_17  and  C_19
REMARK    5  A    between atoms: C_22  and  O_25
REMARK    6  A    between atoms: O_25  and  C_26
REMARK    7  A    between atoms: C_26  and  C_27
REMARK    8  A    between atoms: C_30  and  C_31
REMARK                            x       y       z     vdW  Elec       q    Type
REMARK                         _______ _______ _______ _____ _____    ______ ____
ROOT
ATOM      1  C   UNL     1       0.707  -0.490  -1.238  0.00  0.00    -0.047 A 
ATOM      2  C   UNL     1      -0.016  -0.719  -2.400  0.00  0.00    +0.007 A 
ATOM      3  C   UNL     1       0.609  -1.166  -3.543  0.00  0.00    +0.047 A 
ATOM      4  C   UNL     1       1.985  -1.393  -3.544  0.00  0.00    +0.139 A 
ATOM      5  C   UNL     1       2.707  -1.153  -2.364  0.00  0.00    +0.065 A 
ATOM      6  C   UNL     1       2.058  -0.699  -1.216  0.00  0.00    +0.019 A 
ATOM      7  C   UNL     1       4.175  -1.377  -2.359  0.00  0.00    +0.199 A 
ATOM      8  O   UNL     1       4.850  -1.357  -1.345  0.00  0.00    -0.287 OA
ATOM      9  C   UNL     1       4.734  -1.627  -3.692  0.00  0.00    +0.072 A 
ATOM     10  C   UNL     1       3.921  -1.838  -4.769  0.00  0.00    +0.199 A 
ATOM     11  O   UNL     1       2.576  -1.839  -4.675  0.00  0.00    -0.450 OA
ATOM     12  C   UNL     1       4.769  -2.048  -5.955  0.00  0.00    +0.283 C 
ATOM     13  O   UNL     1       4.356  -2.259  -7.078  0.00  0.00    -0.267 OA
ATOM     14  N   UNL     1       6.072  -1.972  -5.613  0.00  0.00    -0.279 N 
ATOM     15  C   UNL     1       6.148  -1.704  -4.167  0.00  0.00    +0.145 C 
ENDROOT
BRANCH  15  16
ATOM     16  C   UNL     1       6.871  -2.826  -3.468  0.00  0.00    -0.022 A 
ATOM     17  C   UNL     1       6.682  -4.132  -3.881  0.00  0.00    +0.009 A 
ATOM     18  C   UNL     1       7.343  -5.162  -3.241  0.00  0.00    +0.046 A 
ATOM     19  C   UNL     1       8.198  -4.886  -2.184  0.00  0.00    +0.121 A 
ATOM     20  C   UNL     1       8.386  -3.575  -1.772  0.00  0.00    +0.046 A 
ATOM     21  C   UNL     1       7.726  -2.547  -2.418  0.00  0.00    +0.009 A 
BRANCH  19  22
ATOM     22  O   UNL     1       8.849  -5.898  -1.552  0.00  0.00    -0.483 OA
BRANCH  22  23
ATOM     23  C   UNL     1       9.713  -5.539  -0.472  0.00  0.00    +0.324 C 
BRANCH  23  24
ATOM     24  C   UNL     1      10.343  -6.783   0.101  0.00  0.00    +0.248 C 
ATOM     25  O   UNL     1      10.079  -7.869  -0.369  0.00  0.00    -0.272 OA
ATOM     26  N   UNL     1      11.201  -6.687   1.136  0.00  0.00    -0.327 N 
ATOM     27  H   UNL     1      11.412  -5.819   1.513  0.00  0.00    +0.145 HD
ATOM     28  H   UNL     1      11.606  -7.487   1.505  0.00  0.00    +0.145 HD
ENDBRANCH  23  24
ENDBRANCH  22  23
ENDBRANCH  19  22
ENDBRANCH  15  16
BRANCH   1  30
ATOM     29  C   UNL     1      -0.019   1.526   0.010  0.00  0.00    +0.009 C 
ATOM     30  C   UNL     1       0.002  -0.004   0.002  0.00  0.00    +0.032 C 
ENDBRANCH   1  30
BRANCH  14  31
ATOM     31  C   UNL     1       7.211  -2.129  -6.520  0.00  0.00    +0.145 C 
BRANCH  31  32
ATOM     32  C   UNL     1       7.588  -0.785  -7.090  0.00  0.00    -0.012 A 
ATOM     33  C   UNL     1       7.168  -0.430  -8.358  0.00  0.00    +0.006 A 
ATOM     34  C   UNL     1       7.514   0.802  -8.880  0.00  0.00    +0.000 A 
ATOM     35  C   UNL     1       8.280   1.679  -8.135  0.00  0.00    +0.001 A 
ATOM     36  C   UNL     1       8.701   1.325  -6.867  0.00  0.00    +0.020 A 
ATOM     37  C   UNL     1       8.350   0.094  -6.342  0.00  0.00    +0.046 A 
ATOM     38 CL   UNL     1       8.872  -0.349  -4.746  0.00  0.00    -0.083 Cl
ENDBRANCH  31  32
ENDBRANCH  14  31
TORSDOF 7
