REMARK  Name = ZINC41992356
REMARK  7 active torsions:
REMARK  status: ('A' for Active; 'I' for Inactive)
REMARK    1  A    between atoms: C_1  and  C_2
REMARK    2  A    between atoms: C_2  and  C_3
REMARK    3  A    between atoms: C_3  and  C_4
REMARK    4  A    between atoms: C_3  and  C_11
REMARK    5  A    between atoms: C_3  and  S_14
REMARK    6  A    between atoms: C_7  and  C_10
REMARK    7  A    between atoms: S_14  and  C_15
REMARK                            x       y       z     vdW  Elec       q    Type
REMARK                         _______ _______ _______ _____ _____    ______ ____
ROOT
ATOM      1  C   UNL     1       0.606  -0.499  -1.314  0.00  0.00    +0.149 C 
ENDROOT
BRANCH   1   2
ATOM      2  C   UNL     1       2.013   0.024  -1.448  0.00  0.00    -0.020 A 
ATOM      3  C   UNL     1       2.991  -0.390  -0.563  0.00  0.00    +0.006 A 
ATOM      4  C   UNL     1       4.282   0.089  -0.686  0.00  0.00    +0.004 A 
ATOM      5  C   UNL     1       4.595   0.981  -1.695  0.00  0.00    -0.050 A 
ATOM      6  C   UNL     1       3.617   1.393  -2.581  0.00  0.00    +0.004 A 
ATOM      7  C   UNL     1       2.327   0.911  -2.460  0.00  0.00    +0.006 A 
ATOM      8  C   UNL     1       6.002   1.504  -1.829  0.00  0.00    +0.044 C 
ENDBRANCH   1   2
BRANCH   1   9
ATOM      9  C   UNL     1       0.507  -1.850  -1.973  0.00  0.00    +0.376 C 
ATOM     10  O   UNL     1      -0.269  -2.022  -2.898  0.00  0.00    -0.244 OA
ATOM     11  O   UNL     1       1.202  -2.772  -1.581  0.00  0.00    -0.244 OA
ENDBRANCH   1   9
BRANCH   1  13
ATOM     12  C   UNL     1       0.440   0.726   0.857  0.00  0.00    +0.006 C 
ATOM     13  C   UNL     1       0.249  -0.626   0.168  0.00  0.00    +0.031 C 
ENDBRANCH   1  13
BRANCH   1  14
ATOM     14  S   UNL     1      -0.545   0.651  -2.116  0.00  0.00    -0.061 S 
BRANCH  14  15
ATOM     15  C   UNL     1      -2.125  -0.090  -1.875  0.00  0.00    +0.211 A 
ATOM     16  N   UNL     1      -3.290   0.406  -2.307  0.00  0.00    -0.188 NA
ATOM     17  C   UNL     1      -4.271  -0.400  -1.957  0.00  0.00    +0.209 A 
ATOM     18  N   UNL     1      -3.736  -1.440  -1.284  0.00  0.00    -0.246 N 
ATOM     19  H   UNL     1      -4.214  -2.192  -0.903  0.00  0.00    +0.192 HD
ATOM     20  N   UNL     1      -2.349  -1.220  -1.249  0.00  0.00    -0.144 NA
ATOM     21  N   UNL     1      -5.614  -0.212  -2.230  0.00  0.00    -0.328 N 
ATOM     22  H   UNL     1      -5.904   0.572  -2.723  0.00  0.00    +0.145 HD
ATOM     23  H   UNL     1      -6.265  -0.864  -1.928  0.00  0.00    +0.145 HD
ENDBRANCH  14  15
ENDBRANCH   1  14
TORSDOF 5
