REMARK  Name = ZINC08539947
REMARK  8 active torsions:
REMARK  status: ('A' for Active; 'I' for Inactive)
REMARK    1  A    between atoms: C_1  and  C_2
REMARK    2  A    between atoms: C_3  and  C_26
REMARK    3  A    between atoms: N_4  and  C_20
REMARK    4  A    between atoms: C_5  and  N_9
REMARK    5  A    between atoms: C_6  and  C_7
REMARK    6  A    between atoms: C_10  and  C_12
REMARK    7  A    between atoms: C_12  and  S_13
REMARK    8  A    between atoms: S_13  and  C_14
REMARK                            x       y       z     vdW  Elec       q    Type
REMARK                         _______ _______ _______ _____ _____    ______ ____
ROOT
ATOM      1  C   UNL     1      -2.716  11.585   0.568  0.00  0.00    +0.047 C 
ATOM      2  C   UNL     1      -1.917  10.314   0.433  0.00  0.00    -0.011 A 
ATOM      3  C   UNL     1      -0.580  10.212   0.357  0.00  0.00    +0.022 A 
ATOM      4  N   UNL     1      -0.233   8.892   0.247  0.00  0.00    -0.329 N 
ATOM      5  C   UNL     1      -1.346   8.114   0.241  0.00  0.00    +0.124 A 
ATOM      6  C   UNL     1      -2.449   8.948   0.359  0.00  0.00    +0.095 A 
ATOM      7  C   UNL     1       0.386  11.367   0.394  0.00  0.00    +0.064 C 
ENDROOT
BRANCH   4   8
ATOM      8  C   UNL     1       1.141   8.392   0.147  0.00  0.00    +0.089 C 
ATOM      9  C   UNL     1       1.279   7.528  -1.108  0.00  0.00    +0.025 C 
ATOM     10  C   UNL     1       2.713   7.005  -1.212  0.00  0.00    +0.002 C 
ATOM     11  C   UNL     1       3.041   6.165   0.023  0.00  0.00    +0.000 C 
ATOM     12  C   UNL     1       2.902   7.028   1.279  0.00  0.00    +0.002 C 
ATOM     13  C   UNL     1       1.468   7.551   1.383  0.00  0.00    +0.025 C 
ENDBRANCH   4   8
BRANCH   5  14
ATOM     14  N   UNL     1      -1.375   6.731   0.140  0.00  0.00    -0.270 N 
ATOM     15  C   UNL     1      -2.429   6.120  -0.436  0.00  0.00    +0.229 C 
ATOM     16  O   UNL     1      -3.300   6.779  -0.962  0.00  0.00    -0.275 OA
ATOM     17  H   UNL     1      -0.637   6.204   0.484  0.00  0.00    +0.156 HD
BRANCH  15  18
ATOM     18  C   UNL     1      -2.525   4.615  -0.427  0.00  0.00    +0.172 C 
BRANCH  18  19
ATOM     19  S   UNL     1      -4.112   4.106  -1.141  0.00  0.00    -0.088 S 
BRANCH  19  20
ATOM     20  C   UNL     1      -4.072   2.347  -1.060  0.00  0.00    +0.160 A 
ATOM     21  N   UNL     1      -3.126   1.553  -0.595  0.00  0.00    -0.133 NA
ATOM     22  N   UNL     1      -3.301   0.189  -0.627  0.00  0.00    -0.125 NA
ATOM     23  C   UNL     1      -4.412  -0.319  -1.122  0.00  0.00    +0.180 A 
ATOM     24  S   UNL     1      -5.300   1.161  -1.584  0.00  0.00    -0.025 S 
ATOM     25  N   UNL     1      -4.792  -1.650  -1.250  0.00  0.00    -0.336 N 
ATOM     26  H   UNL     1      -4.197  -2.355  -0.951  0.00  0.00    +0.144 HD
ATOM     27  H   UNL     1      -5.652  -1.874  -1.639  0.00  0.00    +0.144 HD
ENDBRANCH  19  20
ENDBRANCH  18  19
ENDBRANCH  15  18
ENDBRANCH   5  14
BRANCH   6  28
ATOM     28  C   UNL     1      -3.826   8.556   0.399  0.00  0.00    +0.103 C 
ATOM     29  N   UNL     1      -4.918   8.245   0.431  0.00  0.00    -0.191 NA
ENDBRANCH   6  28
TORSDOF 6
