REMARK  Name = ZINC26780237
REMARK  6 active torsions:
REMARK  status: ('A' for Active; 'I' for Inactive)
REMARK    1  A    between atoms: C_1  and  C_2
REMARK    2  A    between atoms: C_2  and  C_3
REMARK    3  A    between atoms: C_6  and  C_9
REMARK    4  A    between atoms: C_11  and  C_18
REMARK    5  A    between atoms: C_12  and  C_17
REMARK    6  A    between atoms: N_20  and  C_21
REMARK                            x       y       z     vdW  Elec       q    Type
REMARK                         _______ _______ _______ _____ _____    ______ ____
ROOT
ATOM      1  C   UNL     1       0.492  -2.877  -0.116  0.00  0.00    +0.142 C 
ATOM      2  C   UNL     1      -0.885  -2.391  -0.520  0.00  0.00    +0.056 C 
ATOM      3  C   UNL     1      -1.889  -3.293  -0.539  0.00  0.00    +0.019 C 
ATOM      4  N   UNL     1      -1.667  -4.602  -0.216  0.00  0.00    -0.273 N 
ATOM      5  C   UNL     1      -0.472  -5.085   0.147  0.00  0.00    +0.304 C 
ATOM      6  O   UNL     1      -0.372  -6.265   0.422  0.00  0.00    -0.252 OA
ATOM      7  N   UNL     1       0.625  -4.304   0.219  0.00  0.00    -0.288 N 
ATOM      8  C   UNL     1      -3.276  -2.851  -0.929  0.00  0.00    +0.061 C 
ATOM      9  H   UNL     1      -2.495  -5.325  -0.248  0.00  0.00    +0.156 HD
ATOM     10  H   UNL     1       1.602  -4.710   0.518  0.00  0.00    +0.151 HD
ENDROOT
BRANCH   1  14
ATOM     11  C   UNL     1       3.182  -2.023  -3.323  0.00  0.00    -0.048 A 
ATOM     12  C   UNL     1       3.261  -1.305  -2.145  0.00  0.00    +0.004 A 
ATOM     13  C   UNL     1       2.390  -1.581  -1.107  0.00  0.00    +0.006 A 
ATOM     14  C   UNL     1       1.441  -2.575  -1.248  0.00  0.00    -0.023 A 
ATOM     15  C   UNL     1       1.365  -3.298  -2.424  0.00  0.00    +0.006 A 
ATOM     16  C   UNL     1       2.232  -3.018  -3.463  0.00  0.00    +0.004 A 
BRANCH  11  18
ATOM     17  C   UNL     1       5.386  -2.587  -4.310  0.00  0.00    +0.009 C 
ATOM     18  C   UNL     1       4.131  -1.723  -4.454  0.00  0.00    +0.032 C 
ENDBRANCH  11  18
ENDBRANCH   1  14
BRANCH   2  19
ATOM     19  C   UNL     1      -1.113  -1.035  -0.860  0.00  0.00    +0.248 C 
ATOM     20  O   UNL     1      -1.316  -0.213   0.015  0.00  0.00    -0.270 OA
ATOM     21  N   UNL     1      -1.105  -0.654  -2.153  0.00  0.00    -0.282 N 
ATOM     22  H   UNL     1      -1.037  -1.411  -2.949  0.00  0.00    +0.155 HD
BRANCH  21  23
ATOM     23  C   UNL     1      -1.183   0.703  -2.483  0.00  0.00    +0.034 A 
ATOM     24  C   UNL     1      -1.989   1.555  -1.739  0.00  0.00    +0.025 A 
ATOM     25  C   UNL     1      -2.061   2.895  -2.063  0.00  0.00    +0.022 A 
ATOM     26  C   UNL     1      -1.338   3.388  -3.136  0.00  0.00    +0.041 A 
ATOM     27  C   UNL     1      -0.538   2.541  -3.882  0.00  0.00    +0.022 A 
ATOM     28  C   UNL     1      -0.459   1.200  -3.559  0.00  0.00    +0.025 A 
ATOM     29 CL   UNL     1      -1.435   5.072  -3.545  0.00  0.00    -0.084 Cl
ENDBRANCH  21  23
ENDBRANCH   2  19
TORSDOF 4
