REMARK  Name = ZINC38686416
REMARK  9 active torsions:
REMARK  status: ('A' for Active; 'I' for Inactive)
REMARK    1  A    between atoms: C_5  and  C_7
REMARK    2  A    between atoms: C_7  and  O_8
REMARK    3  A    between atoms: O_8  and  C_9
REMARK    4  A    between atoms: C_12  and  C_15
REMARK    5  A    between atoms: C_20  and  O_29
REMARK    6  A    between atoms: C_24  and  N_28
REMARK    7  A    between atoms: C_25  and  C_26
REMARK    8  A    between atoms: O_29  and  C_30
REMARK    9  A    between atoms: C_30  and  C_32
REMARK                            x       y       z     vdW  Elec       q    Type
REMARK                         _______ _______ _______ _____ _____    ______ ____
ROOT
ATOM      1  C   UNL     1      -0.735  -8.238  -0.074  0.00  0.00    +0.098 C 
ATOM      2  C   UNL     1      -1.509  -8.655  -1.296  0.00  0.00    +0.008 A 
ATOM      3  C   UNL     1      -0.901  -8.601  -2.538  0.00  0.00    +0.012 A 
ATOM      4  C   UNL     1      -1.596  -8.979  -3.670  0.00  0.00    +0.047 A 
ATOM      5  C   UNL     1      -2.909  -9.415  -3.564  0.00  0.00    +0.136 A 
ATOM      6  C   UNL     1      -3.521  -9.470  -2.322  0.00  0.00    +0.093 A 
ATOM      7  C   UNL     1      -2.821  -9.089  -1.185  0.00  0.00    +0.138 A 
ATOM      8  O   UNL     1      -3.434  -9.148   0.023  0.00  0.00    -0.441 OA
ATOM      9  C   UNL     1      -2.699  -9.165   1.147  0.00  0.00    +0.199 C 
ATOM     10  C   UNL     1      -1.415  -8.747   1.167  0.00  0.00    +0.098 C 
ENDROOT
BRANCH   1  14
ATOM     11  C   UNL     1      -0.518  -3.973   0.079  0.00  0.00    +0.121 A 
ATOM     12  C   UNL     1       0.645  -4.726   0.006  0.00  0.00    +0.046 A 
ATOM     13  C   UNL     1       0.572  -6.104  -0.042  0.00  0.00    +0.008 A 
ATOM     14  C   UNL     1      -0.659  -6.734  -0.020  0.00  0.00    -0.034 A 
ATOM     15  C   UNL     1      -1.819  -5.986   0.052  0.00  0.00    +0.008 A 
ATOM     16  C   UNL     1      -1.752  -4.607   0.107  0.00  0.00    +0.046 A 
BRANCH  11  17
ATOM     17  O   UNL     1      -0.449  -2.616   0.127  0.00  0.00    -0.487 OA
BRANCH  17  18
ATOM     18  C   UNL     1       0.854  -2.032   0.094  0.00  0.00    +0.267 C 
BRANCH  18  23
ATOM     19  C   UNL     1      -0.626   1.436   0.288  0.00  0.00    +0.001 A 
ATOM     20  C   UNL     1       0.510   2.224   0.270  0.00  0.00    +0.003 A 
ATOM     21  C   UNL     1       1.758   1.636   0.194  0.00  0.00    +0.039 A 
ATOM     22  C   UNL     1       1.871   0.257   0.138  0.00  0.00    +0.130 A 
ATOM     23  C   UNL     1       0.733  -0.531   0.156  0.00  0.00    +0.025 A 
ATOM     24  C   UNL     1      -0.514   0.060   0.231  0.00  0.00    +0.010 A 
ATOM     25  F   UNL     1       3.091  -0.319   0.064  0.00  0.00    -0.205 F 
ENDBRANCH  18  23
ENDBRANCH  17  18
ENDBRANCH  11  17
ENDBRANCH   1  14
BRANCH   9  26
ATOM     26  N   UNL     1      -3.271  -9.620   2.309  0.00  0.00    -0.328 N 
ATOM     27  H   UNL     1      -4.192  -9.923   2.311  0.00  0.00    +0.145 HD
ATOM     28  H   UNL     1      -2.753  -9.639   3.130  0.00  0.00    +0.145 HD
ENDBRANCH   9  26
BRANCH  10  29
ATOM     29  C   UNL     1      -0.686  -8.790   2.398  0.00  0.00    +0.101 C 
ATOM     30  N   UNL     1      -0.108  -8.824   3.376  0.00  0.00    -0.191 NA
ENDBRANCH  10  29
BRANCH   5  31
ATOM     31  O   UNL     1      -3.594  -9.787  -4.677  0.00  0.00    -0.420 OA
BRANCH  31  32
ATOM     32  C   UNL     1      -3.218 -10.922  -5.303  0.00  0.00    +0.380 C 
ATOM     33  O   UNL     1      -2.362 -11.632  -4.811  0.00  0.00    -0.241 OA
BRANCH  32  34
ATOM     34  C   UNL     1      -3.841 -11.298  -6.574  0.00  0.00    +0.212 A 
ATOM     35  C   UNL     1      -3.559 -12.417  -7.306  0.00  0.00    +0.056 A 
ATOM     36  C   UNL     1      -4.383 -12.375  -8.441  0.00  0.00    +0.042 A 
ATOM     37  C   UNL     1      -5.123 -11.247  -8.354  0.00  0.00    +0.196 A 
ATOM     38  O   UNL     1      -4.798 -10.604  -7.225  0.00  0.00    -0.456 OA
ENDBRANCH  32  34
ENDBRANCH  31  32
ENDBRANCH   5  31
TORSDOF 9
