REMARK  Name = ZINC32631725
REMARK  5 active torsions:
REMARK  status: ('A' for Active; 'I' for Inactive)
REMARK    1  A    between atoms: C_3  and  N_17
REMARK    2  A    between atoms: C_5  and  S_7
REMARK    3  A    between atoms: S_7  and  N_10
REMARK    4  A    between atoms: N_17  and  S_18
REMARK    5  A    between atoms: S_18  and  C_21
REMARK                            x       y       z     vdW  Elec       q    Type
REMARK                         _______ _______ _______ _____ _____    ______ ____
ROOT
ATOM      1  C   UNL     1      -0.017   1.378   0.010  0.00  0.00    +0.004 A 
ATOM      2  C   UNL     1       1.169   2.087   0.002  0.00  0.00    +0.027 A 
ATOM      3  C   UNL     1       2.381   1.409  -0.013  0.00  0.00    +0.076 A 
ATOM      4  C   UNL     1       2.396   0.020  -0.021  0.00  0.00    +0.055 A 
ATOM      5  C   UNL     1       1.207  -0.682  -0.013  0.00  0.00    +0.107 A 
ATOM      6  C   UNL     1       0.002  -0.004   0.002  0.00  0.00    +0.028 A 
ENDROOT
BRANCH   5   7
ATOM      7  S   UNL     1       1.225  -2.444  -0.023  0.00  0.00    +0.061 S 
ATOM      8  O   UNL     1      -0.021  -2.860  -0.565  0.00  0.00    -0.153 OA
ATOM      9  O   UNL     1       2.469  -2.834  -0.589  0.00  0.00    -0.153 OA
BRANCH   7  10
ATOM     10  N   UNL     1       1.246  -2.943   1.556  0.00  0.00    -0.166 NA
ATOM     11  C   UNL     1       2.513  -3.155   2.276  0.00  0.00    +0.128 C 
ATOM     12  C   UNL     1       2.555  -2.189   3.462  0.00  0.00    +0.121 C 
ATOM     13  N   UNL     1       1.294  -2.210   4.190  0.00  0.00    -0.313 N 
ATOM     14  C   UNL     1       0.131  -2.614   3.678  0.00  0.00    +0.229 C 
ATOM     15  O   UNL     1      -0.868  -2.511   4.359  0.00  0.00    -0.274 OA
ATOM     16  C   UNL     1      -0.000  -3.186   2.297  0.00  0.00    +0.205 C 
ATOM     17  H   UNL     1       1.301  -1.910   5.112  0.00  0.00    +0.149 HD
ENDBRANCH   7  10
ENDBRANCH   5   7
BRANCH   3  18
ATOM     18  N   UNL     1       3.582   2.122  -0.021  0.00  0.00    -0.098 NA
BRANCH  18  19
ATOM     19  S   UNL     1       3.562   3.778  -0.013  0.00  0.00    +0.093 S 
ATOM     20  O   UNL     1       2.994   4.183  -1.250  0.00  0.00    -0.148 OA
ATOM     21  O   UNL     1       3.018   4.171   1.240  0.00  0.00    -0.148 OA
BRANCH  19  22
ATOM     22  C   UNL     1       5.238   4.319  -0.026  0.00  0.00    +0.130 A 
ATOM     23  C   UNL     1       5.728   5.024  -1.110  0.00  0.00    +0.050 A 
ATOM     24  C   UNL     1       7.045   5.449  -1.121  0.00  0.00    +0.043 A 
ATOM     25  C   UNL     1       7.871   5.169  -0.046  0.00  0.00    +0.021 A 
ATOM     26  C   UNL     1       7.381   4.465   1.037  0.00  0.00    +0.023 A 
ATOM     27  C   UNL     1       6.063   4.045   1.050  0.00  0.00    +0.068 A 
ATOM     28 CL   UNL     1       5.445   3.167   2.414  0.00  0.00    -0.082 Cl
ATOM     29 CL   UNL     1       7.660   6.333  -2.482  0.00  0.00    -0.083 Cl
ENDBRANCH  19  22
ENDBRANCH  18  19
ENDBRANCH   3  18
TORSDOF 5
