REMARK  Name = ZINC19961387
REMARK  4 active torsions:
REMARK  status: ('A' for Active; 'I' for Inactive)
REMARK    1  A    between atoms: C_1  and  C_2
REMARK    2  A    between atoms: C_6  and  C_8
REMARK    3  A    between atoms: C_21  and  C_23
REMARK    4  A    between atoms: N_25  and  C_26
REMARK                            x       y       z     vdW  Elec       q    Type
REMARK                         _______ _______ _______ _____ _____    ______ ____
ROOT
ATOM      1  C   UNL     1       2.471   1.286  -0.759  0.00  0.00    +0.083 C 
ATOM      2  C   UNL     1       1.157   1.982  -0.531  0.00  0.00    +0.066 A 
ATOM      3  C   UNL     1      -0.012   1.241  -0.330  0.00  0.00    +0.258 A 
ATOM      4  O   UNL     1       0.018   0.020  -0.326  0.00  0.00    -0.267 OA
ATOM      5  N   UNL     1      -1.175   1.902  -0.147  0.00  0.00    -0.295 N 
ATOM      6  H   UNL     1      -2.107   1.341   0.019  0.00  0.00    +0.172 HD
ATOM      7  C   UNL     1      -1.195   3.263  -0.166  0.00  0.00    +0.202 A 
ATOM      8  N   UNL     1      -0.098   3.964  -0.357  0.00  0.00    -0.200 NA
ATOM      9  C   UNL     1       1.086   3.364  -0.531  0.00  0.00    +0.138 A 
ATOM     10  N   UNL     1       2.232   4.121  -0.701  0.00  0.00    -0.269 N 
ATOM     11  C   UNL     1       3.450   3.562  -0.600  0.00  0.00    +0.236 C 
ATOM     12  O   UNL     1       4.435   4.220  -0.858  0.00  0.00    -0.274 OA
ATOM     13  C   UNL     1       3.605   2.127  -0.169  0.00  0.00    +0.189 C 
ATOM     14  N   UNL     1      -2.386   3.918   0.012  0.00  0.00    -0.285 N 
ATOM     15  H   UNL     1       2.153   5.195  -0.922  0.00  0.00    +0.156 HD
ATOM     16  H   UNL     1      -3.323   3.346   0.080  0.00  0.00    +0.155 HD
ENDROOT
BRANCH   1  22
ATOM     17  C   UNL     1       3.210  -1.706  -4.701  0.00  0.00    +0.044 C 
ATOM     18  C   UNL     1       3.049  -0.324  -4.125  0.00  0.00    -0.050 A 
ATOM     19  C   UNL     1       3.108   0.782  -4.953  0.00  0.00    +0.003 A 
ATOM     20  C   UNL     1       2.961   2.050  -4.423  0.00  0.00    +0.001 A 
ATOM     21  C   UNL     1       2.750   2.213  -3.067  0.00  0.00    +0.004 A 
ATOM     22  C   UNL     1       2.696   1.108  -2.238  0.00  0.00    -0.038 A 
ATOM     23  C   UNL     1       2.843  -0.160  -2.768  0.00  0.00    +0.007 A 
ENDBRANCH   1  22
BRANCH  14  24
ATOM     24  C   UNL     1      -2.410   5.313   0.107  0.00  0.00    +0.034 A 
ATOM     25  C   UNL     1      -1.355   5.988   0.709  0.00  0.00    +0.023 A 
ATOM     26  C   UNL     1      -1.379   7.366   0.795  0.00  0.00    +0.002 A 
ATOM     27  C   UNL     1      -2.456   8.073   0.294  0.00  0.00    +0.000 A 
ATOM     28  C   UNL     1      -3.510   7.404  -0.301  0.00  0.00    +0.002 A 
ATOM     29  C   UNL     1      -3.490   6.027  -0.396  0.00  0.00    +0.023 A 
ENDBRANCH  14  24
BRANCH  13  30
ATOM     30  C   UNL     1       4.898   1.610  -0.645  0.00  0.00    +0.076 C 
ATOM     31  N   UNL     1       5.896   1.210  -1.013  0.00  0.00    -0.196 NA
ENDBRANCH  13  30
TORSDOF 3
