REMARK  Name = ZINC31861926
REMARK  4 active torsions:
REMARK  status: ('A' for Active; 'I' for Inactive)
REMARK    1  A    between atoms: C_1  and  C_2
REMARK    2  A    between atoms: C_3  and  C_11
REMARK    3  A    between atoms: C_4  and  C_8
REMARK    4  A    between atoms: C_5  and  N_7
REMARK                            x       y       z     vdW  Elec       q    Type
REMARK                         _______ _______ _______ _____ _____    ______ ____
ROOT
ATOM      1  C   UNL     1      -3.281  -1.835   2.338  0.00  0.00    +0.052 C 
ATOM      2  C   UNL     1      -4.037  -1.574   1.061  0.00  0.00    -0.003 A 
ATOM      3  C   UNL     1      -3.679  -0.784   0.018  0.00  0.00    +0.008 A 
ATOM      4  C   UNL     1      -4.610  -0.710  -1.094  0.00  0.00    +0.099 A 
ATOM      5  C   UNL     1      -5.773  -1.464  -0.986  0.00  0.00    +0.078 A 
ATOM      6  S   UNL     1      -5.616  -2.228   0.559  0.00  0.00    -0.078 S 
ENDROOT
BRANCH   3   7
ATOM      7  C   UNL     1      -2.404  -0.030   0.016  0.00  0.00    -0.013 A 
ATOM      8  C   UNL     1      -2.417   1.365   0.026  0.00  0.00    +0.012 A 
ATOM      9  C   UNL     1      -1.228   2.065   0.019  0.00  0.00    +0.050 A 
ATOM     10  C   UNL     1      -0.017   1.387   0.010  0.00  0.00    +0.162 A 
ATOM     11  C   UNL     1       0.002  -0.004   0.002  0.00  0.00    +0.163 A 
ATOM     12  C   UNL     1      -1.188  -0.712   0.004  0.00  0.00    +0.058 A 
ATOM     13  O   UNL     1       1.181  -0.685  -0.007  0.00  0.00    -0.485 OA
ATOM     14  C   UNL     1       2.347   0.053  -0.387  0.00  0.00    +0.270 C 
ATOM     15  C   UNL     1       2.335   1.391   0.365  0.00  0.00    +0.270 C 
ATOM     16  O   UNL     1       1.144   2.098   0.002  0.00  0.00    -0.485 OA
ENDBRANCH   3   7
BRANCH   5  17
ATOM     17  N   UNL     1      -6.809  -1.573  -1.893  0.00  0.00    -0.352 N 
ATOM     18  H   UNL     1      -7.673  -2.215  -1.666  0.00  0.00    +0.143 HD
ATOM     19  H   UNL     1      -6.770  -1.018  -2.842  0.00  0.00    +0.143 HD
ENDBRANCH   5  17
BRANCH   4  20
ATOM     20  C   UNL     1      -4.343   0.088  -2.236  0.00  0.00    +0.389 C 
ATOM     21  O   UNL     1      -3.746  -0.386  -3.184  0.00  0.00    -0.240 OA
ATOM     22  O   UNL     1      -4.751   1.374  -2.270  0.00  0.00    -0.240 OA
ENDBRANCH   4  20
TORSDOF 3
