REMARK  Name = ZINC22938756
REMARK  9 active torsions:
REMARK  status: ('A' for Active; 'I' for Inactive)
REMARK    1  A    between atoms: C_4  and  C_7
REMARK    2  A    between atoms: C_7  and  C_8
REMARK    3  A    between atoms: C_7  and  N_14
REMARK    4  A    between atoms: N_17  and  C_20
REMARK    5  A    between atoms: C_20  and  C_21
REMARK    6  A    between atoms: C_21  and  C_22
REMARK    7  A    between atoms: N_24  and  N_25
REMARK    8  A    between atoms: C_26  and  C_28
REMARK    9  A    between atoms: C_29  and  C_30
REMARK                            x       y       z     vdW  Elec       q    Type
REMARK                         _______ _______ _______ _____ _____    ______ ____
ROOT
ATOM      1  N   UNL     1       0.113   1.409  -0.124  0.00  0.00    -0.295 NA
ATOM      2  C   UNL     1       1.496   1.849  -0.359  0.00  0.00    +0.067 C 
ATOM      3  C   UNL     1       2.400   1.291   0.742  0.00  0.00    -0.063 C 
ATOM      4  N   UNL     1       2.311  -0.176   0.749  0.00  0.00    +0.382 N 
ATOM      5  C   UNL     1       0.929  -0.616   0.984  0.00  0.00    -0.063 C 
ATOM      6  C   UNL     1       0.024  -0.058  -0.117  0.00  0.00    +0.067 C 
ATOM      7  H   UNL     1       2.619  -0.540  -0.243  0.00  0.00    -0.082 HD
ENDROOT
BRANCH   1   8
ATOM      8  C   UNL     1      -0.800   1.987  -1.118  0.00  0.00    +0.117 C 
BRANCH   8  12
ATOM      9  C   UNL     1      -4.793   0.709  -0.299  0.00  0.00    +0.000 A 
ATOM     10  C   UNL     1      -4.317   0.701  -1.597  0.00  0.00    +0.000 A 
ATOM     11  C   UNL     1      -3.025   1.115  -1.862  0.00  0.00    +0.005 A 
ATOM     12  C   UNL     1      -2.209   1.536  -0.829  0.00  0.00    -0.026 A 
ATOM     13  C   UNL     1      -2.682   1.539   0.469  0.00  0.00    +0.005 A 
ATOM     14  C   UNL     1      -3.976   1.129   0.734  0.00  0.00    +0.000 A 
ENDBRANCH   8  12
BRANCH   8  15
ATOM     15  C   UNL     1      -0.730   3.491  -1.050  0.00  0.00    -0.026 A 
ATOM     16  C   UNL     1      -0.737   4.129   0.176  0.00  0.00    +0.005 A 
ATOM     17  C   UNL     1      -0.668   5.508   0.239  0.00  0.00    +0.000 A 
ATOM     18  C   UNL     1      -0.602   6.250  -0.925  0.00  0.00    +0.000 A 
ATOM     19  C   UNL     1      -0.601   5.613  -2.152  0.00  0.00    +0.000 A 
ATOM     20  C   UNL     1      -0.665   4.234  -2.215  0.00  0.00    +0.005 A 
ENDBRANCH   8  15
ENDBRANCH   1   8
BRANCH   4  21
ATOM     21  C   UNL     1       3.224  -0.754   1.744  0.00  0.00    -0.069 C 
BRANCH  21  22
ATOM     22  C   UNL     1       4.671  -0.483   1.326  0.00  0.00    +0.079 C 
BRANCH  22  23
ATOM     23  C   UNL     1       5.608  -1.076   2.347  0.00  0.00    +0.227 C 
ATOM     24  O   UNL     1       5.162  -1.659   3.313  0.00  0.00    -0.274 OA
ATOM     25  N   UNL     1       6.941  -0.959   2.186  0.00  0.00    -0.234 N 
ATOM     26  H   UNL     1       7.345  -0.430   1.310  0.00  0.00    +0.173 HD
BRANCH  25  27
ATOM     27  N   UNL     1       7.812  -1.510   3.135  0.00  0.00    -0.231 N 
ATOM     28  C   UNL     1       9.145  -1.393   2.974  0.00  0.00    +0.253 C 
ATOM     29  O   UNL     1       9.592  -0.808   2.005  0.00  0.00    -0.269 OA
ATOM     30  H   UNL     1       7.408  -2.039   4.011  0.00  0.00    +0.173 HD
BRANCH  28  31
ATOM     31  C   UNL     1      10.025  -1.951   3.933  0.00  0.00    +0.072 C 
ATOM     32  C   UNL     1      11.366  -1.833   3.772  0.00  0.00    +0.051 C 
BRANCH  32  33
ATOM     33  C   UNL     1      12.247  -2.390   4.731  0.00  0.00    +0.128 A 
ATOM     34  C   UNL     1      13.625  -2.350   4.689  0.00  0.00    +0.049 A 
ATOM     35  C   UNL     1      14.079  -3.019   5.836  0.00  0.00    +0.042 A 
ATOM     36  C   UNL     1      12.986  -3.440   6.511  0.00  0.00    +0.195 A 
ATOM     37  O   UNL     1      11.887  -3.061   5.845  0.00  0.00    -0.464 OA
ENDBRANCH  32  33
ENDBRANCH  28  31
ENDBRANCH  25  27
ENDBRANCH  22  23
ENDBRANCH  21  22
ENDBRANCH   4  21
TORSDOF 9
