REMARK  Name = ZINC15723892
REMARK  14 active torsions:
REMARK  status: ('A' for Active; 'I' for Inactive)
REMARK    1  A    between atoms: C_1  and  C_2
REMARK    2  A    between atoms: C_2  and  C_3
REMARK    3  A    between atoms: C_3  and  C_4
REMARK    4  A    between atoms: C_4  and  N_5
REMARK    5  A    between atoms: C_10  and  C_24
REMARK    6  A    between atoms: C_14  and  C_15
REMARK    7  A    between atoms: C_14  and  C_16
REMARK    8  A    between atoms: N_18  and  C_19
REMARK    9  A    between atoms: N_26  and  C_27
REMARK   10  A    between atoms: C_27  and  C_28
REMARK   11  A    between atoms: C_28  and  C_29
REMARK   12  A    between atoms: C_32  and  O_35
REMARK   13  A    between atoms: O_35  and  C_36
REMARK   14  A    between atoms: C_36  and  C_37
REMARK                            x       y       z     vdW  Elec       q    Type
REMARK                         _______ _______ _______ _____ _____    ______ ____
ROOT
ATOM      1  N   UNL     1       1.500   8.063   0.072  0.00  0.00    -0.281 N 
ATOM      2  C   UNL     1       2.258   6.967  -0.171  0.00  0.00    +0.266 C 
ATOM      3  O   UNL     1       3.411   7.056  -0.547  0.00  0.00    -0.268 OA
ATOM      4  C   UNL     1       1.609   5.662   0.044  0.00  0.00    +0.124 A 
ATOM      5  C   UNL     1       2.114   4.408   0.077  0.00  0.00    +0.067 A 
ATOM      6  C   UNL     1       1.003   3.568   0.317  0.00  0.00    +0.148 A 
ATOM      7  N   UNL     1      -0.069   4.339   0.402  0.00  0.00    -0.166 NA
ATOM      8  N   UNL     1       0.248   5.565   0.244  0.00  0.00    -0.256 N 
ATOM      9  C   UNL     1      -0.608   6.758   0.234  0.00  0.00    +0.179 C 
ATOM     10  C   UNL     1       0.197   7.960   0.723  0.00  0.00    +0.130 C 
ATOM     11  C   UNL     1       0.407   7.835   2.233  0.00  0.00    +0.044 C 
ENDROOT
BRANCH  10  12
ATOM     12  C   UNL     1      -0.586   9.217   0.445  0.00  0.00    +0.238 C 
ATOM     13  O   UNL     1      -1.136   9.803   1.354  0.00  0.00    -0.273 OA
ATOM     14  N   UNL     1      -0.676   9.691  -0.813  0.00  0.00    -0.311 N 
ATOM     15  H   UNL     1      -0.300   9.185  -1.550  0.00  0.00    +0.149 HD
BRANCH  14  16
ATOM     16  C   UNL     1      -1.343  10.971  -1.068  0.00  0.00    +0.073 C 
ATOM     17  C   UNL     1      -2.857  10.750  -1.258  0.00  0.00    +0.022 C 
ATOM     18  C   UNL     1      -3.253  11.761  -2.364  0.00  0.00    +0.002 C 
ATOM     19  C   UNL     1      -2.035  11.716  -3.320  0.00  0.00    +0.002 C 
ATOM     20  C   UNL     1      -0.820  11.586  -2.378  0.00  0.00    +0.022 C 
ENDBRANCH  14  16
ENDBRANCH  10  12
BRANCH   6  21
ATOM     21  C   UNL     1       1.032   2.096   0.443  0.00  0.00    +0.264 C 
ATOM     22  O   UNL     1       2.085   1.498   0.339  0.00  0.00    -0.268 OA
ATOM     23  N   UNL     1      -0.109   1.417   0.674  0.00  0.00    -0.310 N 
ATOM     24  H   UNL     1      -0.950   1.894   0.753  0.00  0.00    +0.149 HD
BRANCH  23  25
ATOM     25  C   UNL     1      -0.081  -0.042   0.799  0.00  0.00    +0.109 C 
BRANCH  25  26
ATOM     26  C   UNL     1      -1.497  -0.560   1.056  0.00  0.00    +0.054 C 
BRANCH  26  27
ATOM     27  C   UNL     1      -1.468  -2.061   1.185  0.00  0.00    -0.046 A 
ATOM     28  C   UNL     1      -1.636  -2.854   0.065  0.00  0.00    +0.007 A 
ATOM     29  C   UNL     1      -1.603  -4.230   0.179  0.00  0.00    +0.046 A 
ATOM     30  C   UNL     1      -1.413  -4.817   1.422  0.00  0.00    +0.121 A 
ATOM     31  C   UNL     1      -1.250  -4.020   2.545  0.00  0.00    +0.046 A 
ATOM     32  C   UNL     1      -1.278  -2.644   2.425  0.00  0.00    +0.007 A 
BRANCH  30  33
ATOM     33  O   UNL     1      -1.386  -6.171   1.538  0.00  0.00    -0.492 OA
BRANCH  33  34
ATOM     34  C   UNL     1      -1.561  -6.928   0.339  0.00  0.00    +0.225 C 
ATOM     35  C   UNL     1      -1.501  -8.422   0.666  0.00  0.00    +0.048 C 
ENDBRANCH  33  34
ENDBRANCH  30  33
ENDBRANCH  26  27
ENDBRANCH  25  26
ENDBRANCH  23  25
ENDBRANCH   6  21
BRANCH   1  36
ATOM     36  C   UNL     1       1.999   9.382  -0.326  0.00  0.00    +0.109 C 
BRANCH  36  37
ATOM     37  C   UNL     1       2.919   9.930   0.767  0.00  0.00    +0.019 C 
BRANCH  37  39
ATOM     38  C   UNL     1       4.361  11.855   1.443  0.00  0.00    +0.004 C 
ATOM     39  C   UNL     1       3.440  11.307   0.351  0.00  0.00    -0.002 C 
ENDBRANCH  37  39
ENDBRANCH  36  37
ENDBRANCH   1  36
TORSDOF 11
