REMARK  Name = ZINC45637294
REMARK  10 active torsions:
REMARK  status: ('A' for Active; 'I' for Inactive)
REMARK    1  A    between atoms: C_1  and  C_2
REMARK    2  A    between atoms: C_6  and  C_27
REMARK    3  A    between atoms: C_8  and  N_11
REMARK    4  A    between atoms: N_14  and  C_15
REMARK    5  A    between atoms: C_15  and  C_16
REMARK    6  A    between atoms: C_19  and  S_22
REMARK    7  A    between atoms: S_22  and  N_25
REMARK    8  A    between atoms: N_25  and  C_26
REMARK    9  A    between atoms: C_27  and  C_28
REMARK   10  A    between atoms: C_27  and  C_29
REMARK                            x       y       z     vdW  Elec       q    Type
REMARK                         _______ _______ _______ _____ _____    ______ ____
ROOT
ATOM      1  N   UNL     1       2.763  -0.519   2.499  0.00  0.00    -0.296 N 
ATOM      2  C   UNL     1       2.509   0.086   3.676  0.00  0.00    +0.300 C 
ATOM      3  O   UNL     1       1.775   1.055   3.716  0.00  0.00    -0.253 OA
ATOM      4  N   UNL     1       3.069  -0.382   4.809  0.00  0.00    -0.295 N 
ATOM      5  H   UNL     1       3.348  -1.292   2.467  0.00  0.00    +0.151 HD
ATOM      6  H   UNL     1       3.654  -1.155   4.777  0.00  0.00    +0.151 HD
ENDROOT
BRANCH   1  12
ATOM      7  C   UNL     1       0.055   1.507  -0.102  0.00  0.00    +0.007 C 
ATOM      8  C   UNL     1       0.095  -0.022  -0.147  0.00  0.00    -0.012 C 
ATOM      9  C   UNL     1       0.924  -0.474  -1.351  0.00  0.00    +0.004 C 
ATOM     10  C   UNL     1       2.348   0.070  -1.222  0.00  0.00    +0.006 C 
ATOM     11  C   UNL     1       2.984  -0.462   0.064  0.00  0.00    +0.012 C 
ATOM     12  C   UNL     1       2.155  -0.009   1.267  0.00  0.00    +0.078 C 
ATOM     13  C   UNL     1       0.730  -0.554   1.139  0.00  0.00    +0.026 C 
BRANCH  11  14
ATOM     14  C   UNL     1       4.408   0.082   0.192  0.00  0.00    -0.012 C 
ATOM     15  C   UNL     1       5.276  -0.490  -0.931  0.00  0.00    +0.007 C 
ATOM     16  C   UNL     1       4.382   1.608   0.089  0.00  0.00    +0.007 C 
ENDBRANCH  11  14
ENDBRANCH   1  12
BRANCH   4  17
ATOM     17  C   UNL     1       2.793   0.276   6.089  0.00  0.00    +0.141 C 
BRANCH  17  18
ATOM     18  C   UNL     1       3.534  -0.437   7.190  0.00  0.00    -0.030 A 
ATOM     19  C   UNL     1       2.934  -1.488   7.859  0.00  0.00    +0.007 A 
ATOM     20  C   UNL     1       3.614  -2.142   8.869  0.00  0.00    +0.029 A 
ATOM     21  C   UNL     1       4.894  -1.746   9.211  0.00  0.00    +0.105 A 
ATOM     22  C   UNL     1       5.494  -0.696   8.541  0.00  0.00    +0.029 A 
ATOM     23  C   UNL     1       4.816  -0.044   7.528  0.00  0.00    +0.007 A 
BRANCH  21  24
ATOM     24  S   UNL     1       5.760  -2.579  10.499  0.00  0.00    +0.058 S 
ATOM     25  O   UNL     1       6.729  -1.665  10.994  0.00  0.00    -0.153 OA
ATOM     26  O   UNL     1       4.774  -3.170  11.335  0.00  0.00    -0.153 OA
BRANCH  24  27
ATOM     27  N   UNL     1       6.597  -3.825   9.801  0.00  0.00    -0.193 NA
ATOM     28  C   UNL     1       7.678  -3.542   8.853  0.00  0.00    +0.127 C 
ATOM     29  H   UNL     1       6.371  -4.743  10.018  0.00  0.00    +0.148 HD
ENDBRANCH  24  27
ENDBRANCH  21  24
ENDBRANCH  17  18
ENDBRANCH   4  17
TORSDOF 6
