REMARK  Name = ZINC63440661
REMARK  9 active torsions:
REMARK  status: ('A' for Active; 'I' for Inactive)
REMARK    1  A    between atoms: C_1  and  C_2
REMARK    2  A    between atoms: C_2  and  O_3
REMARK    3  A    between atoms: O_3  and  C_4
REMARK    4  A    between atoms: C_4  and  C_6
REMARK    5  A    between atoms: C_8  and  N_18
REMARK    6  A    between atoms: C_11  and  O_16
REMARK    7  A    between atoms: O_16  and  C_17
REMARK    8  A    between atoms: N_18  and  C_19
REMARK    9  A    between atoms: C_19  and  N_21
REMARK                            x       y       z     vdW  Elec       q    Type
REMARK                         _______ _______ _______ _____ _____    ______ ____
ROOT
ATOM      1  C   UNL     1       1.464  -2.338  -2.586  0.00  0.00    +0.234 C 
ATOM      2  C   UNL     1       2.962  -2.317  -2.378  0.00  0.00    +0.052 C 
ATOM      3  C   UNL     1       3.372  -3.637  -2.465  0.00  0.00    +0.021 A 
ATOM      4  C   UNL     1       4.644  -4.250  -2.358  0.00  0.00    +0.057 A 
ATOM      5  C   UNL     1       4.754  -5.599  -2.489  0.00  0.00    +0.121 A 
ATOM      6  C   UNL     1       3.633  -6.405  -2.729  0.00  0.00    +0.047 A 
ATOM      7  C   UNL     1       2.388  -5.883  -2.843  0.00  0.00    +0.029 A 
ATOM      8  C   UNL     1       2.194  -4.483  -2.718  0.00  0.00    +0.045 A 
ATOM      9  N   UNL     1       1.102  -3.744  -2.788  0.00  0.00    -0.367 N 
ATOM     10  H   UNL     1       0.205  -4.077  -2.948  0.00  0.00    +0.161 HD
ENDROOT
BRANCH   1  11
ATOM     11  C   UNL     1       0.764  -1.792  -1.368  0.00  0.00    +0.336 C 
ATOM     12  O   UNL     1       0.295  -2.548  -0.550  0.00  0.00    -0.248 OA
BRANCH  11  13
ATOM     13  O   UNL     1       0.660  -0.465  -1.192  0.00  0.00    -0.463 OA
BRANCH  13  15
ATOM     14  C   UNL     1      -0.034   1.512   0.012  0.00  0.00    +0.048 C 
ATOM     15  C   UNL     1      -0.016  -0.018  -0.015  0.00  0.00    +0.229 C 
ENDBRANCH  13  15
ENDBRANCH  11  13
ENDBRANCH   1  11
BRANCH   5  16
ATOM     16  O   UNL     1       5.980  -6.179  -2.385  0.00  0.00    -0.495 OA
ATOM     17  C   UNL     1       6.040  -7.599  -2.531  0.00  0.00    +0.277 C 
ENDBRANCH   5  16
BRANCH   2  18
ATOM     18  N   UNL     1       3.745  -1.227  -2.153  0.00  0.00    -0.297 N 
ATOM     19  H   UNL     1       3.358  -0.338  -2.179  0.00  0.00    +0.154 HD
BRANCH  18  20
ATOM     20  C   UNL     1       5.059  -1.382  -1.894  0.00  0.00    +0.137 C 
ATOM     21  S   UNL     1       5.630  -1.292  -0.282  0.00  0.00    -0.018 S 
BRANCH  20  22
ATOM     22  N   UNL     1       5.922  -1.609  -2.903  0.00  0.00    -0.309 N 
ATOM     23  C   UNL     1       5.467  -1.572  -4.300  0.00  0.00    +0.125 C 
ATOM     24  C   UNL     1       6.332  -0.567  -5.071  0.00  0.00    +0.125 C 
ATOM     25  N   UNL     1       7.746  -0.855  -4.795  0.00  0.00    -0.314 N 
ATOM     26  C   UNL     1       8.201  -0.892  -3.398  0.00  0.00    +0.125 C 
ATOM     27  C   UNL     1       7.338  -1.892  -2.627  0.00  0.00    +0.125 C 
ATOM     28  C   UNL     1       8.637  -1.089  -5.836  0.00  0.00    +0.099 A 
ATOM     29  C   UNL     1       8.167  -1.155  -7.143  0.00  0.00    +0.042 A 
ATOM     30  C   UNL     1       9.064  -1.389  -8.170  0.00  0.00    +0.005 A 
ATOM     31  C   UNL     1      10.407  -1.548  -7.852  0.00  0.00    +0.018 A 
ATOM     32  C   UNL     1      10.804  -1.470  -6.533  0.00  0.00    +0.084 A 
ATOM     33  N   UNL     1       9.926  -1.241  -5.574  0.00  0.00    -0.350 N 
ATOM     34  H   UNL     1      10.232  -1.187  -4.656  0.00  0.00    +0.166 HD
ENDBRANCH  20  22
ENDBRANCH  18  20
ENDBRANCH   2  18
TORSDOF 7
