REMARK  Name = ZINC02878320
REMARK  4 active torsions:
REMARK  status: ('A' for Active; 'I' for Inactive)
REMARK    1  A    between atoms: C_2  and  C_3
REMARK    2  A    between atoms: C_3  and  S_4
REMARK    3  A    between atoms: S_4  and  C_5
REMARK    4  A    between atoms: C_18  and  C_21
REMARK                            x       y       z     vdW  Elec       q    Type
REMARK                         _______ _______ _______ _____ _____    ______ ____
ROOT
ATOM      1  C   UNL     1       5.999   3.411  -0.095  0.00  0.00    +0.213 A 
ATOM      2  N   UNL     1       5.852   2.422   0.783  0.00  0.00    -0.184 NA
ATOM      3  C   UNL     1       4.703   1.771   0.837  0.00  0.00    +0.248 A 
ATOM      4  C   UNL     1       3.667   2.146  -0.049  0.00  0.00    +0.156 A 
ATOM      5  N   UNL     1       3.877   3.142  -0.896  0.00  0.00    -0.141 NA
ATOM      6  N   UNL     1       5.011   3.752  -0.914  0.00  0.00    -0.122 NA
ATOM      7  C   UNL     1       2.380   1.421  -0.015  0.00  0.00    +0.028 A 
ATOM      8  C   UNL     1       1.165   2.095   0.002  0.00  0.00    +0.012 A 
ATOM      9  C   UNL     1      -0.017   1.380   0.010  0.00  0.00    +0.001 A 
ATOM     10  C   UNL     1       0.002  -0.004   0.002  0.00  0.00    +0.002 A 
ATOM     11  C   UNL     1       1.204  -0.688  -0.006  0.00  0.00    +0.024 A 
ATOM     12  C   UNL     1       2.395   0.014  -0.013  0.00  0.00    +0.040 A 
ATOM     13  N   UNL     1       3.629  -0.645   0.000  0.00  0.00    -0.303 N 
ATOM     14  C   UNL     1       4.457  -0.561   1.199  0.00  0.00    +0.329 C 
ATOM     15  O   UNL     1       4.503   0.763   1.718  0.00  0.00    -0.445 OA
ATOM     16  H   UNL     1       3.928  -1.148  -0.773  0.00  0.00    +0.150 HD
ENDROOT
BRANCH  14  17
ATOM     17  C   UNL     1       3.894  -1.482   2.250  0.00  0.00    +0.165 A 
ATOM     18  C   UNL     1       4.602  -2.117   3.201  0.00  0.00    +0.051 A 
ATOM     19  C   UNL     1       3.680  -2.866   3.967  0.00  0.00    +0.057 A 
ATOM     20  C   UNL     1       2.464  -2.652   3.432  0.00  0.00    +0.170 A 
ATOM     21  O   UNL     1       2.599  -1.813   2.393  0.00  0.00    -0.448 OA
ATOM     22 BR   UNL     1       0.839  -3.405   4.041  0.00  0.00    -0.008 Br
ENDBRANCH  14  17
BRANCH   1  23
ATOM     23  S   UNL     1       7.528   4.282  -0.172  0.00  0.00    -0.080 S 
BRANCH  23  24
ATOM     24  C   UNL     1       7.153   5.461  -1.493  0.00  0.00    +0.104 C 
BRANCH  24  26
ATOM     25  C   UNL     1       8.981   6.281  -2.887  0.00  0.00    +0.005 C 
ATOM     26  C   UNL     1       8.353   6.338  -1.739  0.00  0.00    -0.023 C 
ENDBRANCH  24  26
ENDBRANCH  23  24
ENDBRANCH   1  23
TORSDOF 4
