REMARK  Name = ZINC02542009
REMARK  7 active torsions:
REMARK  status: ('A' for Active; 'I' for Inactive)
REMARK    1  A    between atoms: C_1  and  C_2
REMARK    2  A    between atoms: C_3  and  C_13
REMARK    3  A    between atoms: N_15  and  N_16
REMARK    4  A    between atoms: C_17  and  C_18
REMARK    5  A    between atoms: C_21  and  O_24
REMARK    6  A    between atoms: O_24  and  C_25
REMARK    7  A    between atoms: C_25  and  C_26
REMARK                            x       y       z     vdW  Elec       q    Type
REMARK                         _______ _______ _______ _____ _____    ______ ____
ROOT
ATOM      1  C   UNL     1       1.266   1.645   2.827  0.00  0.00    +0.284 C 
ATOM      2  O   UNL     1       2.045   1.159   2.029  0.00  0.00    -0.267 OA
ATOM      3  N   UNL     1       1.699   2.029   4.044  0.00  0.00    -0.202 N 
ATOM      4  H   UNL     1       0.980   2.389   4.795  0.00  0.00    +0.178 HD
ENDROOT
BRANCH   1   7
ATOM      5  C   UNL     1      -0.014   4.118   1.326  0.00  0.00    +0.070 C 
ATOM      6  C   UNL     1      -0.718   2.878   1.814  0.00  0.00    +0.093 A 
ATOM      7  C   UNL     1      -0.150   1.813   2.463  0.00  0.00    +0.155 A 
ATOM      8  N   UNL     1      -1.179   0.936   2.704  0.00  0.00    -0.183 N 
ATOM      9  N   UNL     1      -2.258   1.454   2.230  0.00  0.00    -0.058 NA
ATOM     10  N   UNL     1      -2.018   2.602   1.704  0.00  0.00    -0.134 NA
ATOM     11  C   UNL     1      -1.073  -0.300   3.348  0.00  0.00    +0.241 A 
ATOM     12  C   UNL     1      -2.151  -1.282   3.502  0.00  0.00    +0.206 A 
ATOM     13  N   UNL     1      -1.679  -2.309   4.155  0.00  0.00    -0.032 NA
ATOM     14  O   UNL     1      -0.317  -2.050   4.446  0.00  0.00    -0.239 OA
ATOM     15  N   UNL     1       0.001  -0.778   3.909  0.00  0.00    -0.027 NA
ATOM     16  N   UNL     1      -3.452  -1.143   3.033  0.00  0.00    -0.337 N 
ATOM     17  H   UNL     1      -4.186  -1.944   3.203  0.00  0.00    +0.144 HD
ATOM     18  H   UNL     1      -3.747  -0.232   2.491  0.00  0.00    +0.144 HD
ENDBRANCH   1   7
BRANCH   3  19
ATOM     19  N   UNL     1       3.064   1.970   4.353  0.00  0.00    -0.187 NA
ATOM     20  C   UNL     1       3.482   2.341   5.525  0.00  0.00    +0.138 C 
BRANCH  20  21
ATOM     21  C   UNL     1       4.918   2.279   5.849  0.00  0.00    -0.005 A 
ATOM     22  C   UNL     1       5.832   1.817   4.898  0.00  0.00    +0.013 A 
ATOM     23  C   UNL     1       7.175   1.766   5.204  0.00  0.00    +0.046 A 
ATOM     24  C   UNL     1       7.619   2.163   6.459  0.00  0.00    +0.121 A 
ATOM     25  C   UNL     1       6.713   2.617   7.409  0.00  0.00    +0.046 A 
ATOM     26  C   UNL     1       5.370   2.676   7.111  0.00  0.00    +0.013 A 
BRANCH  24  27
ATOM     27  O   UNL     1       8.943   2.106   6.758  0.00  0.00    -0.487 OA
BRANCH  27  28
ATOM     28  C   UNL     1       9.819   1.629   5.735  0.00  0.00    +0.266 C 
BRANCH  28  29
ATOM     29  C   UNL     1      11.237   1.636   6.245  0.00  0.00    +0.008 A 
ATOM     30  C   UNL     1      11.507   2.065   7.531  0.00  0.00    +0.010 A 
ATOM     31  C   UNL     1      12.807   2.071   7.999  0.00  0.00    +0.020 A 
ATOM     32  C   UNL     1      13.840   1.648   7.180  0.00  0.00    +0.042 A 
ATOM     33  C   UNL     1      13.570   1.218   5.894  0.00  0.00    +0.040 A 
ATOM     34  C   UNL     1      12.268   1.208   5.427  0.00  0.00    +0.049 A 
ATOM     35 CL   UNL     1      11.928   0.663   3.814  0.00  0.00    -0.083 Cl
ATOM     36 CL   UNL     1      15.473   1.656   7.769  0.00  0.00    -0.083 Cl
ENDBRANCH  28  29
ENDBRANCH  27  28
ENDBRANCH  24  27
ENDBRANCH  20  21
ENDBRANCH   3  19
TORSDOF 6
