REMARK  Name = ZINC09102394
REMARK  15 active torsions:
REMARK  status: ('A' for Active; 'I' for Inactive)
REMARK    1  A    between atoms: C_1  and  C_2
REMARK    2  A    between atoms: C_2  and  C_4
REMARK    3  A    between atoms: C_2  and  N_61
REMARK    4  A    between atoms: C_7  and  S_16
REMARK    5  A    between atoms: N_8  and  C_9
REMARK    6  A    between atoms: S_16  and  C_17
REMARK    7  A    between atoms: C_17  and  C_19
REMARK    8  A    between atoms: C_17  and  C_20
REMARK    9  A    between atoms: N_22  and  C_23
REMARK   10  A    between atoms: C_25  and  O_31
REMARK   11  A    between atoms: C_27  and  O_29
REMARK   12  A    between atoms: O_29  and  C_30
REMARK   13  A    between atoms: O_31  and  C_32
REMARK   14  A    between atoms: C_33  and  N_61
REMARK   15  A    between atoms: C_34  and  N_61
REMARK                            x       y       z     vdW  Elec       q    Type
REMARK                         _______ _______ _______ _____ _____    ______ ____
ROOT
ATOM      1  C   UNL     1      -0.483  -0.821  -0.973  0.00  0.00    +0.125 A 
ATOM      2  N   UNL     1      -0.275  -2.047  -0.583  0.00  0.00    -0.135 NA
ATOM      3  N   UNL     1       0.284  -2.054   0.574  0.00  0.00    -0.122 NA
ATOM      4  C   UNL     1       0.472  -0.823   0.988  0.00  0.00    +0.197 A 
ATOM      5  N   UNL     1      -0.009   0.005   0.011  0.00  0.00    -0.275 N 
ENDROOT
BRANCH   5   6
ATOM      6  C   UNL     1      -0.019   1.408   0.018  0.00  0.00    +0.050 A 
ATOM      7  C   UNL     1      -1.226   2.094   0.033  0.00  0.00    +0.028 A 
ATOM      8  C   UNL     1      -1.234   3.475   0.045  0.00  0.00    +0.022 A 
ATOM      9  C   UNL     1      -0.040   4.175   0.031  0.00  0.00    +0.041 A 
ATOM     10  C   UNL     1       1.164   3.493   0.011  0.00  0.00    +0.022 A 
ATOM     11  C   UNL     1       1.177   2.112   0.004  0.00  0.00    +0.028 A 
ATOM     12 CL   UNL     1      -0.053   5.911   0.039  0.00  0.00    -0.084 Cl
ENDBRANCH   5   6
BRANCH   1  14
ATOM     13  C   UNL     1      -0.132  -0.592  -3.417  0.00  0.00    -0.005 C 
ATOM     14  C   UNL     1      -1.123  -0.392  -2.268  0.00  0.00    -0.003 C 
BRANCH  14  17
ATOM     15  C   UNL     1      -3.260  -1.107  -1.383  0.00  0.00    -0.096 C 
ATOM     16  C   UNL     1      -2.976  -0.810  -3.769  0.00  0.00    -0.096 C 
ATOM     17  N   UNL     1      -2.316  -1.228  -2.515  0.00  0.00    +0.382 N 
ATOM     18  H   UNL     1      -2.025  -2.209  -2.602  0.00  0.00    -0.082 HD
ENDBRANCH  14  17
ENDBRANCH   1  14
BRANCH   4  19
ATOM     19  S   UNL     1       1.204  -0.330   2.513  0.00  0.00    -0.073 S 
BRANCH  19  20
ATOM     20  C   UNL     1       1.566  -1.953   3.227  0.00  0.00    +0.137 C 
ATOM     21  C   UNL     1       2.609  -2.668   2.366  0.00  0.00    +0.029 C 
BRANCH  20  22
ATOM     22  C   UNL     1       2.103  -1.778   4.625  0.00  0.00    +0.230 C 
ATOM     23  O   UNL     1       2.568  -0.712   4.967  0.00  0.00    -0.274 OA
ATOM     24  N   UNL     1       2.065  -2.807   5.494  0.00  0.00    -0.284 N 
ATOM     25  H   UNL     1       1.633  -3.639   5.243  0.00  0.00    +0.155 HD
BRANCH  24  26
ATOM     26  C   UNL     1       2.650  -2.676   6.758  0.00  0.00    +0.040 A 
ATOM     27  C   UNL     1       3.265  -3.768   7.355  0.00  0.00    +0.069 A 
ATOM     28  C   UNL     1       3.849  -3.636   8.606  0.00  0.00    +0.125 A 
ATOM     29  C   UNL     1       3.809  -2.417   9.265  0.00  0.00    +0.091 A 
ATOM     30  C   UNL     1       3.189  -1.327   8.672  0.00  0.00    +0.125 A 
ATOM     31  C   UNL     1       2.609  -1.456   7.419  0.00  0.00    +0.069 A 
BRANCH  30  32
ATOM     32  O   UNL     1       3.150  -0.133   9.319  0.00  0.00    -0.495 OA
ATOM     33  C   UNL     1       3.766  -0.071  10.606  0.00  0.00    +0.277 C 
ENDBRANCH  30  32
BRANCH  28  34
ATOM     34  O   UNL     1       4.457  -4.703   9.188  0.00  0.00    -0.495 OA
ATOM     35  C   UNL     1       5.033  -4.497  10.479  0.00  0.00    +0.277 C 
ENDBRANCH  28  34
ENDBRANCH  24  26
ENDBRANCH  20  22
ENDBRANCH  19  20
ENDBRANCH   4  19
TORSDOF 9
