REMARK  Name = ZINC61588563
REMARK  2 active torsions:
REMARK  status: ('A' for Active; 'I' for Inactive)
REMARK    1  A    between atoms: N_11  and  C_12
REMARK    2  A    between atoms: C_12  and  C_18
REMARK                            x       y       z     vdW  Elec       q    Type
REMARK                         _______ _______ _______ _____ _____    ______ ____
ROOT
ATOM      1  C   UNL     1       2.898  -3.448  -2.999  0.00  0.00    +0.001 A 
ATOM      2  C   UNL     1       4.083  -2.724  -3.006  0.00  0.00    +0.002 A 
ATOM      3  C   UNL     1       4.339  -1.786  -2.030  0.00  0.00    +0.026 A 
ATOM      4  C   UNL     1       3.401  -1.560  -1.027  0.00  0.00    +0.054 A 
ATOM      5  C   UNL     1       2.204  -2.296  -1.026  0.00  0.00    +0.045 A 
ATOM      6  C   UNL     1       1.964  -3.242  -2.023  0.00  0.00    +0.014 A 
ATOM      7  C   UNL     1       1.224  -2.042   0.045  0.00  0.00    +0.189 A 
ATOM      8  O   UNL     1       0.169  -2.653   0.092  0.00  0.00    -0.287 OA
ATOM      9  C   UNL     1       1.548  -1.065   1.016  0.00  0.00    +0.069 A 
ATOM     10  C   UNL     1       2.720  -0.402   0.943  0.00  0.00    +0.091 A 
ATOM     11  N   UNL     1       3.627  -0.630  -0.037  0.00  0.00    -0.329 N 
ENDROOT
BRANCH  11  12
ATOM     12  C   UNL     1       4.878   0.133  -0.046  0.00  0.00    +0.155 C 
ATOM     13  C   UNL     1       6.058  -0.828   0.051  0.00  0.00    +0.042 C 
ATOM     14  C   UNL     1       5.850  -1.830   1.183  0.00  0.00    +0.013 C 
ATOM     15  C   UNL     1       5.995  -1.127   2.535  0.00  0.00    +0.069 C 
ATOM     16  S   UNL     1       4.697   0.139   2.675  0.00  0.00    -0.158 S 
ATOM     17  C   UNL     1       4.892   1.099   1.143  0.00  0.00    +0.109 C 
BRANCH  12  18
ATOM     18  C   UNL     1       4.977   0.918  -1.329  0.00  0.00    +0.382 C 
ATOM     19  O   UNL     1       4.086   0.846  -2.158  0.00  0.00    -0.244 OA
ATOM     20  O   UNL     1       5.948   1.624  -1.537  0.00  0.00    -0.244 OA
ENDBRANCH  12  18
ENDBRANCH  11  12
TORSDOF 2
