REMARK  Name = ZINC22015298
REMARK  5 active torsions:
REMARK  status: ('A' for Active; 'I' for Inactive)
REMARK    1  A    between atoms: C_1  and  C_2
REMARK    2  A    between atoms: C_2  and  C_14
REMARK    3  A    between atoms: N_3  and  N_4
REMARK    4  A    between atoms: N_7  and  C_8
REMARK    5  A    between atoms: C_18  and  C_20
REMARK                            x       y       z     vdW  Elec       q    Type
REMARK                         _______ _______ _______ _____ _____    ______ ____
ROOT
ATOM      1  C   UNL     1      -1.088  -0.899  -0.426  0.00  0.00    +0.068 C 
ATOM      2  C   UNL     1       0.117  -0.076  -0.050  0.00  0.00    +0.063 C 
ATOM      3  N   UNL     1      -0.038   1.073   0.532  0.00  0.00    -0.183 NA
ENDROOT
BRANCH   3   4
ATOM      4  N   UNL     1       1.069   1.902   0.752  0.00  0.00    -0.190 N 
ATOM      5  C   UNL     1       0.923   3.054   1.435  0.00  0.00    +0.323 C 
ATOM      6  O   UNL     1       1.885   3.774   1.627  0.00  0.00    -0.251 OA
ATOM      7  N   UNL     1      -0.288   3.409   1.907  0.00  0.00    -0.268 N 
ATOM      8  H   UNL     1       2.058   1.612   0.367  0.00  0.00    +0.179 HD
ATOM      9  H   UNL     1      -1.172   2.801   1.665  0.00  0.00    +0.156 HD
BRANCH   7  10
ATOM     10  C   UNL     1      -0.422   4.551   2.704  0.00  0.00    +0.031 C 
ATOM     11  C   UNL     1      -1.079   4.487   3.865  0.00  0.00    -0.003 C 
ATOM     12  C   UNL     1      -1.223   5.719   4.719  0.00  0.00    +0.033 C 
ATOM     13  C   UNL     1       0.033   6.582   4.604  0.00  0.00    +0.031 C 
ATOM     14  C   UNL     1       0.379   6.796   3.154  0.00  0.00    -0.025 C 
ATOM     15  C   UNL     1       0.167   5.832   2.269  0.00  0.00    +0.019 C 
ENDBRANCH   7  10
ENDBRANCH   3   4
BRANCH   2  16
ATOM     16  C   UNL     1       1.473  -0.578  -0.342  0.00  0.00    -0.002 A 
ATOM     17  C   UNL     1       2.522  -0.322   0.547  0.00  0.00    +0.010 A 
ATOM     18  C   UNL     1       3.790  -0.791   0.273  0.00  0.00    +0.001 A 
ATOM     19  C   UNL     1       4.032  -1.515  -0.879  0.00  0.00    +0.008 A 
ATOM     20  C   UNL     1       2.995  -1.776  -1.773  0.00  0.00    -0.017 A 
ATOM     21  C   UNL     1       1.712  -1.313  -1.503  0.00  0.00    +0.018 A 
BRANCH  20  22
ATOM     22  C   UNL     1       3.259  -2.554  -3.010  0.00  0.00    -0.018 A 
ATOM     23  C   UNL     1       2.223  -2.821  -3.902  0.00  0.00    +0.008 A 
ATOM     24  C   UNL     1       2.475  -3.539  -5.054  0.00  0.00    +0.001 A 
ATOM     25  C   UNL     1       3.751  -4.004  -5.316  0.00  0.00    +0.000 A 
ATOM     26  C   UNL     1       4.782  -3.747  -4.431  0.00  0.00    +0.001 A 
ATOM     27  C   UNL     1       4.543  -3.024  -3.280  0.00  0.00    +0.008 A 
ENDBRANCH  20  22
ENDBRANCH   2  16
TORSDOF 4
