REMARK  Name = ZINC03420133
REMARK  4 active torsions:
REMARK  status: ('A' for Active; 'I' for Inactive)
REMARK    1  A    between atoms: C_3  and  S_6
REMARK    2  A    between atoms: S_6  and  N_9
REMARK    3  A    between atoms: C_14  and  C_15
REMARK    4  A    between atoms: C_14  and  N_44
REMARK                            x       y       z     vdW  Elec       q    Type
REMARK                         _______ _______ _______ _____ _____    ______ ____
ROOT
ATOM      1  C   UNL     1      -3.762   5.824   0.066  0.00  0.00    -0.003 C 
ENDROOT
BRANCH   1   2
ATOM      2  C   UNL     1      -2.425   5.129   0.050  0.00  0.00    +0.094 A 
ATOM      3  N   UNL     1      -1.301   5.893   0.043  0.00  0.00    -0.312 N 
ATOM      4  H   UNL     1      -1.379   6.890   0.049  0.00  0.00    +0.170 HD
ATOM      5  C   UNL     1      -0.076   5.317   0.029  0.00  0.00    +0.259 A 
ATOM      6  O   UNL     1       0.939   5.989   0.023  0.00  0.00    -0.267 OA
ATOM      7  C   UNL     1      -0.020   3.848   0.022  0.00  0.00    +0.067 A 
ATOM      8  C   UNL     1       1.190   3.157   0.007  0.00  0.00    +0.030 A 
ATOM      9  C   UNL     1       1.186   1.778   0.000  0.00  0.00    +0.020 A 
ATOM     10  C   UNL     1      -0.013   1.076   0.008  0.00  0.00    +0.032 A 
ATOM     11  C   UNL     1      -1.219   1.740   0.017  0.00  0.00    +0.045 A 
ATOM     12  C   UNL     1      -1.240   3.137   0.030  0.00  0.00    +0.092 A 
ATOM     13  N   UNL     1      -2.406   3.831   0.044  0.00  0.00    -0.235 NA
ATOM     14 BR   UNL     1      -2.840   0.765   0.020  0.00  0.00    -0.048 Br
ATOM     15 BR   UNL     1       2.825   0.836  -0.020  0.00  0.00    -0.050 Br
ENDBRANCH   1   2
BRANCH   1  21
ATOM     16  N   UNL     1      -7.155   3.466  -0.667  0.00  0.00    -0.180 NA
ATOM     17  C   UNL     1      -7.200   4.357   0.503  0.00  0.00    +0.091 C 
ATOM     18  C   UNL     1      -6.139   5.448   0.325  0.00  0.00    -0.061 C 
ATOM     19  C   UNL     1      -4.846   4.056  -1.182  0.00  0.00    -0.061 C 
ATOM     20  C   UNL     1      -5.854   2.907  -1.066  0.00  0.00    +0.091 C 
ATOM     21  N   UNL     1      -4.829   4.803   0.095  0.00  0.00    +0.386 N 
ATOM     22  H   UNL     1      -4.641   4.146   0.862  0.00  0.00    -0.081 HD
BRANCH  16  23
ATOM     23  S   UNL     1      -8.532   3.102  -1.512  0.00  0.00    +0.067 S 
ATOM     24  O   UNL     1      -8.292   1.863  -2.165  0.00  0.00    -0.152 OA
ATOM     25  O   UNL     1      -9.620   3.294  -0.618  0.00  0.00    -0.152 OA
BRANCH  23  28
ATOM     26  C   UNL     1      -8.481   5.373  -4.875  0.00  0.00    +0.010 A 
ATOM     27  C   UNL     1      -8.217   4.301  -4.045  0.00  0.00    +0.036 A 
ATOM     28  C   UNL     1      -8.701   4.315  -2.779  0.00  0.00    +0.143 A 
ATOM     29  S   UNL     1      -9.549   5.886  -2.725  0.00  0.00    -0.077 S 
ATOM     30  C   UNL     1      -9.207   6.413  -4.396  0.00  0.00    +0.047 A 
ENDBRANCH  23  28
ENDBRANCH  16  23
ENDBRANCH   1  21
TORSDOF 4
