REMARK  Name = ZINC39380785
REMARK  7 active torsions:
REMARK  status: ('A' for Active; 'I' for Inactive)
REMARK    1  A    between atoms: C_1  and  C_2
REMARK    2  A    between atoms: C_4  and  C_8
REMARK    3  A    between atoms: N_10  and  C_11
REMARK    4  A    between atoms: C_11  and  C_12
REMARK    5  A    between atoms: N_17  and  C_19
REMARK    6  A    between atoms: C_19  and  C_20
REMARK    7  A    between atoms: C_25  and  C_26
REMARK                            x       y       z     vdW  Elec       q    Type
REMARK                         _______ _______ _______ _____ _____    ______ ____
ROOT
ATOM      1  C   UNL     1      -3.553  -4.222   3.381  0.00  0.00    -0.011 C 
ATOM      2  C   UNL     1      -3.968  -5.326   2.405  0.00  0.00    +0.001 C 
ATOM      3  C   UNL     1      -5.403  -5.759   2.718  0.00  0.00    -0.018 C 
ATOM      4  C   UNL     1      -5.485  -6.215   4.177  0.00  0.00    -0.079 C 
ATOM      5  N   UNL     1      -5.102  -5.107   5.061  0.00  0.00    +0.381 N 
ATOM      6  C   UNL     1      -3.704  -4.733   4.816  0.00  0.00    -0.074 C 
ATOM      7  H   UNL     1      -5.697  -4.313   4.881  0.00  0.00    -0.082 HD
ENDROOT
BRANCH   1   8
ATOM      8  C   UNL     1      -2.094  -3.836   3.127  0.00  0.00    +0.106 C 
BRANCH   8  11
ATOM      9  C   UNL     1      -0.770  -2.820   1.353  0.00  0.00    +0.237 C 
ATOM     10  O   UNL     1       0.210  -2.938   2.056  0.00  0.00    -0.274 OA
ATOM     11  N   UNL     1      -1.972  -3.238   1.796  0.00  0.00    -0.313 N 
ATOM     12  H   UNL     1      -2.756  -3.144   1.233  0.00  0.00    +0.149 HD
BRANCH   9  16
ATOM     13  C   UNL     1      -0.018   1.503   0.010  0.00  0.00    +0.088 C 
ATOM     14  C   UNL     1       0.002  -0.004   0.002  0.00  0.00    +0.120 C 
ATOM     15  C   UNL     1      -1.081  -0.752   0.003  0.00  0.00    +0.047 C 
ATOM     16  C   UNL     1      -0.645  -2.204  -0.017  0.00  0.00    +0.204 C 
ATOM     17  N   UNL     1       0.780  -2.110  -0.429  0.00  0.00    -0.140 NA
ATOM     18  O   UNL     1       1.137  -0.743  -0.013  0.00  0.00    -0.411 OA
ATOM     19  H   UNL     1       1.342  -2.796   0.054  0.00  0.00    +0.168 HD
ENDBRANCH   9  16
ENDBRANCH   8  11
ENDBRANCH   1   8
BRANCH   5  20
ATOM     20  C   UNL     1      -5.257  -5.525   6.461  0.00  0.00    -0.064 C 
BRANCH  20  21
ATOM     21  C   UNL     1      -6.736  -5.785   6.755  0.00  0.00    +0.062 C 
ATOM     22  C   UNL     1      -7.522  -4.490   6.730  0.00  0.00    +0.115 C 
ATOM     23  N   UNL     1      -8.013  -4.351   7.917  0.00  0.00    -0.161 NA
ATOM     24  N   UNL     1      -7.661  -5.398   8.763  0.00  0.00    -0.158 NA
ATOM     25  C   UNL     1      -6.919  -6.283   8.175  0.00  0.00    +0.051 C 
BRANCH  25  26
ATOM     26  C   UNL     1      -6.355  -7.544   8.775  0.00  0.00    +0.036 C 
ATOM     27  C   UNL     1      -6.969  -8.760   8.079  0.00  0.00    +0.009 C 
ATOM     28  C   UNL     1      -6.396 -10.041   8.689  0.00  0.00    +0.001 C 
ATOM     29  C   UNL     1      -6.726 -10.087  10.182  0.00  0.00    +0.000 C 
ATOM     30  C   UNL     1      -6.112  -8.872  10.878  0.00  0.00    +0.001 C 
ATOM     31  C   UNL     1      -6.685  -7.591  10.269  0.00  0.00    +0.009 C 
ENDBRANCH  25  26
ENDBRANCH  20  21
ENDBRANCH   5  20
TORSDOF 6
