REMARK  Name = ZINC60340157
REMARK  11 active torsions:
REMARK  status: ('A' for Active; 'I' for Inactive)
REMARK    1  A    between atoms: C_1  and  C_2
REMARK    2  A    between atoms: C_5  and  N_8
REMARK    3  A    between atoms: C_12  and  C_13
REMARK    4  A    between atoms: C_16  and  C_19
REMARK    5  A    between atoms: C_19  and  C_20
REMARK    6  A    between atoms: C_19  and  C_21
REMARK    7  A    between atoms: C_23  and  S_24
REMARK    8  A    between atoms: S_24  and  C_25
REMARK    9  A    between atoms: C_25  and  C_26
REMARK   10  A    between atoms: C_26  and  C_27
REMARK   11  A    between atoms: C_27  and  C_28
REMARK                            x       y       z     vdW  Elec       q    Type
REMARK                         _______ _______ _______ _____ _____    ______ ____
ROOT
ATOM      1  N   UNL     1       0.102  -4.174  -0.018  0.00  0.00    -0.214 N 
ATOM      2  C   UNL     1      -0.031  -4.959  -1.111  0.00  0.00    +0.275 C 
ATOM      3  O   UNL     1      -0.196  -4.599  -2.261  0.00  0.00    -0.268 OA
ATOM      4  C   UNL     1       0.068  -6.345  -0.613  0.00  0.00    +0.129 C 
ATOM      5  C   UNL     1      -0.008  -7.491  -1.351  0.00  0.00    +0.041 C 
ATOM      6  N   UNL     1       0.251  -6.247   0.737  0.00  0.00    -0.220 NA
ATOM      7  C   UNL     1       0.275  -4.984   1.078  0.00  0.00    +0.168 C 
ENDROOT
BRANCH   1  12
ATOM      8  C   UNL     1      -0.013   1.500   0.028  0.00  0.00    +0.044 C 
ATOM      9  C   UNL     1       0.018  -0.007   0.015  0.00  0.00    -0.050 A 
ATOM     10  C   UNL     1       1.117  -0.679   0.517  0.00  0.00    +0.005 A 
ATOM     11  C   UNL     1       1.148  -2.060   0.507  0.00  0.00    +0.024 A 
ATOM     12  C   UNL     1       0.073  -2.773  -0.007  0.00  0.00    +0.044 A 
ATOM     13  C   UNL     1      -1.029  -2.095  -0.509  0.00  0.00    +0.024 A 
ATOM     14  C   UNL     1      -1.056  -0.714  -0.492  0.00  0.00    +0.005 A 
ENDBRANCH   1  12
BRANCH   5  15
ATOM     15  C   UNL     1      -0.042  -8.796  -0.679  0.00  0.00    -0.023 A 
ATOM     16  C   UNL     1       0.021  -9.976  -1.430  0.00  0.00    +0.008 A 
ATOM     17  C   UNL     1      -0.011 -11.197  -0.791  0.00  0.00    +0.004 A 
ATOM     18  C   UNL     1      -0.105 -11.258   0.589  0.00  0.00    -0.045 A 
ATOM     19  C   UNL     1      -0.168 -10.097   1.339  0.00  0.00    +0.004 A 
ATOM     20  C   UNL     1      -0.131  -8.867   0.717  0.00  0.00    +0.008 A 
BRANCH  18  21
ATOM     21  C   UNL     1      -0.140 -12.598   1.278  0.00  0.00    +0.013 C 
ATOM     22  C   UNL     1       1.047 -12.710   2.236  0.00  0.00    +0.012 C 
ATOM     23  C   UNL     1      -1.446 -12.733   2.065  0.00  0.00    +0.012 C 
ENDBRANCH  18  21
ENDBRANCH   5  15
BRANCH   7  24
ATOM     24  S   UNL     1       0.495  -4.400   2.725  0.00  0.00    -0.090 S 
BRANCH  24  25
ATOM     25  C   UNL     1       0.668  -5.914   3.709  0.00  0.00    +0.077 C 
BRANCH  25  26
ATOM     26  C   UNL     1       0.869  -5.546   5.180  0.00  0.00    +0.020 C 
BRANCH  26  27
ATOM     27  C   UNL     1       1.014  -6.823   6.010  0.00  0.00    +0.097 C 
BRANCH  27  28
ATOM     28  C   UNL     1       1.212  -6.461   7.460  0.00  0.00    +0.220 C 
ATOM     29  O   UNL     1       1.234  -5.296   7.796  0.00  0.00    -0.275 OA
ATOM     30  N   UNL     1       1.364  -7.432   8.382  0.00  0.00    -0.240 N 
ATOM     31  C   UNL     1       1.541  -7.108   9.678  0.00  0.00    +0.303 C 
ATOM     32  O   UNL     1       1.563  -5.940  10.015  0.00  0.00    -0.253 OA
ATOM     33  N   UNL     1       1.693  -8.078  10.601  0.00  0.00    -0.313 N 
ATOM     34  H   UNL     1       1.346  -8.364   8.113  0.00  0.00    +0.159 HD
ATOM     35  H   UNL     1       1.675  -9.010  10.332  0.00  0.00    +0.146 HD
ATOM     36  H   UNL     1       1.820  -7.845  11.534  0.00  0.00    +0.146 HD
ENDBRANCH  27  28
ENDBRANCH  26  27
ENDBRANCH  25  26
ENDBRANCH  24  25
ENDBRANCH   7  24
TORSDOF 8
