REMARK  Name = ZINC12348497
REMARK  9 active torsions:
REMARK  status: ('A' for Active; 'I' for Inactive)
REMARK    1  A    between atoms: C_1  and  O_2
REMARK    2  A    between atoms: O_2  and  C_3
REMARK    3  A    between atoms: C_6  and  C_13
REMARK    4  A    between atoms: C_7  and  O_11
REMARK    5  A    between atoms: C_8  and  O_9
REMARK    6  A    between atoms: O_9  and  C_10
REMARK    7  A    between atoms: O_11  and  C_12
REMARK    8  A    between atoms: N_18  and  C_21
REMARK    9  A    between atoms: C_19  and  O_20
REMARK                            x       y       z     vdW  Elec       q    Type
REMARK                         _______ _______ _______ _____ _____    ______ ____
ROOT
ATOM      1  C   UNL     1      -4.994  -2.620   0.038  0.00  0.00    +0.096 C 
ATOM      2  C   UNL     1      -5.772  -2.224  -1.184  0.00  0.00    +0.068 A 
ATOM      3  C   UNL     1      -6.873  -1.337  -1.116  0.00  0.00    +0.153 A 
ATOM      4  N   UNL     1      -7.345  -1.175  -2.317  0.00  0.00    -0.148 NA
ATOM      5  N   UNL     1      -6.574  -1.948  -3.200  0.00  0.00    -0.199 N 
ATOM      6  C   UNL     1      -5.611  -2.585  -2.472  0.00  0.00    +0.222 A 
ATOM      7  N   UNL     1      -7.281  -0.801   0.108  0.00  0.00    -0.301 N 
ATOM      8  C   UNL     1      -6.803  -1.369   1.263  0.00  0.00    +0.017 C 
ATOM      9  C   UNL     1      -5.759  -2.223   1.282  0.00  0.00    +0.024 C 
ATOM     10  C   UNL     1      -5.324  -2.798   2.491  0.00  0.00    +0.162 C 
ATOM     11  C   UNL     1      -6.000  -2.495   3.798  0.00  0.00    +0.080 C 
ATOM     12  C   UNL     1      -7.468  -2.148   3.528  0.00  0.00    +0.014 C 
ATOM     13  C   UNL     1      -7.508  -0.982   2.544  0.00  0.00    +0.051 C 
ATOM     14  O   UNL     1      -4.377  -3.561   2.476  0.00  0.00    -0.292 OA
ATOM     15  H   UNL     1      -7.888  -0.046   0.142  0.00  0.00    +0.153 HD
ENDROOT
BRANCH   1  19
ATOM     16  C   UNL     1      -1.201  -0.638   0.010  0.00  0.00    +0.165 A 
ATOM     17  C   UNL     1      -2.375   0.101   0.019  0.00  0.00    +0.050 A 
ATOM     18  C   UNL     1      -3.598  -0.543   0.028  0.00  0.00    +0.012 A 
ATOM     19  C   UNL     1      -3.657  -1.924   0.028  0.00  0.00    +0.010 A 
ATOM     20  C   UNL     1      -2.488  -2.670   0.018  0.00  0.00    +0.169 A 
ATOM     21  C   UNL     1      -1.256  -2.026   0.003  0.00  0.00    +0.204 A 
BRANCH  16  23
ATOM     22  C   UNL     1      -0.017   1.425   0.010  0.00  0.00    +0.277 C 
ATOM     23  O   UNL     1       0.002  -0.004   0.002  0.00  0.00    -0.491 OA
ENDBRANCH  16  23
BRANCH  21  24
ATOM     24  O   UNL     1      -0.106  -2.755  -0.012  0.00  0.00    -0.488 OA
ATOM     25  C   UNL     1       0.454  -3.109   1.254  0.00  0.00    +0.277 C 
ENDBRANCH  21  24
BRANCH  20  26
ATOM     26  O   UNL     1      -2.547  -4.028   0.018  0.00  0.00    -0.491 OA
ATOM     27  C   UNL     1      -2.586  -4.676  -1.255  0.00  0.00    +0.277 C 
ENDBRANCH  20  26
ENDBRANCH   1  19
BRANCH   5  28
ATOM     28  C   UNL     1      -6.760  -2.049  -4.585  0.00  0.00    +0.069 A 
ATOM     29  C   UNL     1      -5.665  -2.190  -5.426  0.00  0.00    +0.028 A 
ATOM     30  C   UNL     1      -5.853  -2.289  -6.791  0.00  0.00    +0.002 A 
ATOM     31  C   UNL     1      -7.130  -2.248  -7.320  0.00  0.00    +0.000 A 
ATOM     32  C   UNL     1      -8.223  -2.107  -6.484  0.00  0.00    +0.002 A 
ATOM     33  C   UNL     1      -8.042  -2.014  -5.118  0.00  0.00    +0.028 A 
ENDBRANCH   5  28
BRANCH   6  34
ATOM     34  O   UNL     1      -4.664  -3.428  -2.957  0.00  0.00    -0.492 OA
ATOM     35  H   UNL     1      -4.935  -4.356  -2.974  0.00  0.00    +0.294 HD
ENDBRANCH   6  34
TORSDOF 6
