REMARK  Name = ZINC33297937
REMARK  9 active torsions:
REMARK  status: ('A' for Active; 'I' for Inactive)
REMARK    1  A    between atoms: C_1  and  C_2
REMARK    2  A    between atoms: C_2  and  C_3
REMARK    3  A    between atoms: N_5  and  C_6
REMARK    4  A    between atoms: C_7  and  C_34
REMARK    5  A    between atoms: C_10  and  C_11
REMARK    6  A    between atoms: C_12  and  C_13
REMARK    7  A    between atoms: C_16  and  S_19
REMARK    8  A    between atoms: S_19  and  N_22
REMARK    9  A    between atoms: N_22  and  C_23
REMARK                            x       y       z     vdW  Elec       q    Type
REMARK                         _______ _______ _______ _____ _____    ______ ____
ROOT
ATOM      1  C   UNL     1       7.841   3.685  -0.114  0.00  0.00    -0.025 A 
ATOM      2  C   UNL     1       6.747   3.918  -0.952  0.00  0.00    +0.010 A 
ATOM      3  C   UNL     1       5.467   3.856  -0.442  0.00  0.00    +0.029 A 
ATOM      4  C   UNL     1       5.265   3.562   0.896  0.00  0.00    +0.105 A 
ATOM      5  C   UNL     1       6.344   3.335   1.732  0.00  0.00    +0.029 A 
ATOM      6  C   UNL     1       7.629   3.389   1.236  0.00  0.00    +0.010 A 
ENDROOT
BRANCH   4   7
ATOM      7  S   UNL     1       3.626   3.484   1.538  0.00  0.00    +0.059 S 
ATOM      8  O   UNL     1       2.799   4.193   0.627  0.00  0.00    -0.153 OA
ATOM      9  O   UNL     1       3.713   3.827   2.915  0.00  0.00    -0.153 OA
BRANCH   7  10
ATOM     10  N   UNL     1       3.151   1.899   1.474  0.00  0.00    -0.183 NA
ATOM     11  H   UNL     1       2.458   1.577   0.683  0.00  0.00    +0.149 HD
BRANCH  10  12
ATOM     12  C   UNL     1       3.811   0.901   2.320  0.00  0.00    +0.107 C 
ATOM     13  C   UNL     1       3.024   0.742   3.619  0.00  0.00    +0.025 C 
ATOM     14  C   UNL     1       3.602  -0.450   4.391  0.00  0.00    +0.007 C 
ATOM     15  C   UNL     1       3.244  -1.731   3.640  0.00  0.00    +0.035 C 
ATOM     16  C   UNL     1       3.628  -1.618   2.188  0.00  0.00    -0.043 A 
ATOM     17  C   UNL     1       3.882  -0.409   1.580  0.00  0.00    -0.026 A 
ATOM     18  C   UNL     1       4.224  -0.374   0.235  0.00  0.00    +0.005 A 
ATOM     19  C   UNL     1       4.317  -1.541  -0.496  0.00  0.00    +0.000 A 
ATOM     20  C   UNL     1       4.067  -2.755   0.116  0.00  0.00    +0.000 A 
ATOM     21  C   UNL     1       3.724  -2.792   1.452  0.00  0.00    +0.004 A 
ENDBRANCH  10  12
ENDBRANCH   7  10
ENDBRANCH   4   7
BRANCH   1  23
ATOM     22  C   UNL     1       9.555   4.736  -1.502  0.00  0.00    +0.051 C 
ATOM     23  C   UNL     1       9.211   3.749  -0.651  0.00  0.00    +0.011 C 
BRANCH  22  28
ATOM     24  C   UNL     1       8.758   6.841  -2.710  0.00  0.00    +0.103 A 
ATOM     25  C   UNL     1       7.601   7.632  -2.520  0.00  0.00    +0.102 A 
ATOM     26  N   UNL     1       6.934   7.089  -1.541  0.00  0.00    -0.081 NA
ATOM     27  O   UNL     1       7.478   6.103  -1.102  0.00  0.00    -0.353 OA
ATOM     28  C   UNL     1       8.630   5.841  -1.754  0.00  0.00    +0.182 A 
ATOM     29  C   UNL     1       7.217   8.866  -3.294  0.00  0.00    +0.071 C 
BRANCH  24  32
ATOM     30  C   UNL     1      10.336   8.242  -3.812  0.00  0.00    +0.217 C 
ATOM     31  O   UNL     1       9.963   9.175  -3.132  0.00  0.00    -0.275 OA
ATOM     32  N   UNL     1       9.789   7.023  -3.642  0.00  0.00    -0.281 N 
ATOM     33  H   UNL     1      10.150   6.170  -4.235  0.00  0.00    +0.155 HD
BRANCH  30  35
ATOM     34  C   UNL     1      11.859   9.911  -4.835  0.00  0.00    +0.013 C 
ATOM     35  C   UNL     1      11.413   8.447  -4.847  0.00  0.00    +0.093 C 
ENDBRANCH  30  35
ENDBRANCH  24  32
ENDBRANCH  22  28
ENDBRANCH   1  23
TORSDOF 7
