REMARK  Name = ZINC38976102
REMARK  6 active torsions:
REMARK  status: ('A' for Active; 'I' for Inactive)
REMARK    1  A    between atoms: C_1  and  C_2
REMARK    2  A    between atoms: C_4  and  C_8
REMARK    3  A    between atoms: C_15  and  C_17
REMARK    4  A    between atoms: C_20  and  N_23
REMARK    5  A    between atoms: N_23  and  C_24
REMARK    6  A    between atoms: N_23  and  C_25
REMARK                            x       y       z     vdW  Elec       q    Type
REMARK                         _______ _______ _______ _____ _____    ______ ____
ROOT
ATOM      1  C   UNL     1      -0.977  -2.937  -1.254  0.00  0.00    +0.230 C 
ATOM      2  N   UNL     1      -2.444  -2.976  -1.349  0.00  0.00    -0.242 N 
ATOM      3  N   UNL     1      -2.797  -4.331  -1.337  0.00  0.00    -0.161 NA
ATOM      4  C   UNL     1      -1.757  -5.082  -1.249  0.00  0.00    +0.201 C 
ATOM      5  N   UNL     1      -0.567  -4.363  -1.191  0.00  0.00    -0.175 N 
ATOM      6  N   UNL     1       0.602  -5.110  -1.097  0.00  0.00    -0.168 NA
ATOM      7  C   UNL     1       0.576  -6.412  -1.065  0.00  0.00    +0.130 C 
ATOM      8  S   UNL     1      -1.178  -6.765  -1.167  0.00  0.00    -0.029 S 
ATOM      9  H   UNL     1      -3.045  -2.217  -1.407  0.00  0.00    +0.170 HD
ENDROOT
BRANCH   1  13
ATOM     10  C   UNL     1      -0.035   1.492   0.071  0.00  0.00    +0.067 C 
ATOM     11  C   UNL     1      -0.013  -0.015   0.049  0.00  0.00    +0.058 C 
ATOM     12  C   UNL     1      -1.100  -0.788   0.034  0.00  0.00    +0.029 C 
ATOM     13  C   UNL     1      -0.544  -2.201   0.016  0.00  0.00    +0.194 C 
ATOM     14  N   UNL     1       0.913  -1.983   0.025  0.00  0.00    -0.176 NA
ATOM     15  N   UNL     1       1.111  -0.766   0.037  0.00  0.00    -0.159 NA
ENDBRANCH   1  13
BRANCH   7  16
ATOM     16  C   UNL     1       1.707  -7.359  -0.968  0.00  0.00    +0.009 A 
ATOM     17  C   UNL     1       3.016  -6.879  -0.891  0.00  0.00    +0.012 A 
ATOM     18  C   UNL     1       4.068  -7.764  -0.801  0.00  0.00    +0.024 A 
ATOM     19  C   UNL     1       3.828  -9.134  -0.787  0.00  0.00    +0.029 A 
ATOM     20  C   UNL     1       2.526  -9.615  -0.865  0.00  0.00    +0.024 A 
ATOM     21  C   UNL     1       1.469  -8.735  -0.949  0.00  0.00    +0.012 A 
BRANCH  19  22
ATOM     22  N   UNL     1       4.896 -10.027  -0.697  0.00  0.00    -0.336 N 
ATOM     23  C   UNL     1       6.273  -9.530  -0.743  0.00  0.00    +0.129 C 
ATOM     24  C   UNL     1       4.640 -11.463  -0.556  0.00  0.00    +0.129 C 
ENDBRANCH  19  22
ENDBRANCH   7  16
TORSDOF 3
