REMARK  Name = ZINC40147914
REMARK  5 active torsions:
REMARK  status: ('A' for Active; 'I' for Inactive)
REMARK    1  A    between atoms: C_1  and  C_2
REMARK    2  A    between atoms: C_7  and  N_8
REMARK    3  A    between atoms: C_9  and  C_19
REMARK    4  A    between atoms: C_14  and  C_17
REMARK    5  A    between atoms: C_22  and  C_24
REMARK                            x       y       z     vdW  Elec       q    Type
REMARK                         _______ _______ _______ _____ _____    ______ ____
ROOT
ATOM      1  N   UNL     1       0.025  -0.015   2.416  0.00  0.00    -0.267 N 
ATOM      2  C   UNL     1      -1.236   0.331   3.080  0.00  0.00    +0.234 C 
ATOM      3  N   UNL     1      -1.194   1.724   3.528  0.00  0.00    -0.286 N 
ATOM      4  C   UNL     1      -0.026   2.295   3.885  0.00  0.00    +0.258 C 
ATOM      5  O   UNL     1      -0.005   3.441   4.296  0.00  0.00    -0.269 OA
ATOM      6  C   UNL     1       1.218   1.529   3.775  0.00  0.00    +0.142 C 
ATOM      7  C   UNL     1       1.208   0.346   3.013  0.00  0.00    +0.103 C 
ATOM      8  S   UNL     1       2.659  -0.635   2.825  0.00  0.00    -0.033 SA
ATOM      9  H   UNL     1      -2.014   2.241   3.568  0.00  0.00    +0.151 HD
ENDROOT
BRANCH   1  16
ATOM     10  C   UNL     1      -0.018   1.503   0.010  0.00  0.00    +0.045 C 
ATOM     11  C   UNL     1       0.002  -0.004   0.002  0.00  0.00    -0.029 A 
ATOM     12  C   UNL     1       0.006  -0.689  -1.198  0.00  0.00    +0.005 A 
ATOM     13  C   UNL     1       0.025  -2.071  -1.206  0.00  0.00    +0.000 A 
ATOM     14  C   UNL     1       0.041  -2.773  -0.014  0.00  0.00    +0.002 A 
ATOM     15  C   UNL     1       0.036  -2.095   1.188  0.00  0.00    +0.024 A 
ATOM     16  C   UNL     1       0.023  -0.706   1.200  0.00  0.00    +0.039 A 
ENDBRANCH   1  16
BRANCH   2  17
ATOM     17  C   UNL     1      -1.440  -0.571   4.271  0.00  0.00    +0.144 A 
ATOM     18  C   UNL     1      -2.104  -0.247   5.397  0.00  0.00    +0.049 A 
ATOM     19  C   UNL     1      -2.055  -1.373   6.244  0.00  0.00    +0.050 A 
ATOM     20  C   UNL     1      -1.355  -2.331   5.580  0.00  0.00    +0.138 A 
ATOM     21  O   UNL     1      -0.993  -1.833   4.383  0.00  0.00    -0.456 OA
BRANCH  20  22
ATOM     22  C   UNL     1      -1.050  -3.687   6.084  0.00  0.00    +0.052 A 
ATOM     23  C   UNL     1      -0.503  -3.856   7.356  0.00  0.00    +0.014 A 
ATOM     24  C   UNL     1      -0.220  -5.124   7.820  0.00  0.00    +0.001 A 
ATOM     25  C   UNL     1      -0.478  -6.229   7.028  0.00  0.00    +0.003 A 
ATOM     26  C   UNL     1      -1.021  -6.071   5.765  0.00  0.00    +0.039 A 
ATOM     27  C   UNL     1      -1.314  -4.807   5.290  0.00  0.00    +0.134 A 
ATOM     28  F   UNL     1      -1.850  -4.653   4.059  0.00  0.00    -0.205 F 
ENDBRANCH  20  22
ENDBRANCH   2  17
BRANCH   6  29
ATOM     29  C   UNL     1       2.412   1.969   4.430  0.00  0.00    +0.107 C 
ATOM     30  N   UNL     1       3.360   2.319   4.950  0.00  0.00    -0.191 NA
ENDBRANCH   6  29
TORSDOF 4
