REMARK  Name = ZINC12203306
REMARK  11 active torsions:
REMARK  status: ('A' for Active; 'I' for Inactive)
REMARK    1  A    between atoms: C_1  and  C_2
REMARK    2  A    between atoms: C_2  and  C_3
REMARK    3  A    between atoms: C_2  and  C_4
REMARK    4  A    between atoms: C_2  and  C_5
REMARK    5  A    between atoms: C_5  and  N_6
REMARK    6  A    between atoms: C_12  and  C_14
REMARK    7  A    between atoms: C_14  and  C_15
REMARK    8  A    between atoms: N_17  and  C_18
REMARK    9  A    between atoms: C_18  and  C_19
REMARK   10  A    between atoms: C_28  and  O_29
REMARK   11  A    between atoms: O_29  and  C_30
REMARK                            x       y       z     vdW  Elec       q    Type
REMARK                         _______ _______ _______ _____ _____    ______ ____
ROOT
ATOM      1  C   UNL     1       2.326  -2.750  -1.943  0.00  0.00    +0.212 C 
ATOM      2  O   UNL     1       1.222  -2.255  -2.028  0.00  0.00    -0.276 OA
ATOM      3  N   UNL     1       2.458  -4.046  -1.599  0.00  0.00    -0.311 N 
ATOM      4  H   UNL     1       3.340  -4.443  -1.531  0.00  0.00    +0.149 HD
ENDROOT
BRANCH   1   5
ATOM      5  C   UNL     1       3.550  -1.917  -2.223  0.00  0.00    +0.089 C 
BRANCH   5  12
ATOM      6  N   UNL     1       2.329  -0.402  -3.706  0.00  0.00    +0.389 N 
ATOM      7  C   UNL     1       1.770   0.953  -3.837  0.00  0.00    -0.059 C 
ATOM      8  C   UNL     1       0.698   1.151  -2.763  0.00  0.00    +0.085 C 
ATOM      9  N   UNL     1       1.232   0.781  -1.455  0.00  0.00    -0.318 N 
ATOM     10  C   UNL     1       2.333   0.035  -1.310  0.00  0.00    +0.200 C 
ATOM     11  O   UNL     1       2.700  -0.250  -0.189  0.00  0.00    -0.278 OA
ATOM     12  C   UNL     1       3.132  -0.467  -2.479  0.00  0.00    +0.028 C 
ATOM     13  H   UNL     1       0.771   1.091  -0.659  0.00  0.00    +0.149 HD
ATOM     14  H   UNL     1       1.579  -1.075  -3.655  0.00  0.00    -0.081 HD
BRANCH   6  15
ATOM     15  C   UNL     1       3.179  -0.698  -4.867  0.00  0.00    -0.072 C 
BRANCH  15  17
ATOM     16  C   UNL     1       1.403  -0.051  -6.501  0.00  0.00    +0.009 C 
ATOM     17  C   UNL     1       2.307  -1.189  -6.025  0.00  0.00    -0.052 C 
ATOM     18  C   UNL     1       1.445  -2.362  -5.553  0.00  0.00    +0.009 C 
ATOM     19  C   UNL     1       3.203  -1.646  -7.178  0.00  0.00    +0.009 C 
ENDBRANCH  15  17
ENDBRANCH   6  15
ENDBRANCH   5  12
ENDBRANCH   1   5
BRANCH   3  20
ATOM     20  C   UNL     1       1.268  -4.857  -1.327  0.00  0.00    +0.143 C 
BRANCH  20  21
ATOM     21  C   UNL     1       1.687  -6.259  -0.966  0.00  0.00    +0.019 A 
ATOM     22  C   UNL     1       1.836  -7.231  -1.969  0.00  0.00    -0.010 A 
ATOM     23  C   UNL     1       1.602  -6.926  -3.321  0.00  0.00    +0.009 A 
ATOM     24  C   UNL     1       1.757  -7.892  -4.266  0.00  0.00    +0.001 A 
ATOM     25  C   UNL     1       2.145  -9.184  -3.915  0.00  0.00    +0.001 A 
ATOM     26  C   UNL     1       2.380  -9.516  -2.616  0.00  0.00    +0.008 A 
ATOM     27  C   UNL     1       2.231  -8.544  -1.612  0.00  0.00    -0.017 A 
ATOM     28  C   UNL     1       2.466  -8.852  -0.260  0.00  0.00    +0.012 A 
ATOM     29  C   UNL     1       2.313  -7.888   0.687  0.00  0.00    +0.046 A 
ATOM     30  C   UNL     1       1.928  -6.590   0.337  0.00  0.00    +0.125 A 
BRANCH  30  31
ATOM     31  O   UNL     1       1.788  -5.647   1.305  0.00  0.00    -0.495 OA
ATOM     32  C   UNL     1       2.055  -6.054   2.649  0.00  0.00    +0.277 C 
ENDBRANCH  30  31
ENDBRANCH  20  21
ENDBRANCH   3  20
TORSDOF 7
