REMARK  Name = ZINC19075407
REMARK  10 active torsions:
REMARK  status: ('A' for Active; 'I' for Inactive)
REMARK    1  A    between atoms: C_1  and  C_2
REMARK    2  A    between atoms: C_7  and  C_9
REMARK    3  A    between atoms: C_7  and  C_10
REMARK    4  A    between atoms: N_15  and  C_16
REMARK    5  A    between atoms: C_16  and  C_17
REMARK    6  A    between atoms: C_22  and  C_25
REMARK    7  A    between atoms: C_25  and  N_26
REMARK    8  A    between atoms: C_31  and  C_40
REMARK    9  A    between atoms: C_36  and  C_38
REMARK   10  A    between atoms: C_36  and  C_39
REMARK                            x       y       z     vdW  Elec       q    Type
REMARK                         _______ _______ _______ _____ _____    ______ ____
ROOT
ATOM      1  C   UNL     1       2.623  -2.755  -5.399  0.00  0.00    +0.006 C 
ATOM      2  C   UNL     1       2.167  -1.455  -6.063  0.00  0.00    +0.005 C 
ATOM      3  C   UNL     1       3.308  -0.888  -6.910  0.00  0.00    +0.001 C 
ATOM      4  C   UNL     1       3.697  -1.902  -7.987  0.00  0.00    +0.005 C 
ATOM      5  C   UNL     1       4.153  -3.203  -7.323  0.00  0.00    +0.006 C 
ATOM      6  C   UNL     1       3.011  -3.770  -6.476  0.00  0.00    +0.010 C 
ENDROOT
BRANCH   1   7
ATOM      7  C   UNL     1       1.482  -3.322  -4.552  0.00  0.00    +0.109 C 
BRANCH   7  21
ATOM      8  C   UNL     1      -0.019   1.532   0.011  0.00  0.00    +0.013 C 
ATOM      9  C   UNL     1       0.002  -0.004   0.002  0.00  0.00    -0.014 C 
ATOM     10  C   UNL     1      -1.426  -0.614  -0.023  0.00  0.00    +0.030 C 
ATOM     11  C   UNL     1      -1.088  -2.044  -0.513  0.00  0.00    +0.079 C 
ATOM     12  C   UNL     1      -0.480  -2.795   0.669  0.00  0.00    +0.029 C 
ATOM     13  C   UNL     1       0.727  -2.106   1.280  0.00  0.00    -0.033 C 
ATOM     14  C   UNL     1       0.726  -0.590   1.213  0.00  0.00    +0.014 C 
ATOM     15  C   UNL     1       0.765  -2.497   2.779  0.00  0.00    +0.011 C 
ATOM     16  C   UNL     1       2.014  -2.662   0.655  0.00  0.00    +0.011 C 
ATOM     17  N   UNL     1      -0.054  -1.854  -1.550  0.00  0.00    -0.282 N 
ATOM     18  C   UNL     1       0.625  -0.576  -1.291  0.00  0.00    +0.116 C 
ATOM     19  C   UNL     1       0.214  -2.699  -2.566  0.00  0.00    +0.302 C 
ATOM     20  O   UNL     1      -0.424  -3.727  -2.687  0.00  0.00    -0.253 OA
ATOM     21  N   UNL     1       1.190  -2.404  -3.448  0.00  0.00    -0.299 N 
ATOM     22  H   UNL     1       1.699  -1.584  -3.352  0.00  0.00    +0.150 HD
ENDBRANCH   7  21
ENDBRANCH   1   7
BRANCH   5  23
ATOM     23  C   UNL     1       5.361  -2.922  -6.427  0.00  0.00    +0.109 C 
BRANCH  23  24
ATOM     24  N   UNL     1       6.492  -2.492  -7.254  0.00  0.00    -0.299 N 
ATOM     25  C   UNL     1       7.671  -2.188  -6.676  0.00  0.00    +0.302 C 
ATOM     26  O   UNL     1       7.797  -2.271  -5.470  0.00  0.00    -0.253 OA
ATOM     27  N   UNL     1       8.712  -1.793  -7.437  0.00  0.00    -0.282 N 
ATOM     28  C   UNL     1       8.698  -1.636  -8.900  0.00  0.00    +0.116 C 
ATOM     29  C   UNL     1      10.130  -1.218  -9.306  0.00  0.00    -0.014 C 
ATOM     30  C   UNL     1      10.633  -0.486  -8.033  0.00  0.00    +0.030 C 
ATOM     31  C   UNL     1      10.056  -1.429  -6.948  0.00  0.00    +0.079 C 
ATOM     32  C   UNL     1      10.935  -2.678  -6.920  0.00  0.00    +0.029 C 
ATOM     33  C   UNL     1      11.064  -3.369  -8.264  0.00  0.00    -0.033 C 
ATOM     34  C   UNL     1      10.983  -2.472  -9.484  0.00  0.00    +0.014 C 
ATOM     35  C   UNL     1      12.452  -4.056  -8.292  0.00  0.00    +0.011 C 
ATOM     36  C   UNL     1      10.023  -4.494  -8.370  0.00  0.00    +0.011 C 
ATOM     37  C   UNL     1      10.143  -0.311 -10.546  0.00  0.00    +0.013 C 
ATOM     38  H   UNL     1       6.392  -2.426  -8.216  0.00  0.00    +0.150 HD
ENDBRANCH  23  24
ENDBRANCH   5  23
TORSDOF 4
