REMARK  Name = ZINC36306326
REMARK  0 active torsions:
REMARK  status: ('A' for Active; 'I' for Inactive)
REMARK                            x       y       z     vdW  Elec       q    Type
REMARK                         _______ _______ _______ _____ _____    ______ ____
ROOT
ATOM      1  C   UNL     1      -0.018   1.506   0.010  0.00  0.00    +0.085 C 
ATOM      2  C   UNL     1       1.438   1.992  -0.001  0.00  0.00    +0.166 C 
ATOM      3  O   UNL     1       2.172   1.294  -1.010  0.00  0.00    -0.373 OA
ATOM      4  C   UNL     1       2.416  -0.089  -0.715  0.00  0.00    +0.217 C 
ATOM      5  C   UNL     1       1.103  -0.717  -0.325  0.00  0.00    +0.092 A 
ATOM      6  C   UNL     1       0.002  -0.004   0.002  0.00  0.00    +0.070 A 
ATOM      7  N   UNL     1      -0.979  -0.858   0.291  0.00  0.00    -0.225 NA
ATOM      8  C   UNL     1      -0.527  -2.075   0.159  0.00  0.00    +0.197 A 
ATOM      9  N   UNL     1       0.789  -2.057  -0.230  0.00  0.00    -0.207 N 
ATOM     10  N   UNL     1       1.395  -3.297  -0.408  0.00  0.00    -0.150 NA
ATOM     11  C   UNL     1       0.746  -4.405  -0.215  0.00  0.00    +0.168 A 
ATOM     12  S   UNL     1      -0.871  -3.815   0.261  0.00  0.00    -0.021 S 
ATOM     13 BR   UNL     1       1.355  -6.187  -0.394  0.00  0.00    -0.019 Br
ENDROOT
TORSDOF 0
