REMARK  Name = ZINC39856764
REMARK  8 active torsions:
REMARK  status: ('A' for Active; 'I' for Inactive)
REMARK    1  A    between atoms: C_4  and  N_7
REMARK    2  A    between atoms: C_8  and  C_10
REMARK    3  A    between atoms: C_10  and  C_11
REMARK    4  A    between atoms: N_15  and  C_33
REMARK    5  A    between atoms: N_17  and  N_18
REMARK    6  A    between atoms: C_19  and  C_20
REMARK    7  A    between atoms: C_23  and  C_25
REMARK    8  A    between atoms: C_33  and  C_34
REMARK                            x       y       z     vdW  Elec       q    Type
REMARK                         _______ _______ _______ _____ _____    ______ ____
ROOT
ATOM      1  C   UNL     1       4.708  -4.227   0.249  0.00  0.00    +0.149 C 
ATOM      2  C   UNL     1       6.012  -4.998   0.377  0.00  0.00    +0.235 C 
ATOM      3  O   UNL     1       6.760  -4.848   1.320  0.00  0.00    -0.274 OA
ATOM      4  N   UNL     1       6.280  -5.843  -0.605  0.00  0.00    -0.241 N 
ATOM      5  C   UNL     1       5.436  -6.019  -1.681  0.00  0.00    +0.186 C 
ATOM      6  N   UNL     1       5.590  -6.823  -2.712  0.00  0.00    -0.126 NA
ATOM      7  S   UNL     1       4.081  -4.901  -1.345  0.00  0.00    -0.075 S 
ENDROOT
BRANCH   6   8
ATOM      8  N   UNL     1       4.693  -6.863  -3.639  0.00  0.00    -0.152 NA
ATOM      9  C   UNL     1       4.846  -7.662  -4.664  0.00  0.00    +0.181 C 
BRANCH   9  10
ATOM     10  C   UNL     1       3.861  -7.706  -5.682  0.00  0.00    +0.148 A 
ATOM     11  C   UNL     1       3.894  -8.503  -6.809  0.00  0.00    +0.051 A 
ATOM     12  C   UNL     1       2.729  -8.225  -7.534  0.00  0.00    +0.050 A 
ATOM     13  C   UNL     1       2.035  -7.282  -6.834  0.00  0.00    +0.136 A 
ATOM     14  O   UNL     1       2.724  -6.981  -5.716  0.00  0.00    -0.454 OA
BRANCH  13  15
ATOM     15  C   UNL     1       0.742  -6.694  -7.232  0.00  0.00    +0.017 A 
ATOM     16  C   UNL     1       0.121  -7.101  -8.416  0.00  0.00    +0.014 A 
ATOM     17  C   UNL     1      -1.087  -6.548  -8.782  0.00  0.00    +0.039 A 
ATOM     18  C   UNL     1      -1.686  -5.589  -7.980  0.00  0.00    +0.123 A 
ATOM     19  C   UNL     1      -1.075  -5.181  -6.805  0.00  0.00    +0.039 A 
ATOM     20  C   UNL     1       0.131  -5.732  -6.424  0.00  0.00    +0.014 A 
ATOM     21  F   UNL     1      -2.870  -5.050  -8.345  0.00  0.00    -0.205 F 
ENDBRANCH  13  15
ENDBRANCH   9  10
ENDBRANCH   6   8
BRANCH   1  22
ATOM     22  C   UNL     1       4.962  -2.721   0.153  0.00  0.00    +0.120 C 
BRANCH  22  24
ATOM     23  N   UNL     1       3.622  -0.651  -0.037  0.00  0.00    -0.285 N 
ATOM     24  C   UNL     1       3.645  -1.995   0.057  0.00  0.00    +0.219 C 
ATOM     25  O   UNL     1       2.606  -2.620   0.064  0.00  0.00    -0.275 OA
ATOM     26  H   UNL     1       4.452  -0.156  -0.121  0.00  0.00    +0.155 HD
BRANCH  23  30
ATOM     27  C   UNL     1      -0.015   1.381   0.029  0.00  0.00    +0.000 A 
ATOM     28  C   UNL     1       0.140   0.218   0.763  0.00  0.00    +0.002 A 
ATOM     29  C   UNL     1       1.344  -0.457   0.743  0.00  0.00    +0.023 A 
ATOM     30  C   UNL     1       2.400   0.031  -0.015  0.00  0.00    +0.033 A 
ATOM     31  C   UNL     1       2.241   1.198  -0.751  0.00  0.00    +0.023 A 
ATOM     32  C   UNL     1       1.034   1.870  -0.727  0.00  0.00    +0.002 A 
ENDBRANCH  23  30
ENDBRANCH  22  24
ENDBRANCH   1  22
BRANCH   4  33
ATOM     33  C   UNL     1       7.521  -6.620  -0.547  0.00  0.00    +0.189 C 
BRANCH  33  34
ATOM     34  C   UNL     1       7.267  -7.918   0.175  0.00  0.00    +0.123 A 
ATOM     35  C   UNL     1       6.884  -9.074  -0.396  0.00  0.00    +0.046 A 
ATOM     36  C   UNL     1       6.764 -10.025   0.644  0.00  0.00    +0.041 A 
ATOM     37  C   UNL     1       7.081  -9.392   1.788  0.00  0.00    +0.195 A 
ATOM     38  O   UNL     1       7.390  -8.118   1.498  0.00  0.00    -0.466 OA
ENDBRANCH  33  34
ENDBRANCH   4  33
TORSDOF 8
