REMARK  Name = ZINC09295194
REMARK  6 active torsions:
REMARK  status: ('A' for Active; 'I' for Inactive)
REMARK    1  A    between atoms: C_4  and  C_7
REMARK    2  A    between atoms: C_9  and  C_26
REMARK    3  A    between atoms: C_15  and  C_18
REMARK    4  A    between atoms: C_18  and  O_19
REMARK    5  A    between atoms: O_19  and  C_20
REMARK    6  A    between atoms: N_28  and  C_29
REMARK                            x       y       z     vdW  Elec       q    Type
REMARK                         _______ _______ _______ _____ _____    ______ ____
ROOT
ATOM      1  C   UNL     1       5.966   5.157  -3.342  0.00  0.00    +0.140 C 
ATOM      2  C   UNL     1       7.473   4.883  -3.248  0.00  0.00    +0.166 C 
ATOM      3  S   UNL     1       8.065   5.565  -1.669  0.00  0.00    -0.069 S 
ATOM      4  C   UNL     1       6.757   4.971  -0.643  0.00  0.00    +0.209 A 
ATOM      5  N   UNL     1       6.707   4.938   0.660  0.00  0.00    -0.121 NA
ATOM      6  N   UNL     1       5.575   4.448   1.034  0.00  0.00    -0.128 NA
ATOM      7  C   UNL     1       4.855   4.135  -0.009  0.00  0.00    +0.189 A 
ATOM      8  N   UNL     1       5.584   4.455  -1.118  0.00  0.00    -0.222 N 
ATOM      9  N   UNL     1       5.230   4.292  -2.419  0.00  0.00    -0.272 N 
ATOM     10  H   UNL     1       4.234   4.399  -2.538  0.00  0.00    +0.167 HD
ENDROOT
BRANCH   1  14
ATOM     11  C   UNL     1       4.644   4.409  -7.335  0.00  0.00    +0.000 A 
ATOM     12  C   UNL     1       4.905   5.703  -6.924  0.00  0.00    +0.000 A 
ATOM     13  C   UNL     1       5.333   5.945  -5.632  0.00  0.00    +0.005 A 
ATOM     14  C   UNL     1       5.499   4.893  -4.751  0.00  0.00    -0.024 A 
ATOM     15  C   UNL     1       5.243   3.599  -5.163  0.00  0.00    +0.005 A 
ATOM     16  C   UNL     1       4.811   3.357  -6.453  0.00  0.00    +0.000 A 
ENDBRANCH   1  14
BRANCH   2  17
ATOM     17  C   UNL     1       8.186   5.555  -4.392  0.00  0.00    +0.233 C 
ATOM     18  O   UNL     1       7.791   6.623  -4.811  0.00  0.00    -0.274 OA
ATOM     19  N   UNL     1       9.263   4.970  -4.952  0.00  0.00    -0.285 N 
ATOM     20  H   UNL     1       9.620   4.150  -4.575  0.00  0.00    +0.155 HD
BRANCH  19  21
ATOM     21  C   UNL     1       9.868   5.544  -6.077  0.00  0.00    +0.034 A 
ATOM     22  C   UNL     1      10.421   4.734  -7.059  0.00  0.00    +0.026 A 
ATOM     23  C   UNL     1      11.011   5.303  -8.171  0.00  0.00    +0.040 A 
ATOM     24  C   UNL     1      11.062   6.681  -8.300  0.00  0.00    +0.124 A 
ATOM     25  C   UNL     1      10.516   7.491  -7.319  0.00  0.00    +0.040 A 
ATOM     26  C   UNL     1       9.919   6.926  -6.209  0.00  0.00    +0.026 A 
ATOM     27  F   UNL     1      11.644   7.235  -9.386  0.00  0.00    -0.205 F 
ENDBRANCH  19  21
ENDBRANCH   2  17
BRANCH   7  28
ATOM     28  C   UNL     1       3.472   3.536   0.008  0.00  0.00    +0.306 C 
BRANCH  28  29
ATOM     29  O   UNL     1       3.571   2.110   0.008  0.00  0.00    -0.484 OA
BRANCH  29  30
ATOM     30  C   UNL     1       2.405   1.411   0.023  0.00  0.00    +0.121 A 
ATOM     31  C   UNL     1       1.192   2.084   0.037  0.00  0.00    +0.045 A 
ATOM     32  C   UNL     1       0.009   1.371   0.051  0.00  0.00    +0.004 A 
ATOM     33  C   UNL     1       0.033  -0.011   0.052  0.00  0.00    +0.000 A 
ATOM     34  C   UNL     1       1.241  -0.684   0.038  0.00  0.00    +0.004 A 
ATOM     35  C   UNL     1       2.427   0.024   0.024  0.00  0.00    +0.045 A 
ENDBRANCH  29  30
ENDBRANCH  28  29
ENDBRANCH   7  28
TORSDOF 6
