REMARK  Name = ZINC14476946
REMARK  3 active torsions:
REMARK  status: ('A' for Active; 'I' for Inactive)
REMARK    1  A    between atoms: C_3  and  C_9
REMARK    2  A    between atoms: C_20  and  N_26
REMARK    3  A    between atoms: C_22  and  O_25
REMARK                            x       y       z     vdW  Elec       q    Type
REMARK                         _______ _______ _______ _____ _____    ______ ____
ROOT
ATOM      1  C   UNL     1       2.395   5.295  -0.067  0.00  0.00    +0.106 C 
ATOM      2  C   UNL     1       1.218   5.909   0.662  0.00  0.00    +0.029 C 
ATOM      3  C   UNL     1       0.984   7.416   0.511  0.00  0.00    +0.033 C 
ATOM      4  C   UNL     1      -0.535   7.506   0.675  0.00  0.00    -0.030 C 
ATOM      5  C   UNL     1      -1.099   6.357   0.319  0.00  0.00    -0.023 C 
ATOM      6  C   UNL     1      -0.033   5.432  -0.140  0.00  0.00    +0.049 C 
ATOM      7  C   UNL     1      -0.119   3.966   0.040  0.00  0.00    -0.014 A 
ATOM      8  C   UNL     1      -1.333   3.309   0.074  0.00  0.00    +0.039 A 
ATOM      9  C   UNL     1      -1.385   1.936   0.215  0.00  0.00    +0.130 A 
ATOM     10  C   UNL     1      -0.211   1.215   0.336  0.00  0.00    +0.080 A 
ATOM     11  C   UNL     1       1.008   1.863   0.312  0.00  0.00    +0.140 A 
ATOM     12  C   UNL     1       1.075   3.254   0.165  0.00  0.00    +0.074 A 
ATOM     13  N   UNL     1       2.341   3.844   0.169  0.00  0.00    -0.334 N 
ATOM     14  H   UNL     1       2.854   3.592   1.000  0.00  0.00    +0.147 HD
ENDROOT
BRANCH   1  17
ATOM     15  C   UNL     1       4.871   7.056   2.175  0.00  0.00    +0.002 A 
ATOM     16  C   UNL     1       3.688   6.542   1.675  0.00  0.00    +0.007 A 
ATOM     17  C   UNL     1       3.684   5.856   0.476  0.00  0.00    -0.007 A 
ATOM     18  C   UNL     1       4.865   5.678  -0.223  0.00  0.00    +0.064 A 
ATOM     19  C   UNL     1       6.048   6.197   0.274  0.00  0.00    +0.060 A 
ATOM     20  C   UNL     1       6.050   6.884   1.475  0.00  0.00    +0.021 A 
ATOM     21 CL   UNL     1       7.529   5.981  -0.605  0.00  0.00    -0.082 Cl
ATOM     22 CL   UNL     1       4.862   4.809  -1.726  0.00  0.00    -0.082 Cl
ENDBRANCH   1  17
BRANCH   9  23
ATOM     23  N   UNL     1      -2.692   1.240   0.242  0.00  0.00    +0.057 N 
ATOM     24  O   UNL     1      -2.735   0.030   0.372  0.00  0.00    -0.126 OA
ATOM     25  O   UNL     1      -3.724   1.879   0.136  0.00  0.00    -0.126 OA
ENDBRANCH   9  23
BRANCH  11  26
ATOM     26  O   UNL     1       2.155   1.143   0.432  0.00  0.00    -0.505 OA
ATOM     27  H   UNL     1       2.520   0.841  -0.411  0.00  0.00    +0.292 HD
ENDBRANCH  11  26
TORSDOF 3
