REMARK  Name = ZINC04989731
REMARK  6 active torsions:
REMARK  status: ('A' for Active; 'I' for Inactive)
REMARK    1  A    between atoms: C_1  and  C_2
REMARK    2  A    between atoms: C_5  and  C_8
REMARK    3  A    between atoms: C_16  and  N_18
REMARK    4  A    between atoms: N_18  and  N_19
REMARK    5  A    between atoms: C_20  and  C_21
REMARK    6  A    between atoms: C_26  and  O_27
REMARK                            x       y       z     vdW  Elec       q    Type
REMARK                         _______ _______ _______ _____ _____    ______ ____
ROOT
ATOM      1  C   UNL     1       0.059  -4.255  -0.021  0.00  0.00    +0.162 A 
ATOM      2  N   UNL     1       0.068  -4.894   1.134  0.00  0.00    -0.227 NA
ATOM      3  C   UNL     1       0.085  -6.233   1.169  0.00  0.00    +0.077 A 
ATOM      4  C   UNL     1       0.094  -6.943   2.378  0.00  0.00    +0.028 A 
ATOM      5  C   UNL     1       0.112  -8.306   2.358  0.00  0.00    +0.002 A 
ATOM      6  C   UNL     1       0.120  -9.006   1.155  0.00  0.00    +0.001 A 
ATOM      7  C   UNL     1       0.112  -8.346  -0.039  0.00  0.00    +0.013 A 
ATOM      8  C   UNL     1       0.094  -6.948  -0.054  0.00  0.00    +0.042 A 
ATOM      9  C   UNL     1       0.084  -6.210  -1.265  0.00  0.00    +0.150 A 
ATOM     10  N   UNL     1       0.062  -4.886  -1.193  0.00  0.00    -0.211 NA
ENDROOT
BRANCH   1  15
ATOM     11  C   UNL     1      -0.018   1.503   0.010  0.00  0.00    +0.044 C 
ATOM     12  C   UNL     1       0.002  -0.004   0.002  0.00  0.00    -0.050 A 
ATOM     13  C   UNL     1       0.006  -0.686  -1.201  0.00  0.00    +0.004 A 
ATOM     14  C   UNL     1       0.024  -2.066  -1.215  0.00  0.00    +0.012 A 
ATOM     15  C   UNL     1       0.040  -2.772  -0.013  0.00  0.00    +0.019 A 
ATOM     16  C   UNL     1       0.036  -2.079   1.196  0.00  0.00    +0.012 A 
ATOM     17  C   UNL     1       0.023  -0.699   1.198  0.00  0.00    +0.004 A 
ENDBRANCH   1  15
BRANCH   9  18
ATOM     18  N   UNL     1       0.092  -6.852  -2.484  0.00  0.00    -0.220 N 
ATOM     19  H   UNL     1       0.105  -7.821  -2.522  0.00  0.00    +0.176 HD
BRANCH  18  20
ATOM     20  N   UNL     1       0.082  -6.104  -3.669  0.00  0.00    -0.189 NA
ATOM     21  C   UNL     1       0.090  -6.709  -4.818  0.00  0.00    +0.141 C 
BRANCH  21  22
ATOM     22  C   UNL     1       0.079  -5.923  -6.065  0.00  0.00    +0.036 A 
ATOM     23  C   UNL     1       0.081  -6.569  -7.303  0.00  0.00    +0.013 A 
ATOM     24  C   UNL     1       0.071  -5.828  -8.466  0.00  0.00    +0.001 A 
ATOM     25  C   UNL     1       0.059  -4.445  -8.411  0.00  0.00    +0.004 A 
ATOM     26  C   UNL     1       0.057  -3.793  -7.192  0.00  0.00    +0.046 A 
ATOM     27  C   UNL     1       0.060  -4.522  -6.015  0.00  0.00    +0.125 A 
BRANCH  27  28
ATOM     28  O   UNL     1       0.052  -3.883  -4.816  0.00  0.00    -0.506 OA
ATOM     29  H   UNL     1       0.933  -3.686  -4.469  0.00  0.00    +0.292 HD
ENDBRANCH  27  28
ENDBRANCH  21  22
ENDBRANCH  18  20
ENDBRANCH   9  18
TORSDOF 5
