REMARK  Name = ZINC01122632
REMARK  8 active torsions:
REMARK  status: ('A' for Active; 'I' for Inactive)
REMARK    1  A    between atoms: C_1  and  C_2
REMARK    2  A    between atoms: C_5  and  O_28
REMARK    3  A    between atoms: C_6  and  N_8
REMARK    4  A    between atoms: N_8  and  C_9
REMARK    5  A    between atoms: C_9  and  N_11
REMARK    6  A    between atoms: C_12  and  C_14
REMARK    7  A    between atoms: C_17  and  C_19
REMARK    8  A    between atoms: C_24  and  N_25
REMARK                            x       y       z     vdW  Elec       q    Type
REMARK                         _______ _______ _______ _____ _____    ______ ____
ROOT
ATOM      1  N   UNL     1       0.137   0.023  -4.747  0.00  0.00    -0.261 N 
ATOM      2  C   UNL     1       0.232  -0.643  -5.915  0.00  0.00    +0.285 C 
ATOM      3  O   UNL     1       0.248  -1.859  -5.922  0.00  0.00    -0.266 OA
ATOM      4  H   UNL     1       0.124   0.993  -4.741  0.00  0.00    +0.157 HD
ENDROOT
BRANCH   2   5
ATOM      5  C   UNL     1       0.314   0.098  -7.175  0.00  0.00    +0.190 A 
ATOM      6  C   UNL     1       0.419  -0.455  -8.433  0.00  0.00    +0.055 A 
ATOM      7  C   UNL     1       0.466   0.610  -9.339  0.00  0.00    +0.051 A 
ATOM      8  C   UNL     1       0.398   1.761  -8.608  0.00  0.00    +0.138 A 
ATOM      9  O   UNL     1       0.306   1.441  -7.307  0.00  0.00    -0.450 OA
BRANCH   8  10
ATOM     10  C   UNL     1       0.420   3.132  -9.158  0.00  0.00    +0.047 A 
ATOM     11  C   UNL     1       1.409   3.506 -10.070  0.00  0.00    +0.014 A 
ATOM     12  C   UNL     1       1.424   4.787 -10.580  0.00  0.00    +0.001 A 
ATOM     13  C   UNL     1       0.461   5.702 -10.190  0.00  0.00    +0.002 A 
ATOM     14  C   UNL     1      -0.522   5.338  -9.287  0.00  0.00    +0.033 A 
ATOM     15  C   UNL     1      -0.552   4.058  -8.773  0.00  0.00    +0.137 A 
BRANCH  15  16
ATOM     16  N   UNL     1      -1.608   3.669  -7.812  0.00  0.00    +0.057 N 
ATOM     17  O   UNL     1      -2.455   4.478  -7.477  0.00  0.00    -0.126 OA
ATOM     18  O   UNL     1      -1.630   2.539  -7.356  0.00  0.00    -0.126 OA
ENDBRANCH  15  16
ENDBRANCH   8  10
ENDBRANCH   2   5
BRANCH   1  19
ATOM     19  C   UNL     1       0.062  -0.658  -3.587  0.00  0.00    +0.141 C 
ATOM     20  S   UNL     1       0.085  -2.370  -3.596  0.00  0.00    -0.018 S 
BRANCH  19  21
ATOM     21  N   UNL     1      -0.033   0.007  -2.418  0.00  0.00    -0.294 N 
ATOM     22  H   UNL     1      -0.126   0.973  -2.417  0.00  0.00    +0.154 HD
BRANCH  21  28
ATOM     23  C   UNL     1       1.979  -3.497   0.383  0.00  0.00    +0.044 C 
ATOM     24  C   UNL     1       0.968  -2.398   0.179  0.00  0.00    -0.048 A 
ATOM     25  C   UNL     1       0.073  -2.088   1.186  0.00  0.00    +0.007 A 
ATOM     26  C   UNL     1      -0.857  -1.081   1.004  0.00  0.00    +0.047 A 
ATOM     27  C   UNL     1      -0.894  -0.380  -0.189  0.00  0.00    +0.138 A 
ATOM     28  C   UNL     1       0.004  -0.695  -1.207  0.00  0.00    +0.075 A 
ATOM     29  C   UNL     1       0.938  -1.703  -1.015  0.00  0.00    +0.030 A 
BRANCH  27  30
ATOM     30  O   UNL     1      -1.808   0.611  -0.370  0.00  0.00    -0.505 OA
ATOM     31  H   UNL     1      -1.500   1.485  -0.094  0.00  0.00    +0.292 HD
ENDBRANCH  27  30
ENDBRANCH  21  28
ENDBRANCH  19  21
ENDBRANCH   1  19
TORSDOF 7
