REMARK  Name = ZINC19574769
REMARK  7 active torsions:
REMARK  status: ('A' for Active; 'I' for Inactive)
REMARK    1  A    between atoms: C_1  and  C_2
REMARK    2  A    between atoms: C_5  and  C_30
REMARK    3  A    between atoms: C_10  and  C_12
REMARK    4  A    between atoms: C_18  and  C_20
REMARK    5  A    between atoms: C_22  and  C_26
REMARK    6  A    between atoms: C_26  and  C_27
REMARK    7  A    between atoms: C_26  and  C_28
REMARK                            x       y       z     vdW  Elec       q    Type
REMARK                         _______ _______ _______ _____ _____    ______ ____
ROOT
ATOM      1  C   UNL     1      -0.009   1.079   0.007  0.00  0.00    +0.127 C 
ATOM      2  C   UNL     1      -0.801   1.502   1.262  0.00  0.00    +0.030 C 
ATOM      3  C   UNL     1      -2.245   1.671   0.722  0.00  0.00    +0.021 C 
ATOM      4  C   UNL     1      -1.982   2.236  -0.696  0.00  0.00    +0.109 C 
ATOM      5  N   UNL     1      -0.771   1.533  -1.166  0.00  0.00    -0.288 N 
ATOM      6  C   UNL     1      -0.420   1.339  -2.453  0.00  0.00    +0.265 C 
ATOM      7  O   UNL     1       0.625   0.778  -2.721  0.00  0.00    -0.268 OA
ENDROOT
BRANCH   1  15
ATOM      8  C   UNL     1       7.045   3.100   1.015  0.00  0.00    +0.028 C 
ATOM      9  C   UNL     1       5.760   2.986   0.192  0.00  0.00    +0.071 C 
ATOM     10  C   UNL     1       5.070   4.353   0.122  0.00  0.00    +0.058 C 
ATOM     11  C   UNL     1       3.818   4.261  -0.758  0.00  0.00    +0.214 C 
ATOM     12  N   UNL     1       3.015   3.116  -0.321  0.00  0.00    -0.239 N 
ATOM     13  C   UNL     1       3.505   2.088   0.420  0.00  0.00    +0.118 A 
ATOM     14  C   UNL     1       2.495   1.219   0.647  0.00  0.00    +0.070 A 
ATOM     15  C   UNL     1       1.351   1.726   0.016  0.00  0.00    +0.085 A 
ATOM     16  N   UNL     1       1.665   2.862  -0.559  0.00  0.00    -0.172 NA
ATOM     17  N   UNL     1       4.838   2.028   0.833  0.00  0.00    -0.327 N 
ATOM     18  H   UNL     1       5.216   1.324   1.589  0.00  0.00    +0.148 HD
BRANCH  11  19
ATOM     19  C   UNL     1       2.998   5.545  -0.619  0.00  0.00    +0.412 C 
ATOM     20  F   UNL     1       2.628   5.719   0.720  0.00  0.00    -0.168 F 
ATOM     21  F   UNL     1       3.767   6.637  -1.036  0.00  0.00    -0.168 F 
ATOM     22  F   UNL     1       1.849   5.453  -1.411  0.00  0.00    -0.168 F 
ENDBRANCH  11  19
ENDBRANCH   1  15
BRANCH   6  23
ATOM     23  C   UNL     1      -1.302   1.808  -3.534  0.00  0.00    +0.121 A 
ATOM     24  C   UNL     1      -1.162   1.557  -4.888  0.00  0.00    +0.057 A 
ATOM     25  C   UNL     1      -2.236   2.209  -5.498  0.00  0.00    +0.066 A 
ATOM     26  N   UNL     1      -2.938   2.790  -4.560  0.00  0.00    -0.178 NA
ATOM     27  N   UNL     1      -2.426   2.572  -3.402  0.00  0.00    -0.272 N 
ATOM     28  H   UNL     1      -2.755   2.899  -2.405  0.00  0.00    +0.189 HD
BRANCH  25  29
ATOM     29  C   UNL     1      -2.533   2.238  -6.976  0.00  0.00    +0.033 C 
ATOM     30  C   UNL     1      -1.733   3.364  -7.634  0.00  0.00    +0.014 C 
ATOM     31  C   UNL     1      -2.138   0.899  -7.602  0.00  0.00    +0.014 C 
ENDBRANCH  25  29
ENDBRANCH   6  23
TORSDOF 4
