REMARK  Name = ZINC42398336
REMARK  7 active torsions:
REMARK  status: ('A' for Active; 'I' for Inactive)
REMARK    1  A    between atoms: C_1  and  N_2
REMARK    2  A    between atoms: N_2  and  C_3
REMARK    3  A    between atoms: N_2  and  C_10
REMARK    4  A    between atoms: C_3  and  C_4
REMARK    5  A    between atoms: C_10  and  C_12
REMARK    6  A    between atoms: C_10  and  C_14
REMARK    7  A    between atoms: C_12  and  N_13
REMARK                            x       y       z     vdW  Elec       q    Type
REMARK                         _______ _______ _______ _____ _____    ______ ____
ROOT
ATOM      1  C   UNL     1      -1.342  -0.601   0.362  0.00  0.00    +0.076 C 
ENDROOT
BRANCH   1   2
ATOM      2  C   UNL     1      -2.367  -0.353  -0.714  0.00  0.00    +0.006 A 
ATOM      3  C   UNL     1      -3.448  -1.098  -1.051  0.00  0.00    +0.014 A 
ATOM      4  C   UNL     1      -4.260  -0.672  -2.086  0.00  0.00    +0.028 A 
ATOM      5  C   UNL     1      -3.950   0.478  -2.734  0.00  0.00    +0.078 A 
ATOM      6  S   UNL     1      -2.476   1.001  -1.872  0.00  0.00    -0.080 S 
ATOM      7 CL   UNL     1      -4.775   1.246  -4.054  0.00  0.00    -0.076 Cl
ENDBRANCH   1   2
BRANCH   1   9
ATOM      8  C   UNL     1       0.259  -1.484  -1.225  0.00  0.00    +0.105 C 
ATOM      9  N   UNL     1       0.006  -0.459  -0.203  0.00  0.00    -0.295 NA
BRANCH   9  10
ATOM     10  C   UNL     1       0.209   0.889  -0.750  0.00  0.00    +0.127 C 
BRANCH  10  11
ATOM     11  C   UNL     1       1.685   1.177  -0.843  0.00  0.00    +0.005 A 
ATOM     12  C   UNL     1       2.536   0.947  -1.873  0.00  0.00    +0.027 A 
ATOM     13  C   UNL     1       3.867   1.297  -1.734  0.00  0.00    +0.025 A 
ATOM     14  C   UNL     1       4.281   1.858  -0.571  0.00  0.00    +0.060 A 
ATOM     15  S   UNL     1       2.766   1.915   0.372  0.00  0.00    -0.099 S 
ATOM     16 BR   UNL     1       5.091   0.995  -3.143  0.00  0.00    -0.050 Br
ENDBRANCH  10  11
ENDBRANCH   9  10
ENDBRANCH   1   9
BRANCH   1  17
ATOM     17  C   UNL     1      -1.531   0.415   1.490  0.00  0.00    -0.062 C 
BRANCH  17  18
ATOM     18  N   UNL     1      -0.454   0.259   2.477  0.00  0.00    +0.379 N 
ATOM     19  H   UNL     1      -0.418  -0.701   2.785  0.00  0.00    -0.090 HD
ATOM     20  H   UNL     1       0.427   0.509   2.055  0.00  0.00    -0.090 HD
ATOM     21  H   UNL     1      -0.632   0.860   3.267  0.00  0.00    -0.090 HD
ENDBRANCH  17  18
ENDBRANCH   1  17
TORSDOF 6
