REMARK  Name = ZINC27830059
REMARK  5 active torsions:
REMARK  status: ('A' for Active; 'I' for Inactive)
REMARK    1  A    between atoms: C_1  and  C_2
REMARK    2  A    between atoms: C_5  and  C_7
REMARK    3  A    between atoms: C_7  and  C_22
REMARK    4  A    between atoms: N_8  and  N_9
REMARK    5  A    between atoms: C_12  and  C_15
REMARK                            x       y       z     vdW  Elec       q    Type
REMARK                         _______ _______ _______ _____ _____    ______ ____
ROOT
ATOM      1  N   UNL     1      -0.917   5.027   0.038  0.00  0.00    -0.215 N 
ATOM      2  C   UNL     1      -0.466   3.719   0.026  0.00  0.00    +0.178 A 
ATOM      3  N   UNL     1       0.774   3.263   0.012  0.00  0.00    -0.224 NA
ATOM      4  C   UNL     1       1.028   1.962   0.003  0.00  0.00    +0.080 A 
ATOM      5  C   UNL     1      -0.013   1.076   0.008  0.00  0.00    +0.077 A 
ATOM      6  S   UNL     1      -1.405   2.198   0.019  0.00  0.00    -0.059 S 
ATOM      7  H   UNL     1      -0.196   5.858   0.035  0.00  0.00    +0.176 HD
ENDROOT
BRANCH   4   8
ATOM      8  C   UNL     1       2.428   1.473  -0.014  0.00  0.00    +0.001 A 
ATOM      9  C   UNL     1       2.690   0.104  -0.018  0.00  0.00    +0.011 A 
ATOM     10  C   UNL     1       3.994  -0.346  -0.039  0.00  0.00    +0.020 A 
ATOM     11  C   UNL     1       5.042   0.559  -0.044  0.00  0.00    +0.041 A 
ATOM     12  C   UNL     1       4.787   1.920  -0.034  0.00  0.00    +0.020 A 
ATOM     13  C   UNL     1       3.486   2.380  -0.019  0.00  0.00    +0.011 A 
ATOM     14 CL   UNL     1       6.680  -0.014  -0.063  0.00  0.00    -0.084 Cl
ENDBRANCH   4   8
BRANCH   1  16
ATOM     15  C   UNL     1      -2.717   6.523   0.063  0.00  0.00    +0.098 C 
ATOM     16  N   UNL     1      -2.293   5.293   0.052  0.00  0.00    -0.182 NA
ATOM     17  C   UNL     1      -1.730   7.661   0.060  0.00  0.00    +0.071 C 
BRANCH  15  22
ATOM     18  C   UNL     1      -7.058   9.024   0.117  0.00  0.00    +0.086 C 
ATOM     19  C   UNL     1      -6.064   7.891   0.102  0.00  0.00    +0.103 A 
ATOM     20  C   UNL     1      -6.370   6.578   0.099  0.00  0.00    +0.045 A 
ATOM     21  C   UNL     1      -5.154   5.870   0.077  0.00  0.00    +0.051 A 
ATOM     22  C   UNL     1      -4.157   6.801   0.078  0.00  0.00    +0.150 A 
ATOM     23  O   UNL     1      -4.727   8.023   0.090  0.00  0.00    -0.459 OA
ENDBRANCH  15  22
ENDBRANCH   1  16
TORSDOF 3
