REMARK  Name = ZINC15529262
REMARK  8 active torsions:
REMARK  status: ('A' for Active; 'I' for Inactive)
REMARK    1  A    between atoms: C_1  and  C_2
REMARK    2  A    between atoms: C_5  and  N_9
REMARK    3  A    between atoms: C_7  and  C_8
REMARK    4  A    between atoms: N_9  and  S_10
REMARK    5  A    between atoms: S_10  and  C_13
REMARK    6  A    between atoms: C_16  and  N_19
REMARK    7  A    between atoms: C_20  and  C_22
REMARK    8  A    between atoms: C_23  and  C_24
REMARK                            x       y       z     vdW  Elec       q    Type
REMARK                         _______ _______ _______ _____ _____    ______ ____
ROOT
ATOM      1  C   UNL     1       1.530   2.586   0.046  0.00  0.00    +0.109 A 
ATOM      2  C   UNL     1       2.159   3.027   1.196  0.00  0.00    +0.030 A 
ATOM      3  C   UNL     1       3.358   3.707   1.112  0.00  0.00    +0.025 A 
ATOM      4  C   UNL     1       3.927   3.956  -0.130  0.00  0.00    +0.034 A 
ATOM      5  C   UNL     1       3.291   3.516  -1.284  0.00  0.00    +0.025 A 
ATOM      6  C   UNL     1       2.094   2.833  -1.192  0.00  0.00    +0.030 A 
ENDROOT
BRANCH   4   7
ATOM      7  N   UNL     1       5.138   4.649  -0.220  0.00  0.00    -0.282 N 
ATOM      8  C   UNL     1       6.071   4.502   0.742  0.00  0.00    +0.241 C 
ATOM      9  O   UNL     1       5.900   3.696   1.638  0.00  0.00    -0.270 OA
ATOM     10  H   UNL     1       5.307   5.236  -0.974  0.00  0.00    +0.155 HD
BRANCH   8  11
ATOM     11  C   UNL     1       7.289   5.311   0.709  0.00  0.00    +0.068 C 
ATOM     12  C   UNL     1       8.223   5.164   1.673  0.00  0.00    +0.013 C 
BRANCH  12  13
ATOM     13  C   UNL     1       9.447   5.978   1.640  0.00  0.00    -0.021 A 
ATOM     14  C   UNL     1       9.646   6.905   0.611  0.00  0.00    +0.012 A 
ATOM     15  C   UNL     1      10.794   7.666   0.582  0.00  0.00    +0.050 A 
ATOM     16  C   UNL     1      11.757   7.517   1.572  0.00  0.00    +0.166 A 
ATOM     17  C   UNL     1      11.565   6.594   2.602  0.00  0.00    +0.167 A 
ATOM     18  C   UNL     1      10.414   5.831   2.640  0.00  0.00    +0.057 A 
ATOM     19  O   UNL     1      12.645   6.641   3.436  0.00  0.00    -0.453 OA
ATOM     20  C   UNL     1      13.306   7.885   3.137  0.00  0.00    +0.466 C 
ATOM     21  O   UNL     1      12.955   8.139   1.764  0.00  0.00    -0.453 OA
ENDBRANCH  12  13
ENDBRANCH   8  11
ENDBRANCH   4   7
BRANCH   1  22
ATOM     22  S   UNL     1       0.003   1.713   0.159  0.00  0.00    +0.072 S 
ATOM     23  O   UNL     1      -0.610   1.802  -1.120  0.00  0.00    -0.150 OA
ATOM     24  O   UNL     1      -0.637   2.166   1.344  0.00  0.00    -0.150 OA
BRANCH  22  25
ATOM     25  N   UNL     1       0.369   0.116   0.399  0.00  0.00    -0.216 N 
ATOM     26  H   UNL     1       0.142  -0.541  -0.278  0.00  0.00    +0.174 HD
BRANCH  25  31
ATOM     27  C   UNL     1       2.946  -1.517   5.179  0.00  0.00    +0.044 C 
ATOM     28  C   UNL     1       2.261  -1.083   3.909  0.00  0.00    -0.047 A 
ATOM     29  C   UNL     1       2.974  -1.026   2.725  0.00  0.00    +0.005 A 
ATOM     30  C   UNL     1       2.349  -0.634   1.558  0.00  0.00    +0.025 A 
ATOM     31  C   UNL     1       1.004  -0.286   1.576  0.00  0.00    +0.048 A 
ATOM     32  C   UNL     1       0.290  -0.344   2.767  0.00  0.00    +0.028 A 
ATOM     33  C   UNL     1       0.921  -0.743   3.929  0.00  0.00    -0.046 A 
ATOM     34  C   UNL     1       0.148  -0.806   5.221  0.00  0.00    +0.044 C 
ENDBRANCH  25  31
ENDBRANCH  22  25
ENDBRANCH   1  22
TORSDOF 6
