REMARK  Name = ZINC20527558
REMARK  11 active torsions:
REMARK  status: ('A' for Active; 'I' for Inactive)
REMARK    1  A    between atoms: C_2  and  C_3
REMARK    2  A    between atoms: C_3  and  C_4
REMARK    3  A    between atoms: C_8  and  C_11
REMARK    4  A    between atoms: C_9  and  O_10
REMARK    5  A    between atoms: N_12  and  N_13
REMARK    6  A    between atoms: C_17  and  S_20
REMARK    7  A    between atoms: N_18  and  N_19
REMARK    8  A    between atoms: S_20  and  C_21
REMARK    9  A    between atoms: C_21  and  C_22
REMARK   10  A    between atoms: N_24  and  C_25
REMARK   11  A    between atoms: C_25  and  C_26
REMARK                            x       y       z     vdW  Elec       q    Type
REMARK                         _______ _______ _______ _____ _____    ______ ____
ROOT
ATOM      1  N   UNL     1      -1.940   2.398  -9.856  0.00  0.00    -0.204 N 
ATOM      2  C   UNL     1      -1.833   2.326  -8.475  0.00  0.00    +0.254 A 
ATOM      3  N   UNL     1      -2.643   2.884  -7.608  0.00  0.00    -0.109 NA
ATOM      4  N   UNL     1      -2.188   2.566  -6.322  0.00  0.00    -0.119 NA
ATOM      5  C   UNL     1      -1.108   1.831  -6.445  0.00  0.00    +0.210 A 
ATOM      6  N   UNL     1      -0.863   1.660  -7.778  0.00  0.00    -0.211 N 
ATOM      7  H   UNL     1      -1.201   1.890 -10.492  0.00  0.00    +0.177 HD
ENDROOT
BRANCH   6   8
ATOM      8  N   UNL     1       0.171   0.950  -8.319  0.00  0.00    -0.294 N 
ATOM      9  H   UNL     1       0.898   0.451  -7.663  0.00  0.00    +0.163 HD
ATOM     10  H   UNL     1       0.275   0.877  -9.412  0.00  0.00    +0.163 HD
ENDBRANCH   6   8
BRANCH   1  12
ATOM     11  C   UNL     1      -3.090   3.187 -11.733  0.00  0.00    +0.142 C 
ATOM     12  N   UNL     1      -2.990   3.119 -10.440  0.00  0.00    -0.187 NA
BRANCH  11  17
ATOM     13  C   UNL     1      -6.173   5.303 -12.128  0.00  0.00    -0.002 A 
ATOM     14  C   UNL     1      -6.273   5.370 -13.505  0.00  0.00    +0.007 A 
ATOM     15  C   UNL     1      -5.343   4.731 -14.306  0.00  0.00    +0.001 A 
ATOM     16  C   UNL     1      -4.306   4.020 -13.738  0.00  0.00    +0.013 A 
ATOM     17  C   UNL     1      -4.195   3.945 -12.348  0.00  0.00    +0.036 A 
ATOM     18  C   UNL     1      -5.143   4.589 -11.540  0.00  0.00    +0.129 A 
BRANCH  18  19
ATOM     19  O   UNL     1      -5.047   4.518 -10.187  0.00  0.00    -0.506 OA
ATOM     20  H   UNL     1      -4.227   3.950  -9.723  0.00  0.00    +0.292 HD
ENDBRANCH  18  19
BRANCH  13  21
ATOM     21  C   UNL     1      -7.191   6.002 -11.264  0.00  0.00    +0.065 C 
BRANCH  21  23
ATOM     22  C   UNL     1      -7.383   8.433 -11.130  0.00  0.00    +0.004 C 
ATOM     23  C   UNL     1      -6.671   7.362 -10.876  0.00  0.00    -0.030 C 
ENDBRANCH  21  23
ENDBRANCH  13  21
ENDBRANCH  11  17
ENDBRANCH   1  12
BRANCH   5  24
ATOM     24  S   UNL     1      -0.148   1.173  -5.122  0.00  0.00    -0.075 S 
BRANCH  24  25
ATOM     25  C   UNL     1      -0.997   1.758  -3.630  0.00  0.00    +0.173 C 
BRANCH  25  26
ATOM     26  C   UNL     1      -0.268   1.258  -2.409  0.00  0.00    +0.224 C 
ATOM     27  O   UNL     1       0.726   0.575  -2.534  0.00  0.00    -0.275 OA
ATOM     28  N   UNL     1      -0.721   1.571  -1.179  0.00  0.00    -0.311 N 
ATOM     29  H   UNL     1      -1.623   2.191  -1.066  0.00  0.00    +0.149 HD
BRANCH  28  30
ATOM     30  C   UNL     1      -0.013   1.086   0.008  0.00  0.00    +0.139 C 
BRANCH  30  31
ATOM     31  C   UNL     1      -0.718   1.572   1.248  0.00  0.00    -0.030 A 
ATOM     32  C   UNL     1      -0.359   2.779   1.818  0.00  0.00    +0.008 A 
ATOM     33  C   UNL     1      -1.009   3.228   2.953  0.00  0.00    +0.038 A 
ATOM     34  C   UNL     1      -2.012   2.463   3.524  0.00  0.00    +0.123 A 
ATOM     35  C   UNL     1      -2.367   1.252   2.955  0.00  0.00    +0.038 A 
ATOM     36  C   UNL     1      -1.719   0.807   1.817  0.00  0.00    +0.008 A 
ATOM     37  F   UNL     1      -2.644   2.899   4.635  0.00  0.00    -0.205 F 
ENDBRANCH  30  31
ENDBRANCH  28  30
ENDBRANCH  25  26
ENDBRANCH  24  25
ENDBRANCH   5  24
TORSDOF 11
