REMARK  Name = ZINC03521994
REMARK  6 active torsions:
REMARK  status: ('A' for Active; 'I' for Inactive)
REMARK    1  A    between atoms: C_1  and  C_2
REMARK    2  A    between atoms: N_13  and  C_26
REMARK    3  A    between atoms: C_14  and  S_16
REMARK    4  A    between atoms: S_16  and  C_17
REMARK    5  A    between atoms: C_17  and  C_19
REMARK    6  A    between atoms: C_17  and  C_20
REMARK                            x       y       z     vdW  Elec       q    Type
REMARK                         _______ _______ _______ _____ _____    ______ ____
ROOT
ATOM      1  C   UNL     1       2.629   7.264  -2.365  0.00  0.00    +0.008 C 
ATOM      2  C   UNL     1       2.280   5.785  -2.179  0.00  0.00    -0.009 C 
ATOM      3  C   UNL     1       0.904   5.662  -1.518  0.00  0.00    +0.008 C 
ATOM      4  C   UNL     1       0.440   4.205  -1.555  0.00  0.00    +0.037 C 
ATOM      5  C   UNL     1       1.536   3.323  -0.965  0.00  0.00    -0.023 A 
ATOM      6  C   UNL     1       2.802   3.774  -0.861  0.00  0.00    -0.004 A 
ATOM      7  S   UNL     1       3.710   2.436  -0.134  0.00  0.00    -0.073 S 
ATOM      8  C   UNL     1       2.381   1.271   0.029  0.00  0.00    +0.117 A 
ATOM      9  C   UNL     1       1.274   1.963  -0.489  0.00  0.00    +0.076 A 
ATOM     10  C   UNL     1       0.034   1.250  -0.484  0.00  0.00    +0.268 A 
ATOM     11  O   UNL     1      -0.980   1.770  -0.919  0.00  0.00    -0.267 OA
ATOM     12  N   UNL     1       0.002  -0.004   0.002  0.00  0.00    -0.255 N 
ATOM     13  C   UNL     1       1.130  -0.604   0.488  0.00  0.00    +0.178 A 
ATOM     14  N   UNL     1       2.284   0.031   0.494  0.00  0.00    -0.215 NA
ATOM     15  C   UNL     1       3.324   5.117  -1.274  0.00  0.00    +0.046 C 
ENDROOT
BRANCH  12  16
ATOM     16  C   UNL     1      -1.209  -0.708   0.010  0.00  0.00    +0.052 A 
ATOM     17  C   UNL     1      -2.053  -0.629   1.110  0.00  0.00    +0.026 A 
ATOM     18  C   UNL     1      -3.249  -1.319   1.112  0.00  0.00    +0.002 A 
ATOM     19  C   UNL     1      -3.602  -2.098   0.025  0.00  0.00    +0.000 A 
ATOM     20  C   UNL     1      -2.761  -2.184  -1.069  0.00  0.00    +0.002 A 
ATOM     21  C   UNL     1      -1.566  -1.491  -1.080  0.00  0.00    +0.026 A 
ENDBRANCH  12  16
BRANCH  13  22
ATOM     22  S   UNL     1       1.039  -2.249   1.114  0.00  0.00    -0.075 S 
BRANCH  22  23
ATOM     23  C   UNL     1       2.766  -2.498   1.595  0.00  0.00    +0.137 C 
ATOM     24  C   UNL     1       3.651  -2.474   0.348  0.00  0.00    +0.029 C 
BRANCH  23  25
ATOM     25  C   UNL     1       2.908  -3.830   2.286  0.00  0.00    +0.233 C 
ATOM     26  O   UNL     1       2.114  -4.718   2.059  0.00  0.00    -0.274 OA
ATOM     27  N   UNL     1       3.916  -4.034   3.156  0.00  0.00    -0.239 N 
ATOM     28  C   UNL     1       4.043  -5.225   3.774  0.00  0.00    +0.303 C 
ATOM     29  O   UNL     1       3.248  -6.115   3.546  0.00  0.00    -0.253 OA
ATOM     30  N   UNL     1       5.052  -5.429   4.644  0.00  0.00    -0.313 N 
ATOM     31  H   UNL     1       4.551  -3.323   3.338  0.00  0.00    +0.159 HD
ATOM     32  H   UNL     1       5.687  -4.718   4.826  0.00  0.00    +0.146 HD
ATOM     33  H   UNL     1       5.143  -6.286   5.088  0.00  0.00    +0.146 HD
ENDBRANCH  23  25
ENDBRANCH  22  23
ENDBRANCH  13  22
TORSDOF 4
