REMARK  Name = ZINC35867786
REMARK  10 active torsions:
REMARK  status: ('A' for Active; 'I' for Inactive)
REMARK    1  A    between atoms: C_1  and  C_2
REMARK    2  A    between atoms: C_2  and  C_3
REMARK    3  A    between atoms: C_2  and  C_4
REMARK    4  A    between atoms: C_2  and  C_5
REMARK    5  A    between atoms: C_8  and  S_11
REMARK    6  A    between atoms: S_11  and  N_14
REMARK    7  A    between atoms: C_27  and  C_29
REMARK    8  A    between atoms: C_29  and  N_30
REMARK    9  A    between atoms: N_30  and  C_31
REMARK   10  A    between atoms: N_30  and  C_32
REMARK                            x       y       z     vdW  Elec       q    Type
REMARK                         _______ _______ _______ _____ _____    ______ ____
ROOT
ATOM      1  N   UNL     1       2.570  -0.822  -6.146  0.00  0.00    -0.174 NA
ATOM      2  C   UNL     1       1.398  -0.904  -7.029  0.00  0.00    +0.128 C 
ATOM      3  C   UNL     1       0.629   0.420  -6.947  0.00  0.00    +0.123 C 
ATOM      4  N   UNL     1       1.578   1.527  -7.130  0.00  0.00    -0.312 N 
ATOM      5  C   UNL     1       2.750   1.609  -6.248  0.00  0.00    +0.123 C 
ATOM      6  C   UNL     1       3.516   0.288  -6.327  0.00  0.00    +0.128 C 
ATOM      7  C   UNL     1       1.371   2.474  -8.117  0.00  0.00    +0.133 A 
ATOM      8  C   UNL     1       0.524   3.592  -7.878  0.00  0.00    +0.051 A 
ATOM      9  C   UNL     1      -0.225   3.932  -6.667  0.00  0.00    -0.025 A 
ATOM     10  C   UNL     1      -0.962   5.060  -6.700  0.00  0.00    -0.004 A 
ATOM     11  S   UNL     1      -0.707   5.732  -8.321  0.00  0.00    -0.073 S 
ATOM     12  C   UNL     1       0.391   4.491  -8.955  0.00  0.00    +0.114 A 
ATOM     13  N   UNL     1       1.014   4.293 -10.100  0.00  0.00    -0.227 NA
ATOM     14  C   UNL     1       1.787   3.237 -10.263  0.00  0.00    +0.116 A 
ATOM     15  N   UNL     1       1.964   2.356  -9.294  0.00  0.00    -0.219 NA
ATOM     16  C   UNL     1      -1.812   5.622  -5.601  0.00  0.00    +0.043 C 
ATOM     17  C   UNL     1      -2.023   4.528  -4.545  0.00  0.00    +0.005 C 
ATOM     18  C   UNL     1      -0.669   3.890  -4.222  0.00  0.00    +0.005 C 
ATOM     19  C   UNL     1      -0.189   3.061  -5.414  0.00  0.00    +0.037 C 
ENDROOT
BRANCH   1  20
ATOM     20  S   UNL     1       2.817  -1.956  -4.965  0.00  0.00    +0.061 S 
ATOM     21  O   UNL     1       4.209  -1.951  -4.682  0.00  0.00    -0.153 OA
ATOM     22  O   UNL     1       2.128  -3.128  -5.377  0.00  0.00    -0.153 OA
BRANCH  20  26
ATOM     23  C   UNL     1       0.732  -0.476  -1.230  0.00  0.00    -0.042 A 
ATOM     24  C   UNL     1       0.050  -1.267  -2.135  0.00  0.00    +0.006 A 
ATOM     25  C   UNL     1       0.686  -1.719  -3.276  0.00  0.00    +0.029 A 
ATOM     26  C   UNL     1       2.005  -1.379  -3.511  0.00  0.00    +0.105 A 
ATOM     27  C   UNL     1       2.688  -0.587  -2.607  0.00  0.00    +0.029 A 
ATOM     28  C   UNL     1       2.050  -0.132  -1.468  0.00  0.00    +0.006 A 
BRANCH  23  30
ATOM     29  C   UNL     1       0.028   1.546   0.021  0.00  0.00    +0.015 C 
ATOM     30  C   UNL     1       0.038   0.017   0.014  0.00  0.00    -0.013 C 
ATOM     31  C   UNL     1       0.783  -0.494   1.250  0.00  0.00    +0.015 C 
ATOM     32  C   UNL     1      -1.401  -0.503   0.035  0.00  0.00    +0.015 C 
ENDBRANCH  23  30
ENDBRANCH  20  26
ENDBRANCH   1  20
BRANCH  14  33
ATOM     33  C   UNL     1       2.488   3.034 -11.581  0.00  0.00    -0.002 C 
BRANCH  33  34
ATOM     34  N   UNL     1       3.802   3.689 -11.543  0.00  0.00    +0.381 N 
ATOM     35  C   UNL     1       4.535   3.391 -12.781  0.00  0.00    -0.096 C 
ATOM     36  C   UNL     1       3.621   5.142 -11.419  0.00  0.00    -0.096 C 
ATOM     37  H   UNL     1       4.326   3.347 -10.751  0.00  0.00    -0.082 HD
ENDBRANCH  33  34
ENDBRANCH  14  33
TORSDOF 5
