REMARK  Name = ZINC09712139
REMARK  6 active torsions:
REMARK  status: ('A' for Active; 'I' for Inactive)
REMARK    1  A    between atoms: C_3  and  N_15
REMARK    2  A    between atoms: C_5  and  S_7
REMARK    3  A    between atoms: S_7  and  N_10
REMARK    4  A    between atoms: C_16  and  C_18
REMARK    5  A    between atoms: C_18  and  C_19
REMARK    6  A    between atoms: C_22  and  C_24
REMARK                            x       y       z     vdW  Elec       q    Type
REMARK                         _______ _______ _______ _____ _____    ______ ____
ROOT
ATOM      1  C   UNL     1       1.167   1.790  -0.188  0.00  0.00    +0.004 A 
ATOM      2  C   UNL     1      -0.021   1.083  -0.176  0.00  0.00    +0.023 A 
ATOM      3  C   UNL     1      -1.223   1.752   0.012  0.00  0.00    +0.035 A 
ATOM      4  C   UNL     1      -1.226   3.129   0.197  0.00  0.00    +0.052 A 
ATOM      5  C   UNL     1      -0.036   3.829   0.184  0.00  0.00    +0.110 A 
ATOM      6  C   UNL     1       1.159   3.160  -0.009  0.00  0.00    +0.029 A 
ENDROOT
BRANCH   3   7
ATOM      7  N   UNL     1      -2.427   1.041   0.019  0.00  0.00    -0.285 N 
ATOM      8  C   UNL     1      -2.465  -0.216   0.506  0.00  0.00    +0.223 C 
ATOM      9  O   UNL     1      -1.479  -0.695   1.025  0.00  0.00    -0.275 OA
ATOM     10  H   UNL     1      -3.236   1.451  -0.326  0.00  0.00    +0.155 HD
BRANCH   8  11
ATOM     11  C   UNL     1      -3.732  -1.025   0.405  0.00  0.00    +0.152 C 
BRANCH  11  12
ATOM     12  C   UNL     1      -3.511  -2.383   1.019  0.00  0.00    +0.058 A 
ATOM     13  C   UNL     1      -4.333  -2.826   2.007  0.00  0.00    +0.071 A 
ATOM     14  S   UNL     1      -3.619  -4.434   2.334  0.00  0.00    -0.075 S 
ATOM     15  C   UNL     1      -2.308  -4.340   1.122  0.00  0.00    +0.109 A 
ATOM     16  N   UNL     1      -2.527  -3.143   0.597  0.00  0.00    -0.243 NA
BRANCH  15  17
ATOM     17  C   UNL     1      -1.263  -5.332   0.792  0.00  0.00    +0.007 A 
ATOM     18  C   UNL     1      -0.326  -5.058  -0.205  0.00  0.00    +0.012 A 
ATOM     19  C   UNL     1       0.649  -5.986  -0.506  0.00  0.00    +0.020 A 
ATOM     20  C   UNL     1       0.694  -7.192   0.172  0.00  0.00    +0.041 A 
ATOM     21  C   UNL     1      -0.236  -7.473   1.159  0.00  0.00    +0.020 A 
ATOM     22  C   UNL     1      -1.213  -6.550   1.472  0.00  0.00    +0.012 A 
ATOM     23 CL   UNL     1       1.919  -8.358  -0.217  0.00  0.00    -0.084 Cl
ENDBRANCH  15  17
ENDBRANCH  11  12
ENDBRANCH   8  11
ENDBRANCH   3   7
BRANCH   5  24
ATOM     24  S   UNL     1      -0.041   5.576   0.412  0.00  0.00    +0.073 S 
ATOM     25  O   UNL     1      -1.234   5.891   1.115  0.00  0.00    -0.150 OA
ATOM     26  O   UNL     1       1.247   5.925   0.901  0.00  0.00    -0.150 OA
BRANCH  24  27
ATOM     27  N   UNL     1      -0.180   6.265  -1.088  0.00  0.00    -0.205 N 
ATOM     28  C   UNL     1      -1.320   6.080  -1.824  0.00  0.00    +0.088 C 
ATOM     29  C   UNL     1      -3.410   5.369  -2.433  0.00  0.00    +0.114 C 
ATOM     30  C   UNL     1      -2.751   5.844  -3.748  0.00  0.00    +0.028 C 
ATOM     31  C   UNL     1      -1.557   6.665  -3.199  0.00  0.00    +0.072 C 
ATOM     32  H   UNL     1       0.546   6.800  -1.445  0.00  0.00    +0.175 HD
ATOM     33  N   UNL     1      -2.334   5.380  -1.419  0.00  0.00    -0.375 N 
ATOM     34  H   UNL     1      -2.384   4.898  -0.514  0.00  0.00    +0.161 HD
ENDBRANCH  24  27
ENDBRANCH   5  24
TORSDOF 6
