REMARK  Name = ZINC39683619
REMARK  8 active torsions:
REMARK  status: ('A' for Active; 'I' for Inactive)
REMARK    1  A    between atoms: C_1  and  C_2
REMARK    2  A    between atoms: C_2  and  C_3
REMARK    3  A    between atoms: C_3  and  C_4
REMARK    4  A    between atoms: C_4  and  N_5
REMARK    5  A    between atoms: C_8  and  C_11
REMARK    6  A    between atoms: C_11  and  N_12
REMARK    7  A    between atoms: C_13  and  C_15
REMARK    8  A    between atoms: C_26  and  C_28
REMARK                            x       y       z     vdW  Elec       q    Type
REMARK                         _______ _______ _______ _____ _____    ______ ____
ROOT
ATOM      1  C   UNL     1       4.784  -8.084   6.289  0.00  0.00    +0.100 C 
ATOM      2  C   UNL     1       3.352  -8.648   6.428  0.00  0.00    +0.121 C 
ATOM      3  N   UNL     1       3.491  -9.802   7.348  0.00  0.00    -0.296 N 
ATOM      4  C   UNL     1       4.471  -9.347   8.364  0.00  0.00    +0.115 C 
ATOM      5  C   UNL     1       5.515  -8.544   7.562  0.00  0.00    -0.004 C 
ATOM      6  C   UNL     1       5.984  -7.337   8.368  0.00  0.00    -0.010 C 
ATOM      7  C   UNL     1       6.758  -7.819   9.597  0.00  0.00    -0.082 C 
ATOM      8  N   UNL     1       7.909  -8.624   9.169  0.00  0.00    +0.379 N 
ATOM      9  C   UNL     1       7.445  -9.831   8.475  0.00  0.00    -0.082 C 
ATOM     10  C   UNL     1       6.699  -9.434   7.198  0.00  0.00    -0.010 C 
ATOM     11  C   UNL     1       2.869 -10.995   7.277  0.00  0.00    +0.252 C 
ATOM     12  O   UNL     1       3.091 -11.847   8.115  0.00  0.00    -0.270 OA
ATOM     13  H   UNL     1       8.485  -8.079   8.544  0.00  0.00    -0.086 HD
ATOM     14  H   UNL     1       8.452  -8.889   9.977  0.00  0.00    -0.086 HD
ENDROOT
BRANCH  11  15
ATOM     15  C   UNL     1       1.918 -11.267   6.182  0.00  0.00    +0.108 A 
ATOM     16  C   UNL     1       2.368 -11.833   4.984  0.00  0.00    +0.138 A 
ATOM     17  C   UNL     1       1.471 -12.085   3.963  0.00  0.00    +0.041 A 
ATOM     18  C   UNL     1       0.132 -11.779   4.122  0.00  0.00    +0.026 A 
ATOM     19  C   UNL     1      -0.322 -11.219   5.303  0.00  0.00    +0.077 A 
ATOM     20  C   UNL     1       0.561 -10.965   6.337  0.00  0.00    +0.156 A 
ATOM     21  F   UNL     1       0.116 -10.423   7.492  0.00  0.00    -0.203 F 
ATOM     22 CL   UNL     1      -2.006 -10.838   5.490  0.00  0.00    -0.081 Cl
ATOM     23  F   UNL     1       3.676 -12.132   4.825  0.00  0.00    -0.205 F 
ENDBRANCH  11  15
BRANCH   1  25
ATOM     24  N   UNL     1       5.714  -5.915   5.551  0.00  0.00    -0.315 N 
ATOM     25  C   UNL     1       4.750  -6.579   6.219  0.00  0.00    +0.218 C 
ATOM     26  O   UNL     1       3.856  -5.966   6.762  0.00  0.00    -0.275 OA
ATOM     27  H   UNL     1       6.430  -6.405   5.117  0.00  0.00    +0.149 HD
BRANCH  24  28
ATOM     28  C   UNL     1       5.682  -4.452   5.483  0.00  0.00    +0.107 C 
BRANCH  28  32
ATOM     29  N   UNL     1       7.874  -2.385   2.449  0.00  0.00    +0.380 N 
ATOM     30  C   UNL     1       8.072  -1.927   3.829  0.00  0.00    -0.079 C 
ATOM     31  C   UNL     1       6.918  -2.422   4.705  0.00  0.00    -0.014 C 
ATOM     32  C   UNL     1       6.881  -3.952   4.673  0.00  0.00    +0.003 C 
ATOM     33  C   UNL     1       6.749  -4.420   3.221  0.00  0.00    -0.014 C 
ATOM     34  C   UNL     1       7.908  -3.851   2.401  0.00  0.00    -0.079 C 
ATOM     35  H   UNL     1       6.979  -2.059   2.114  0.00  0.00    -0.082 HD
BRANCH  29  36
ATOM     36  C   UNL     1       8.941  -1.843   1.597  0.00  0.00    -0.079 C 
BRANCH  36  37
ATOM     37  C   UNL     1       8.829  -0.318   1.548  0.00  0.00    -0.019 C 
BRANCH  37  39
ATOM     38  C   UNL     1       9.828   1.772   0.611  0.00  0.00    +0.004 C 
ATOM     39  C   UNL     1       9.940   0.247   0.660  0.00  0.00    -0.005 C 
ENDBRANCH  37  39
ENDBRANCH  36  37
ENDBRANCH  29  36
ENDBRANCH  28  32
ENDBRANCH  24  28
ENDBRANCH   1  25
TORSDOF 7
