REMARK  Name = ZINC12904453
REMARK  5 active torsions:
REMARK  status: ('A' for Active; 'I' for Inactive)
REMARK    1  A    between atoms: C_4  and  C_7
REMARK    2  A    between atoms: C_12  and  C_13
REMARK    3  A    between atoms: C_12  and  N_59
REMARK    4  A    between atoms: C_13  and  C_14
REMARK    5  A    between atoms: N_16  and  N_17
REMARK                            x       y       z     vdW  Elec       q    Type
REMARK                         _______ _______ _______ _____ _____    ______ ____
ROOT
ATOM      1  C   UNL     1      -1.576   2.734   1.152  0.00  0.00    +0.228 C 
ATOM      2  O   UNL     1      -0.915   2.621   2.163  0.00  0.00    -0.274 OA
ATOM      3  N   UNL     1      -1.186   2.116   0.019  0.00  0.00    -0.224 N 
ATOM      4  H   UNL     1      -1.714   2.207  -0.789  0.00  0.00    +0.174 HD
ENDROOT
BRANCH   3   5
ATOM      5  N   UNL     1      -0.016   1.345   0.009  0.00  0.00    -0.137 N 
ATOM      6  C   UNL     1       0.002  -0.004   0.002  0.00  0.00    +0.263 C 
ATOM      7  O   UNL     1      -0.953  -0.751   0.007  0.00  0.00    -0.271 OA
ATOM      8  C   UNL     1       1.464  -0.388  -0.014  0.00  0.00    +0.114 C 
ATOM      9  C   UNL     1       1.792  -1.178  -1.276  0.00  0.00    +0.035 C 
ATOM     10  C   UNL     1       3.281  -1.532  -1.287  0.00  0.00    +0.003 C 
ATOM     11  C   UNL     1       3.616  -2.361  -0.045  0.00  0.00    +0.000 C 
ATOM     12  C   UNL     1       3.305  -1.546   1.212  0.00  0.00    +0.003 C 
ATOM     13  C   UNL     1       1.816  -1.192   1.233  0.00  0.00    +0.035 C 
ATOM     14  N   UNL     1       2.171   0.899  -0.014  0.00  0.00    -0.284 N 
ATOM     15  C   UNL     1       1.222   1.855   0.000  0.00  0.00    +0.326 C 
ATOM     16  O   UNL     1       1.462   3.046   0.004  0.00  0.00    -0.251 OA
ATOM     17  H   UNL     1       3.131   1.035  -0.023  0.00  0.00    +0.151 HD
ENDBRANCH   3   5
BRANCH   1  18
ATOM     18  C   UNL     1      -2.834   3.564   1.163  0.00  0.00    +0.079 C 
BRANCH  18  19
ATOM     19  C   UNL     1      -3.047   4.149   2.560  0.00  0.00    -0.070 C 
BRANCH  19  25
ATOM     20  C   UNL     1      -5.900   7.297   3.038  0.00  0.00    +0.016 C 
ATOM     21  C   UNL     1      -5.993   6.054   3.927  0.00  0.00    -0.011 C 
ATOM     22  C   UNL     1      -4.640   5.340   3.940  0.00  0.00    -0.078 C 
ATOM     23  C   UNL     1      -4.132   6.139   1.710  0.00  0.00    -0.078 C 
ATOM     24  C   UNL     1      -5.470   6.877   1.630  0.00  0.00    -0.011 C 
ATOM     25  N   UNL     1      -4.295   4.940   2.559  0.00  0.00    +0.380 N 
ATOM     26  H   UNL     1      -5.055   4.364   2.180  0.00  0.00    -0.082 HD
BRANCH  20  30
ATOM     27  C   UNL     1      -9.715   9.211   2.856  0.00  0.00    +0.000 A 
ATOM     28  C   UNL     1      -8.621   9.895   3.354  0.00  0.00    +0.000 A 
ATOM     29  C   UNL     1      -7.387   9.276   3.413  0.00  0.00    +0.004 A 
ATOM     30  C   UNL     1      -7.246   7.972   2.974  0.00  0.00    -0.044 A 
ATOM     31  C   UNL     1      -8.339   7.290   2.472  0.00  0.00    +0.004 A 
ATOM     32  C   UNL     1      -9.574   7.908   2.417  0.00  0.00    +0.000 A 
ENDBRANCH  20  30
ENDBRANCH  19  25
ENDBRANCH  18  19
ENDBRANCH   1  18
TORSDOF 5
