REMARK  Name = ZINC08800159
REMARK  9 active torsions:
REMARK  status: ('A' for Active; 'I' for Inactive)
REMARK    1  A    between atoms: C_1  and  C_2
REMARK    2  A    between atoms: N_4  and  C_5
REMARK    3  A    between atoms: C_8  and  S_11
REMARK    4  A    between atoms: S_11  and  N_14
REMARK    5  A    between atoms: N_14  and  C_15
REMARK    6  A    between atoms: C_15  and  C_16
REMARK    7  A    between atoms: C_16  and  C_18
REMARK    8  A    between atoms: C_16  and  N_67
REMARK    9  A    between atoms: N_27  and  C_28
REMARK                            x       y       z     vdW  Elec       q    Type
REMARK                         _______ _______ _______ _____ _____    ______ ____
ROOT
ATOM      1  C   UNL     1       0.173   9.221   3.313  0.00  0.00    -0.022 C 
ENDROOT
BRANCH   1   2
ATOM      2  C   UNL     1       1.491   9.012   4.013  0.00  0.00    -0.059 A 
ATOM      3  C   UNL     1       2.610   9.716   3.608  0.00  0.00    +0.004 A 
ATOM      4  C   UNL     1       3.815   9.522   4.248  0.00  0.00    +0.023 A 
ATOM      5  C   UNL     1       3.915   8.617   5.306  0.00  0.00    +0.033 A 
ATOM      6  C   UNL     1       2.791   7.919   5.711  0.00  0.00    -0.026 A 
ATOM      7  C   UNL     1       1.582   8.122   5.064  0.00  0.00    +0.007 A 
ATOM      8  C   UNL     1       2.829   6.936   6.854  0.00  0.00    +0.038 C 
ATOM      9  C   UNL     1       4.281   6.571   7.171  0.00  0.00    +0.024 C 
ATOM     10  C   UNL     1       5.090   7.872   7.244  0.00  0.00    +0.105 C 
ATOM     11  N   UNL     1       5.164   8.454   5.903  0.00  0.00    -0.333 N 
ATOM     12  C   UNL     1       5.909   9.720   5.919  0.00  0.00    +0.129 C 
ENDBRANCH   1   2
BRANCH   1  18
ATOM     13  C   UNL     1      -1.321  11.083   2.913  0.00  0.00    -0.078 C 
ATOM     14  C   UNL     1      -1.372  12.577   2.585  0.00  0.00    -0.019 C 
ATOM     15  C   UNL     1      -0.780  12.809   1.192  0.00  0.00    -0.004 C 
ATOM     16  C   UNL     1       0.653  12.272   1.158  0.00  0.00    -0.019 C 
ATOM     17  C   UNL     1       0.645  10.787   1.528  0.00  0.00    -0.078 C 
ATOM     18  N   UNL     1       0.087  10.634   2.888  0.00  0.00    +0.385 N 
ATOM     19  H   UNL     1       0.632  11.211   3.539  0.00  0.00    -0.081 HD
ENDBRANCH   1  18
BRANCH   1  20
ATOM     20  C   UNL     1       0.087   8.293   2.100  0.00  0.00    +0.095 C 
BRANCH  20  21
ATOM     21  N   UNL     1      -1.201   8.483   1.429  0.00  0.00    -0.191 NA
ATOM     22  H   UNL     1      -1.936   8.905   1.901  0.00  0.00    +0.148 HD
BRANCH  21  23
ATOM     23  S   UNL     1      -1.403   7.979  -0.135  0.00  0.00    +0.058 S 
ATOM     24  O   UNL     1      -0.295   8.482  -0.870  0.00  0.00    -0.153 OA
ATOM     25  O   UNL     1      -2.747   8.275  -0.487  0.00  0.00    -0.153 OA
BRANCH  23  29
ATOM     26  C   UNL     1      -1.024   3.466  -0.148  0.00  0.00    +0.033 A 
ATOM     27  C   UNL     1       0.102   4.260  -0.325  0.00  0.00    +0.025 A 
ATOM     28  C   UNL     1      -0.018   5.635  -0.327  0.00  0.00    +0.030 A 
ATOM     29  C   UNL     1      -1.256   6.223  -0.140  0.00  0.00    +0.105 A 
ATOM     30  C   UNL     1      -2.378   5.437   0.042  0.00  0.00    +0.030 A 
ATOM     31  C   UNL     1      -2.266   4.060   0.039  0.00  0.00    +0.025 A 
BRANCH  26  35
ATOM     32  C   UNL     1      -1.716  -0.178  -0.786  0.00  0.00    +0.109 C 
ATOM     33  C   UNL     1      -1.893   1.314  -0.672  0.00  0.00    +0.214 C 
ATOM     34  O   UNL     1      -2.924   1.833  -1.046  0.00  0.00    -0.276 OA
ATOM     35  N   UNL     1      -0.907   2.072  -0.151  0.00  0.00    -0.286 N 
ATOM     36  H   UNL     1      -0.117   1.651   0.222  0.00  0.00    +0.155 HD
ENDBRANCH  26  35
ENDBRANCH  23  29
ENDBRANCH  21  23
ENDBRANCH  20  21
ENDBRANCH   1  20
TORSDOF 7
