REMARK  Name = ZINC38892540
REMARK  11 active torsions:
REMARK  status: ('A' for Active; 'I' for Inactive)
REMARK    1  A    between atoms: C_1  and  C_2
REMARK    2  A    between atoms: C_2  and  O_3
REMARK    3  A    between atoms: O_3  and  C_4
REMARK    4  A    between atoms: C_4  and  C_6
REMARK    5  A    between atoms: C_10  and  N_11
REMARK    6  A    between atoms: C_12  and  C_14
REMARK    7  A    between atoms: N_19  and  C_21
REMARK    8  A    between atoms: C_21  and  C_22
REMARK    9  A    between atoms: C_24  and  C_27
REMARK   10  A    between atoms: C_30  and  O_33
REMARK   11  A    between atoms: O_33  and  C_34
REMARK                            x       y       z     vdW  Elec       q    Type
REMARK                         _______ _______ _______ _____ _____    ______ ____
ROOT
ATOM      1  C   UNL     1      -3.306  -2.666   4.953  0.00  0.00    +0.059 C 
ATOM      2  C   UNL     1      -2.026  -3.481   5.160  0.00  0.00    +0.009 C 
ATOM      3  C   UNL     1      -1.568  -3.332   6.614  0.00  0.00    -0.018 C 
ATOM      4  C   UNL     1      -2.696  -3.777   7.546  0.00  0.00    -0.078 C 
ATOM      5  N   UNL     1      -3.882  -2.944   7.318  0.00  0.00    +0.386 N 
ATOM      6  C   UNL     1      -4.370  -3.135   5.947  0.00  0.00    -0.065 C 
ATOM      7  H   UNL     1      -3.642  -1.974   7.455  0.00  0.00    -0.081 HD
ENDROOT
BRANCH   1   9
ATOM      8  N   UNL     1      -3.033  -2.524   2.498  0.00  0.00    -0.279 N 
ATOM      9  C   UNL     1      -3.808  -2.867   3.546  0.00  0.00    +0.219 C 
ATOM     10  O   UNL     1      -4.910  -3.337   3.357  0.00  0.00    -0.275 OA
ATOM     11  H   UNL     1      -2.152  -2.147   2.650  0.00  0.00    +0.155 HD
BRANCH   8  16
ATOM     12  C   UNL     1      -2.842  -2.416   0.016  0.00  0.00    +0.091 A 
ATOM     13  C   UNL     1      -3.548  -2.714  -1.219  0.00  0.00    -0.021 A 
ATOM     14  C   UNL     1      -4.777  -3.242  -1.039  0.00  0.00    -0.004 A 
ATOM     15  S   UNL     1      -4.974  -3.335   0.716  0.00  0.00    -0.077 S 
ATOM     16  C   UNL     1      -3.495  -2.708   1.205  0.00  0.00    +0.086 A 
ATOM     17  C   UNL     1      -5.745  -3.651  -2.106  0.00  0.00    +0.043 C 
ATOM     18  C   UNL     1      -5.287  -3.033  -3.435  0.00  0.00    +0.005 C 
ATOM     19  C   UNL     1      -3.790  -3.300  -3.616  0.00  0.00    +0.005 C 
ATOM     20  C   UNL     1      -2.988  -2.468  -2.612  0.00  0.00    +0.037 C 
BRANCH  12  21
ATOM     21  C   UNL     1      -1.497  -1.838   0.006  0.00  0.00    +0.342 C 
ATOM     22  O   UNL     1      -0.523  -2.566  -0.007  0.00  0.00    -0.245 OA
BRANCH  21  23
ATOM     23  O   UNL     1      -1.339  -0.499   0.012  0.00  0.00    -0.461 OA
BRANCH  23  25
ATOM     24  C   UNL     1      -0.019   1.526   0.010  0.00  0.00    +0.048 C 
ATOM     25  C   UNL     1       0.002  -0.004   0.002  0.00  0.00    +0.229 C 
ENDBRANCH  23  25
ENDBRANCH  21  23
ENDBRANCH  12  21
ENDBRANCH   8  16
ENDBRANCH   1   9
BRANCH   5  26
ATOM     26  C   UNL     1      -4.936  -3.323   8.269  0.00  0.00    +0.022 C 
BRANCH  26  27
ATOM     27  C   UNL     1      -4.487  -3.003   9.671  0.00  0.00    +0.211 A 
ATOM     28  N   UNL     1      -4.688  -1.879  10.296  0.00  0.00    -0.193 NA
ATOM     29  C   UNL     1      -4.155  -1.936  11.530  0.00  0.00    +0.202 A 
ATOM     30  N   UNL     1      -3.605  -3.114  11.694  0.00  0.00    -0.056 NA
ATOM     31  O   UNL     1      -3.818  -3.829  10.486  0.00  0.00    -0.340 OA
BRANCH  29  32
ATOM     32  C   UNL     1      -4.184  -0.846  12.537  0.00  0.00    +0.023 A 
ATOM     33  C   UNL     1      -4.808   0.364  12.239  0.00  0.00    +0.015 A 
ATOM     34  C   UNL     1      -4.834   1.374  13.176  0.00  0.00    +0.046 A 
ATOM     35  C   UNL     1      -4.238   1.188  14.416  0.00  0.00    +0.120 A 
ATOM     36  C   UNL     1      -3.615  -0.017  14.716  0.00  0.00    +0.046 A 
ATOM     37  C   UNL     1      -3.592  -1.033  13.785  0.00  0.00    +0.015 A 
BRANCH  35  38
ATOM     38  O   UNL     1      -4.264   2.185  15.338  0.00  0.00    -0.495 OA
ATOM     39  C   UNL     1      -3.633   1.925  16.593  0.00  0.00    +0.277 C 
ENDBRANCH  35  38
ENDBRANCH  29  32
ENDBRANCH  26  27
ENDBRANCH   5  26
TORSDOF 9
