REMARK  Name = ZINC38650789
REMARK  12 active torsions:
REMARK  status: ('A' for Active; 'I' for Inactive)
REMARK    1  A    between atoms: C_1  and  C_2
REMARK    2  A    between atoms: C_2  and  C_3
REMARK    3  A    between atoms: C_3  and  C_4
REMARK    4  A    between atoms: C_4  and  O_5
REMARK    5  A    between atoms: O_5  and  C_6
REMARK    6  A    between atoms: C_9  and  C_12
REMARK    7  A    between atoms: C_17  and  O_26
REMARK    8  A    between atoms: C_21  and  N_25
REMARK    9  A    between atoms: C_22  and  C_23
REMARK   10  A    between atoms: O_26  and  C_27
REMARK   11  A    between atoms: C_27  and  C_29
REMARK   12  A    between atoms: C_32  and  N_35
REMARK                            x       y       z     vdW  Elec       q    Type
REMARK                         _______ _______ _______ _____ _____    ______ ____
ROOT
ATOM      1  C   UNL     1       1.852  -8.062   2.978  0.00  0.00    +0.098 C 
ATOM      2  C   UNL     1       1.191  -8.491   4.261  0.00  0.00    +0.008 A 
ATOM      3  C   UNL     1      -0.190  -8.473   4.355  0.00  0.00    +0.012 A 
ATOM      4  C   UNL     1      -0.813  -8.863   5.523  0.00  0.00    +0.047 A 
ATOM      5  C   UNL     1      -0.055  -9.276   6.610  0.00  0.00    +0.135 A 
ATOM      6  C   UNL     1       1.327  -9.296   6.519  0.00  0.00    +0.093 A 
ATOM      7  C   UNL     1       1.953  -8.902   5.343  0.00  0.00    +0.138 A 
ATOM      8  O   UNL     1       3.307  -8.926   5.271  0.00  0.00    -0.441 OA
ATOM      9  C   UNL     1       3.914  -8.932   4.073  0.00  0.00    +0.199 C 
ATOM     10  C   UNL     1       3.278  -8.534   2.949  0.00  0.00    +0.098 C 
ENDROOT
BRANCH   1  14
ATOM     11  C   UNL     1       1.766  -3.798   2.700  0.00  0.00    +0.121 A 
ATOM     12  C   UNL     1       1.142  -4.570   1.731  0.00  0.00    +0.046 A 
ATOM     13  C   UNL     1       1.171  -5.948   1.823  0.00  0.00    +0.008 A 
ATOM     14  C   UNL     1       1.822  -6.558   2.880  0.00  0.00    -0.034 A 
ATOM     15  C   UNL     1       2.444  -5.791   3.847  0.00  0.00    +0.008 A 
ATOM     16  C   UNL     1       2.423  -4.412   3.756  0.00  0.00    +0.046 A 
BRANCH  11  17
ATOM     17  O   UNL     1       1.739  -2.442   2.612  0.00  0.00    -0.492 OA
BRANCH  17  18
ATOM     18  C   UNL     1       1.044  -1.879   1.498  0.00  0.00    +0.229 C 
BRANCH  18  19
ATOM     19  C   UNL     1       1.121  -0.352   1.567  0.00  0.00    +0.041 C 
BRANCH  19  21
ATOM     20  C   UNL     1       0.455   1.778   0.444  0.00  0.00    +0.004 C 
ATOM     21  C   UNL     1       0.377   0.251   0.374  0.00  0.00    -0.000 C 
ENDBRANCH  19  21
ENDBRANCH  18  19
ENDBRANCH  17  18
ENDBRANCH  11  17
ENDBRANCH   1  14
BRANCH   9  22
ATOM     22  N   UNL     1       5.218  -9.354   3.989  0.00  0.00    -0.328 N 
ATOM     23  H   UNL     1       5.687  -9.642   4.787  0.00  0.00    +0.145 HD
ATOM     24  H   UNL     1       5.670  -9.364   3.131  0.00  0.00    +0.145 HD
ENDBRANCH   9  22
BRANCH  10  25
ATOM     25  C   UNL     1       3.982  -8.564   1.702  0.00  0.00    +0.101 C 
ATOM     26  N   UNL     1       4.540  -8.587   0.713  0.00  0.00    -0.191 NA
ENDBRANCH  10  25
BRANCH   5  27
ATOM     27  O   UNL     1      -0.667  -9.660   7.761  0.00  0.00    -0.422 OA
BRANCH  27  28
ATOM     28  C   UNL     1      -1.367 -10.811   7.751  0.00  0.00    +0.344 C 
ATOM     29  O   UNL     1      -1.351 -11.524   6.767  0.00  0.00    -0.245 OA
BRANCH  28  30
ATOM     30  C   UNL     1      -2.154 -11.207   8.937  0.00  0.00    +0.060 A 
ATOM     31  C   UNL     1      -2.179 -10.388  10.067  0.00  0.00    +0.017 A 
ATOM     32  C   UNL     1      -2.916 -10.764  11.171  0.00  0.00    +0.033 A 
ATOM     33  C   UNL     1      -3.629 -11.950  11.160  0.00  0.00    +0.126 A 
ATOM     34  C   UNL     1      -3.608 -12.766  10.043  0.00  0.00    +0.033 A 
ATOM     35  C   UNL     1      -2.880 -12.400   8.930  0.00  0.00    +0.017 A 
BRANCH  33  36
ATOM     36  N   UNL     1      -4.416 -12.347  12.349  0.00  0.00    +0.056 N 
ATOM     37  O   UNL     1      -4.436 -11.636  13.326  0.00  0.00    -0.126 OA
ATOM     38  O   UNL     1      -5.040 -13.383  12.342  0.00  0.00    -0.126 OA
ENDBRANCH  33  36
ENDBRANCH  28  30
ENDBRANCH  27  28
ENDBRANCH   5  27
TORSDOF 11
