REMARK  Name = ZINC39659912
REMARK  3 active torsions:
REMARK  status: ('A' for Active; 'I' for Inactive)
REMARK    1  A    between atoms: C_5  and  N_9
REMARK    2  A    between atoms: C_10  and  C_12
REMARK    3  A    between atoms: C_23  and  C_25
REMARK                            x       y       z     vdW  Elec       q    Type
REMARK                         _______ _______ _______ _____ _____    ______ ____
ROOT
ATOM      1  C   UNL     1      -1.073   1.063  -5.408  0.00  0.00    +0.100 C 
ATOM      2  C   UNL     1      -0.461   0.211  -6.543  0.00  0.00    +0.121 C 
ATOM      3  N   UNL     1      -1.486  -0.819  -6.832  0.00  0.00    -0.300 N 
ATOM      4  C   UNL     1      -2.776  -0.094  -6.734  0.00  0.00    +0.115 C 
ATOM      5  C   UNL     1      -2.592   0.863  -5.540  0.00  0.00    -0.004 C 
ATOM      6  C   UNL     1      -3.279   2.196  -5.821  0.00  0.00    -0.010 C 
ATOM      7  C   UNL     1      -4.793   1.981  -5.889  0.00  0.00    -0.082 C 
ATOM      8  N   UNL     1      -5.268   1.422  -4.618  0.00  0.00    +0.379 N 
ATOM      9  C   UNL     1      -4.674   0.098  -4.400  0.00  0.00    -0.082 C 
ATOM     10  C   UNL     1      -3.154   0.233  -4.269  0.00  0.00    -0.010 C 
ATOM     11  C   UNL     1      -1.290  -2.121  -7.120  0.00  0.00    +0.219 C 
ATOM     12  O   UNL     1      -0.171  -2.588  -7.087  0.00  0.00    -0.275 OA
ATOM     13  H   UNL     1      -5.003   2.036  -3.862  0.00  0.00    -0.086 HD
ATOM     14  H   UNL     1      -6.273   1.338  -4.643  0.00  0.00    -0.086 HD
ENDROOT
BRANCH  11  15
ATOM     15  C   UNL     1      -2.462  -2.997  -7.482  0.00  0.00    +0.079 C 
ATOM     16  C   UNL     1      -2.134  -4.459  -7.151  0.00  0.00    +0.017 C 
ATOM     17  C   UNL     1      -3.397  -5.297  -7.360  0.00  0.00    +0.027 C 
ATOM     18  C   UNL     1      -4.002  -4.995  -8.699  0.00  0.00    -0.031 C 
ATOM     19  C   UNL     1      -3.719  -3.947  -9.403  0.00  0.00    -0.030 C 
ATOM     20  C   UNL     1      -2.742  -2.887  -8.982  0.00  0.00    +0.039 C 
ENDBRANCH  11  15
BRANCH   1  22
ATOM     21  N   UNL     1      -0.494   1.430  -3.032  0.00  0.00    -0.312 N 
ATOM     22  C   UNL     1      -0.593   0.573  -4.067  0.00  0.00    +0.218 C 
ATOM     23  O   UNL     1      -0.296  -0.594  -3.918  0.00  0.00    -0.275 OA
ATOM     24  H   UNL     1      -0.732   2.363  -3.151  0.00  0.00    +0.149 HD
BRANCH  21  29
ATOM     25  C   UNL     1       0.353  -0.861   0.536  0.00  0.00    +0.000 C 
ATOM     26  C   UNL     1      -0.244   0.318   1.306  0.00  0.00    +0.000 C 
ATOM     27  C   UNL     1       0.215   1.630   0.665  0.00  0.00    +0.002 C 
ATOM     28  C   UNL     1      -0.569   1.868  -0.627  0.00  0.00    +0.022 C 
ATOM     29  C   UNL     1      -0.028   0.953  -1.727  0.00  0.00    +0.073 C 
ATOM     30  C   UNL     1       1.502   0.968  -1.697  0.00  0.00    +0.022 C 
ATOM     31  C   UNL     1       2.016  -0.410  -1.273  0.00  0.00    +0.002 C 
ATOM     32  C   UNL     1       1.827  -0.582   0.236  0.00  0.00    +0.000 C 
ENDBRANCH  21  29
ENDBRANCH   1  22
TORSDOF 3
