REMARK  Name = ZINC09716108
REMARK  12 active torsions:
REMARK  status: ('A' for Active; 'I' for Inactive)
REMARK    1  A    between atoms: C_1  and  C_2
REMARK    2  A    between atoms: C_2  and  C_3
REMARK    3  A    between atoms: C_3  and  C_4
REMARK    4  A    between atoms: C_3  and  C_5
REMARK    5  A    between atoms: C_3  and  C_6
REMARK    6  A    between atoms: C_9  and  O_12
REMARK    7  A    between atoms: O_12  and  C_13
REMARK    8  A    between atoms: C_16  and  N_19
REMARK    9  A    between atoms: C_20  and  C_22
REMARK   10  A    between atoms: C_22  and  S_23
REMARK   11  A    between atoms: S_23  and  C_24
REMARK   12  A    between atoms: C_30  and  N_32
REMARK                            x       y       z     vdW  Elec       q    Type
REMARK                         _______ _______ _______ _____ _____    ______ ____
ROOT
ATOM      1  C   UNL     1       0.993  -0.685   0.030  0.00  0.00    +0.129 A 
ATOM      2  C   UNL     1      -0.224  -0.094   0.338  0.00  0.00    +0.048 A 
ATOM      3  C   UNL     1      -0.350   1.281   0.314  0.00  0.00    +0.027 A 
ATOM      4  C   UNL     1       0.741   2.072  -0.018  0.00  0.00    +0.034 A 
ATOM      5  C   UNL     1       1.959   1.480  -0.326  0.00  0.00    +0.027 A 
ATOM      6  C   UNL     1       2.084   0.105  -0.302  0.00  0.00    +0.048 A 
ENDROOT
BRANCH   4   7
ATOM      7  N   UNL     1       0.614   3.467  -0.043  0.00  0.00    -0.285 N 
ATOM      8  C   UNL     1      -0.210   4.084   0.827  0.00  0.00    +0.227 C 
ATOM      9  O   UNL     1      -0.779   3.441   1.683  0.00  0.00    -0.275 OA
ATOM     10  H   UNL     1       1.186   4.059  -0.773  0.00  0.00    +0.155 HD
BRANCH   8  11
ATOM     11  C   UNL     1      -0.424   5.573   0.736  0.00  0.00    +0.173 C 
BRANCH  11  12
ATOM     12  S   UNL     1      -1.574   6.098   2.031  0.00  0.00    -0.078 S 
BRANCH  12  13
ATOM     13  C   UNL     1      -1.640   7.827   1.700  0.00  0.00    +0.171 A 
ATOM     14  N   UNL     1      -2.423   8.626   2.476  0.00  0.00    -0.302 N 
ATOM     15  H   UNL     1      -3.006   8.191   3.301  0.00  0.00    +0.171 HD
ATOM     16  C   UNL     1      -2.485   9.953   2.237  0.00  0.00    +0.254 A 
ATOM     17  O   UNL     1      -3.185  10.676   2.929  0.00  0.00    -0.268 OA
ATOM     18  C   UNL     1      -1.735  10.485   1.184  0.00  0.00    +0.113 A 
ATOM     19  C   UNL     1      -0.953   9.628   0.421  0.00  0.00    +0.124 A 
ATOM     20  N   UNL     1      -0.926   8.322   0.709  0.00  0.00    -0.209 NA
BRANCH  19  21
ATOM     21  N   UNL     1      -0.202  10.123  -0.625  0.00  0.00    -0.343 N 
ATOM     22  H   UNL     1       0.417   9.442  -1.228  0.00  0.00    +0.144 HD
ATOM     23  H   UNL     1      -0.222  11.198  -0.857  0.00  0.00    +0.144 HD
ENDBRANCH  19  21
ENDBRANCH  12  13
ENDBRANCH  11  12
ENDBRANCH   8  11
ENDBRANCH   4   7
BRANCH   1  24
ATOM     24  O   UNL     1       1.116  -2.038   0.054  0.00  0.00    -0.456 OA
BRANCH  24  28
ATOM     25  C   UNL     1      -0.462  -4.184  -3.096  0.00  0.00    -0.042 A 
ATOM     26  C   UNL     1       0.170  -4.845  -2.059  0.00  0.00    +0.008 A 
ATOM     27  C   UNL     1       0.700  -4.129  -1.003  0.00  0.00    +0.046 A 
ATOM     28  C   UNL     1       0.597  -2.745  -0.984  0.00  0.00    +0.128 A 
ATOM     29  C   UNL     1      -0.043  -2.085  -2.023  0.00  0.00    +0.046 A 
ATOM     30  C   UNL     1      -0.566  -2.805  -3.079  0.00  0.00    +0.008 A 
BRANCH  25  31
ATOM     31  C   UNL     1      -1.038  -4.968  -4.247  0.00  0.00    -0.010 C 
ATOM     32  C   UNL     1       0.077  -5.757  -4.936  0.00  0.00    +0.016 C 
ATOM     33  C   UNL     1      -2.100  -5.937  -3.724  0.00  0.00    +0.016 C 
BRANCH  31  35
ATOM     34  C   UNL     1      -2.261  -4.801  -6.419  0.00  0.00    +0.005 C 
ATOM     35  C   UNL     1      -1.676  -4.005  -5.251  0.00  0.00    +0.007 C 
ENDBRANCH  31  35
ENDBRANCH  25  31
ENDBRANCH  24  28
ENDBRANCH   1  24
TORSDOF 9
