REMARK  Name = ZINC42413917
REMARK  1 active torsions:
REMARK  status: ('A' for Active; 'I' for Inactive)
REMARK    1  A    between atoms: C_8  and  C_11
REMARK                            x       y       z     vdW  Elec       q    Type
REMARK                         _______ _______ _______ _____ _____    ______ ____
ROOT
ATOM      1  C   UNL     1       3.176  -2.260  -1.954  0.00  0.00    +0.259 C 
ATOM      2  O   UNL     1       3.635  -1.343  -2.602  0.00  0.00    -0.271 OA
ATOM      3  N   UNL     1       2.791  -3.394  -2.571  0.00  0.00    -0.266 N 
ATOM      4  C   UNL     1       2.922  -3.515  -3.962  0.00  0.00    +0.147 A 
ATOM      5  C   UNL     1       3.440  -2.540  -4.829  0.00  0.00    +0.064 A 
ATOM      6  C   UNL     1       3.397  -3.038  -6.086  0.00  0.00    +0.107 A 
ATOM      7  N   UNL     1       2.872  -4.280  -6.022  0.00  0.00    -0.283 N 
ATOM      8  H   UNL     1       2.723  -4.875  -6.773  0.00  0.00    +0.188 HD
ATOM      9  N   UNL     1       2.587  -4.561  -4.679  0.00  0.00    -0.159 NA
ATOM     10  H   UNL     1       2.424  -4.128  -2.053  0.00  0.00    +0.156 HD
ENDROOT
BRANCH   1  18
ATOM     11  C   UNL     1      -0.017   1.379   0.010  0.00  0.00    +0.000 A 
ATOM     12  C   UNL     1       1.174   2.082   0.002  0.00  0.00    +0.004 A 
ATOM     13  C   UNL     1       2.379   1.411  -0.009  0.00  0.00    +0.046 A 
ATOM     14  C   UNL     1       2.407   0.019  -0.014  0.00  0.00    +0.125 A 
ATOM     15  C   UNL     1       1.204  -0.676  -0.014  0.00  0.00    -0.002 A 
ATOM     16  C   UNL     1       0.002  -0.004   0.002  0.00  0.00    +0.007 A 
ATOM     17  C   UNL     1       1.545  -2.154  -0.045  0.00  0.00    +0.093 C 
ATOM     18  C   UNL     1       3.035  -2.130  -0.460  0.00  0.00    +0.263 C 
ATOM     19  O   UNL     1       3.469  -0.834  -0.014  0.00  0.00    -0.479 OA
ENDBRANCH   1  18
TORSDOF 1
