REMARK  Name = ZINC64137849
REMARK  8 active torsions:
REMARK  status: ('A' for Active; 'I' for Inactive)
REMARK    1  A    between atoms: C_4  and  N_7
REMARK    2  A    between atoms: C_8  and  S_16
REMARK    3  A    between atoms: C_12  and  C_13
REMARK    4  A    between atoms: S_16  and  C_17
REMARK    5  A    between atoms: C_17  and  C_18
REMARK    6  A    between atoms: N_20  and  C_21
REMARK    7  A    between atoms: C_21  and  C_22
REMARK    8  A    between atoms: C_22  and  C_23
REMARK                            x       y       z     vdW  Elec       q    Type
REMARK                         _______ _______ _______ _____ _____    ______ ____
ROOT
ATOM      1  C   UNL     1       5.042  -0.620  -3.012  0.00  0.00    +0.168 C 
ENDROOT
BRANCH   1   2
ATOM      2  C   UNL     1       5.242  -0.091  -4.409  0.00  0.00    +0.223 C 
ATOM      3  O   UNL     1       5.483   1.085  -4.583  0.00  0.00    -0.275 OA
ATOM      4  N   UNL     1       5.151  -0.924  -5.464  0.00  0.00    -0.314 N 
ATOM      5  H   UNL     1       4.958  -1.865  -5.324  0.00  0.00    +0.149 HD
BRANCH   4   6
ATOM      6  C   UNL     1       5.345  -0.410  -6.822  0.00  0.00    +0.108 C 
BRANCH   6   7
ATOM      7  C   UNL     1       5.191  -1.553  -7.827  0.00  0.00    +0.052 C 
BRANCH   7   8
ATOM      8  C   UNL     1       5.390  -1.024  -9.224  0.00  0.00    -0.040 C 
ATOM      9  C   UNL     1       6.536  -1.036  -9.942  0.00  0.00    -0.001 A 
ATOM     10  C   UNL     1       7.889  -1.525  -9.649  0.00  0.00    +0.010 A 
ATOM     11  C   UNL     1       8.852  -1.393 -10.588  0.00  0.00    +0.001 A 
ATOM     12  C   UNL     1       8.592  -0.803 -11.833  0.00  0.00    +0.002 A 
ATOM     13  C   UNL     1       7.375  -0.331 -12.176  0.00  0.00    +0.026 A 
ATOM     14  C   UNL     1       6.288  -0.417 -11.264  0.00  0.00    +0.043 A 
ATOM     15  N   UNL     1       5.036  -0.038 -11.359  0.00  0.00    -0.380 N 
ATOM     16  C   UNL     1       4.348  -0.379 -10.109  0.00  0.00    +0.144 C 
ATOM     17  H   UNL     1       4.632   0.393 -12.129  0.00  0.00    +0.160 HD
ENDBRANCH   7   8
ENDBRANCH   6   7
ENDBRANCH   4   6
ENDBRANCH   1   2
BRANCH   1  18
ATOM     18  S   UNL     1       5.225   0.736  -1.820  0.00  0.00    -0.108 S 
BRANCH  18  20
ATOM     19  N   UNL     1       3.618  -0.661  -0.145  0.00  0.00    -0.258 N 
ATOM     20  C   UNL     1       4.960  -0.057  -0.210  0.00  0.00    +0.241 C 
ATOM     21  N   UNL     1       5.869  -1.203  -0.038  0.00  0.00    -0.237 N 
ATOM     22  N   UNL     1       5.050  -2.330   0.107  0.00  0.00    -0.173 NA
ATOM     23  C   UNL     1       3.806  -2.020   0.051  0.00  0.00    +0.125 C 
ATOM     24  H   UNL     1       6.838  -1.182  -0.027  0.00  0.00    +0.171 HD
BRANCH  19  28
ATOM     25  C   UNL     1      -0.026   1.328  -0.471  0.00  0.00    +0.000 A 
ATOM     26  C   UNL     1       0.795   1.566   0.616  0.00  0.00    +0.002 A 
ATOM     27  C   UNL     1       2.004   0.908   0.727  0.00  0.00    +0.023 A 
ATOM     28  C   UNL     1       2.395   0.006  -0.255  0.00  0.00    +0.037 A 
ATOM     29  C   UNL     1       1.568  -0.231  -1.345  0.00  0.00    +0.023 A 
ATOM     30  C   UNL     1       0.360   0.430  -1.450  0.00  0.00    +0.002 A 
ENDBRANCH  19  28
BRANCH  23  31
ATOM     31  C   UNL     1       2.683  -3.017   0.181  0.00  0.00    +0.055 C 
ATOM     32  C   UNL     1       2.806  -4.082   1.273  0.00  0.00    +0.012 C 
ATOM     33  C   UNL     1       2.980  -4.469  -0.197  0.00  0.00    +0.012 C 
ENDBRANCH  23  31
ENDBRANCH  18  20
ENDBRANCH   1  18
TORSDOF 8
