REMARK  Name = ZINC38611434
REMARK  9 active torsions:
REMARK  status: ('A' for Active; 'I' for Inactive)
REMARK    1  A    between atoms: C_1  and  C_2
REMARK    2  A    between atoms: C_4  and  C_16
REMARK    3  A    between atoms: C_6  and  C_14
REMARK    4  A    between atoms: C_7  and  N_13
REMARK    5  A    between atoms: C_18  and  O_32
REMARK    6  A    between atoms: C_19  and  O_23
REMARK    7  A    between atoms: O_23  and  C_24
REMARK    8  A    between atoms: C_24  and  C_25
REMARK    9  A    between atoms: O_32  and  C_33
REMARK                            x       y       z     vdW  Elec       q    Type
REMARK                         _______ _______ _______ _____ _____    ______ ____
ROOT
ATOM      1  C   UNL     1      -3.212  -0.572  -1.199  0.00  0.00    -0.030 A 
ATOM      2  C   UNL     1      -3.869   0.535  -1.707  0.00  0.00    +0.054 A 
ATOM      3  C   UNL     1      -4.491   0.465  -2.942  0.00  0.00    +0.163 A 
ATOM      4  C   UNL     1      -4.455  -0.720  -3.671  0.00  0.00    +0.176 A 
ATOM      5  C   UNL     1      -3.795  -1.826  -3.157  0.00  0.00    +0.063 A 
ATOM      6  C   UNL     1      -3.171  -1.747  -1.924  0.00  0.00    +0.023 A 
ATOM      7 BR   UNL     1      -3.742  -3.438  -4.143  0.00  0.00    -0.046 Br
ENDROOT
BRANCH   1  11
ATOM      8  C   UNL     1      -0.018   1.503   0.010  0.00  0.00    +0.067 C 
ATOM      9  C   UNL     1       0.002  -0.004   0.002  0.00  0.00    +0.066 C 
ATOM     10  C   UNL     1      -1.064  -0.768   0.003  0.00  0.00    +0.030 C 
ATOM     11  C   UNL     1      -2.536  -0.493   0.145  0.00  0.00    +0.098 C 
ATOM     12  C   UNL     1      -3.065  -1.577   1.066  0.00  0.00    +0.097 C 
ATOM     13  C   UNL     1      -2.303  -2.628   1.436  0.00  0.00    +0.195 C 
ATOM     14  O   UNL     1      -1.023  -2.853   1.091  0.00  0.00    -0.448 OA
ATOM     15  C   UNL     1      -0.529  -2.198  -0.081  0.00  0.00    +0.343 C 
ATOM     16  N   UNL     1       0.921  -1.985  -0.028  0.00  0.00    -0.138 NA
ATOM     17  N   UNL     1       1.127  -0.765  -0.013  0.00  0.00    -0.155 NA
BRANCH  13  18
ATOM     18  N   UNL     1      -2.896  -3.562   2.247  0.00  0.00    -0.329 N 
ATOM     19  H   UNL     1      -3.818  -3.448   2.526  0.00  0.00    +0.145 HD
ATOM     20  H   UNL     1      -2.393  -4.337   2.542  0.00  0.00    +0.145 HD
ENDBRANCH  13  18
BRANCH  12  21
ATOM     21  C   UNL     1      -4.407  -1.482   1.556  0.00  0.00    +0.101 C 
ATOM     22  N   UNL     1      -5.472  -1.407   1.944  0.00  0.00    -0.191 NA
ENDBRANCH  12  21
ENDBRANCH   1  11
BRANCH   3  23
ATOM     23  O   UNL     1      -5.138   1.552  -3.442  0.00  0.00    -0.491 OA
ATOM     24  C   UNL     1      -5.135   2.734  -2.639  0.00  0.00    +0.277 C 
ENDBRANCH   3  23
BRANCH   4  25
ATOM     25  O   UNL     1      -5.065  -0.794  -4.884  0.00  0.00    -0.483 OA
BRANCH  25  26
ATOM     26  C   UNL     1      -4.280  -0.449  -6.027  0.00  0.00    +0.264 C 
BRANCH  26  27
ATOM     27  C   UNL     1      -5.117  -0.589  -7.272  0.00  0.00    -0.010 A 
ATOM     28  C   UNL     1      -5.158  -1.795  -7.946  0.00  0.00    +0.008 A 
ATOM     29  C   UNL     1      -5.926  -1.924  -9.088  0.00  0.00    +0.020 A 
ATOM     30  C   UNL     1      -6.654  -0.845  -9.557  0.00  0.00    +0.041 A 
ATOM     31  C   UNL     1      -6.612   0.362  -8.883  0.00  0.00    +0.020 A 
ATOM     32  C   UNL     1      -5.849   0.488  -7.737  0.00  0.00    +0.008 A 
ATOM     33 CL   UNL     1      -7.618  -1.006 -10.992  0.00  0.00    -0.084 Cl
ENDBRANCH  26  27
ENDBRANCH  25  26
ENDBRANCH   4  25
TORSDOF 7
