REMARK  Name = ZINC63853108
REMARK  4 active torsions:
REMARK  status: ('A' for Active; 'I' for Inactive)
REMARK    1  A    between atoms: C_1  and  C_2
REMARK    2  A    between atoms: C_3  and  C_22
REMARK    3  A    between atoms: C_7  and  N_8
REMARK    4  A    between atoms: C_9  and  C_11
REMARK                            x       y       z     vdW  Elec       q    Type
REMARK                         _______ _______ _______ _____ _____    ______ ____
ROOT
ATOM      1  N   UNL     1       0.030  -0.395   2.429  0.00  0.00    -0.270 N 
ATOM      2  C   UNL     1       0.052  -1.307   3.420  0.00  0.00    +0.225 C 
ATOM      3  O   UNL     1       0.066  -2.491   3.155  0.00  0.00    -0.275 OA
ATOM      4  H   UNL     1       0.018   0.552   2.640  0.00  0.00    +0.156 HD
ENDROOT
BRANCH   2   5
ATOM      5  C   UNL     1       0.058  -0.857   4.858  0.00  0.00    +0.117 C 
ATOM      6  C   UNL     1       0.113  -2.077   5.781  0.00  0.00    +0.055 C 
ATOM      7  C   UNL     1       0.417  -1.635   7.190  0.00  0.00    -0.004 A 
ATOM      8  C   UNL     1       0.146  -2.504   8.234  0.00  0.00    +0.027 A 
ATOM      9  C   UNL     1       0.415  -2.134   9.538  0.00  0.00    +0.041 A 
ATOM     10  C   UNL     1       0.958  -0.889   9.804  0.00  0.00    +0.023 A 
ATOM     11  C   UNL     1       1.228  -0.019   8.768  0.00  0.00    +0.047 A 
ATOM     12  C   UNL     1       0.956  -0.388   7.454  0.00  0.00    +0.124 A 
ATOM     13  O   UNL     1       1.226   0.500   6.462  0.00  0.00    -0.491 OA
ATOM     14  C   UNL     1       1.300   0.004   5.125  0.00  0.00    +0.242 C 
ATOM     15 CL   UNL     1       0.072  -3.228  10.840  0.00  0.00    -0.084 Cl
ENDBRANCH   2   5
BRANCH   1  22
ATOM     16  C   UNL     1      -0.018   1.503   0.010  0.00  0.00    +0.049 C 
ATOM     17  C   UNL     1       0.002  -0.004   0.002  0.00  0.00    +0.021 A 
ATOM     18  C   UNL     1       0.009  -0.821  -1.132  0.00  0.00    +0.170 A 
ATOM     19  N   UNL     1       0.028  -2.069  -0.740  0.00  0.00    -0.168 NA
ATOM     20  N   UNL     1       0.034  -2.092   0.661  0.00  0.00    -0.263 N 
ATOM     21  H   UNL     1       0.048  -2.885   1.219  0.00  0.00    +0.190 HD
ATOM     22  C   UNL     1       0.023  -0.812   1.097  0.00  0.00    +0.124 A 
BRANCH  18  23
ATOM     23  C   UNL     1      -0.005  -0.346  -2.562  0.00  0.00    +0.436 C 
ATOM     24  F   UNL     1       1.310  -0.180  -3.010  0.00  0.00    -0.164 F 
ATOM     25  F   UNL     1      -0.655  -1.292  -3.362  0.00  0.00    -0.164 F 
ATOM     26  F   UNL     1      -0.682   0.876  -2.641  0.00  0.00    -0.164 F 
ENDBRANCH  18  23
ENDBRANCH   1  22
TORSDOF 3
