REMARK  Name = ZINC05334186
REMARK  7 active torsions:
REMARK  status: ('A' for Active; 'I' for Inactive)
REMARK    1  A    between atoms: C_1  and  C_2
REMARK    2  A    between atoms: C_5  and  N_9
REMARK    3  A    between atoms: C_7  and  C_8
REMARK    4  A    between atoms: C_13  and  N_14
REMARK    5  A    between atoms: N_14  and  C_15
REMARK    6  A    between atoms: C_20  and  O_21
REMARK    7  A    between atoms: C_22  and  C_24
REMARK                            x       y       z     vdW  Elec       q    Type
REMARK                         _______ _______ _______ _____ _____    ______ ____
ROOT
ATOM      1  N   UNL     1       0.058  -4.171  -0.021  0.00  0.00    -0.156 N 
ATOM      2  C   UNL     1       0.068  -4.937  -1.130  0.00  0.00    +0.273 C 
ATOM      3  O   UNL     1       0.063  -4.553  -2.288  0.00  0.00    -0.268 OA
ATOM      4  C   UNL     1       0.087  -6.329  -0.663  0.00  0.00    +0.075 C 
ATOM      5  C   UNL     1       0.102  -7.478  -1.435  0.00  0.00    +0.087 C 
ATOM      6  C   UNL     1       0.086  -6.236   0.805  0.00  0.00    +0.070 C 
ATOM      7  N   UNL     1       0.075  -4.976   1.118  0.00  0.00    -0.176 NA
ATOM      8  C   UNL     1       0.101  -7.393   1.770  0.00  0.00    +0.068 C 
ENDROOT
BRANCH   1  13
ATOM      9  C   UNL     1      -0.018   1.503   0.010  0.00  0.00    +0.044 C 
ATOM     10  C   UNL     1       0.002  -0.004   0.002  0.00  0.00    -0.047 A 
ATOM     11  C   UNL     1       0.006  -0.688  -1.200  0.00  0.00    +0.005 A 
ATOM     12  C   UNL     1       0.024  -2.068  -1.211  0.00  0.00    +0.026 A 
ATOM     13  C   UNL     1       0.040  -2.771  -0.013  0.00  0.00    +0.061 A 
ATOM     14  C   UNL     1       0.036  -2.082   1.192  0.00  0.00    +0.029 A 
ATOM     15  C   UNL     1       0.023  -0.700   1.196  0.00  0.00    -0.046 A 
ATOM     16  C   UNL     1       0.025   0.049   2.504  0.00  0.00    +0.044 C 
ENDBRANCH   1  13
BRANCH   5  17
ATOM     17  N   UNL     1       0.101  -7.386  -2.781  0.00  0.00    -0.317 N 
ATOM     18  H   UNL     1       0.090  -6.515  -3.208  0.00  0.00    +0.152 HD
BRANCH  17  19
ATOM     19  C   UNL     1       0.117  -8.548  -3.562  0.00  0.00    +0.073 A 
ATOM     20  C   UNL     1       0.129  -9.795  -2.953  0.00  0.00    +0.027 A 
ATOM     21  C   UNL     1       0.144 -10.940  -3.726  0.00  0.00    +0.002 A 
ATOM     22  C   UNL     1       0.148 -10.847  -5.106  0.00  0.00    +0.004 A 
ATOM     23  C   UNL     1       0.138  -9.608  -5.719  0.00  0.00    +0.047 A 
ATOM     24  C   UNL     1       0.116  -8.455  -4.952  0.00  0.00    +0.138 A 
BRANCH  24  25
ATOM     25  O   UNL     1       0.100  -7.236  -5.554  0.00  0.00    -0.505 OA
ATOM     26  H   UNL     1       0.979  -6.872  -5.728  0.00  0.00    +0.292 HD
ENDBRANCH  24  25
ENDBRANCH  17  19
ENDBRANCH   5  17
TORSDOF 4
