REMARK  Name = ZINC24002357
REMARK  13 active torsions:
REMARK  status: ('A' for Active; 'I' for Inactive)
REMARK    1  A    between atoms: C_1  and  C_2
REMARK    2  A    between atoms: C_2  and  C_3
REMARK    3  A    between atoms: C_7  and  C_35
REMARK    4  A    between atoms: C_8  and  N_9
REMARK    5  A    between atoms: C_13  and  S_15
REMARK    6  A    between atoms: S_15  and  C_16
REMARK    7  A    between atoms: C_16  and  C_17
REMARK    8  A    between atoms: C_18  and  C_30
REMARK    9  A    between atoms: C_19  and  C_25
REMARK   10  A    between atoms: C_30  and  O_32
REMARK   11  A    between atoms: O_32  and  C_33
REMARK   12  A    between atoms: C_33  and  C_34
REMARK   13  A    between atoms: C_35  and  C_36
REMARK                            x       y       z     vdW  Elec       q    Type
REMARK                         _______ _______ _______ _____ _____    ______ ____
ROOT
ATOM      1  C   UNL     1      10.148  -9.008   5.732  0.00  0.00    +0.127 C 
ENDROOT
BRANCH   1   2
ATOM      2  C   UNL     1      11.181  -9.277   4.668  0.00  0.00    +0.034 C 
ATOM      3  C   UNL     1      12.351  -9.857   5.010  0.00  0.00    +0.082 C 
ATOM      4  C   UNL     1      13.361 -10.111   3.909  0.00  0.00    +0.179 C 
ATOM      5  N   UNL     1      12.980  -9.701   2.547  0.00  0.00    -0.285 N 
ATOM      6  C   UNL     1      11.772  -9.133   2.362  0.00  0.00    +0.304 C 
ATOM      7  O   UNL     1      11.448  -8.791   1.242  0.00  0.00    -0.252 OA
ATOM      8  N   UNL     1      10.917  -8.932   3.373  0.00  0.00    -0.272 N 
ATOM      9  H   UNL     1      13.675  -9.862   1.710  0.00  0.00    +0.151 HD
ATOM     10  H   UNL     1       9.957  -8.462   3.114  0.00  0.00    +0.156 HD
BRANCH   4  11
ATOM     11  C   UNL     1      13.660 -11.588   3.884  0.00  0.00    +0.130 A 
ATOM     12  C   UNL     1      14.662 -12.199   4.541  0.00  0.00    +0.047 A 
ATOM     13  C   UNL     1      14.571 -13.576   4.236  0.00  0.00    +0.041 A 
ATOM     14  C   UNL     1      13.520 -13.725   3.410  0.00  0.00    +0.195 A 
ATOM     15  O   UNL     1      12.972 -12.517   3.200  0.00  0.00    -0.466 OA
ENDBRANCH   4  11
BRANCH   3  16
ATOM     16  C   UNL     1      12.626 -10.216   6.351  0.00  0.00    +0.339 C 
ATOM     17  O   UNL     1      11.862  -9.883   7.238  0.00  0.00    -0.245 OA
BRANCH  16  18
ATOM     18  O   UNL     1      13.734 -10.927   6.646  0.00  0.00    -0.462 OA
BRANCH  18  19
ATOM     19  C   UNL     1      13.948 -11.254   8.020  0.00  0.00    +0.229 C 
ATOM     20  C   UNL     1      15.244 -12.056   8.158  0.00  0.00    +0.048 C 
ENDBRANCH  18  19
ENDBRANCH  16  18
ENDBRANCH   3  16
ENDBRANCH   1   2
BRANCH   1  21
ATOM     21  S   UNL     1      10.383  -7.334   6.391  0.00  0.00    -0.091 S 
BRANCH  21  26
ATOM     22  N   UNL     1       6.550  -5.983  10.526  0.00  0.00    -0.292 N 
ATOM     23  C   UNL     1       7.353  -6.522   9.527  0.00  0.00    +0.187 A 
ATOM     24  N   UNL     1       7.295  -7.711   8.960  0.00  0.00    -0.125 NA
ATOM     25  N   UNL     1       8.198  -8.045   7.977  0.00  0.00    -0.133 NA
ATOM     26  C   UNL     1       9.118  -7.174   7.607  0.00  0.00    +0.160 A 
ATOM     27  S   UNL     1       8.741  -5.791   8.673  0.00  0.00    -0.024 S 
ATOM     28  H   UNL     1       6.731  -4.959  10.885  0.00  0.00    +0.154 HD
BRANCH  22  34
ATOM     29  C   UNL     1       4.275  -6.787  10.447  0.00  0.00    -0.026 A 
ATOM     30  C   UNL     1       3.253  -7.541  10.990  0.00  0.00    +0.005 A 
ATOM     31  C   UNL     1       3.460  -8.245  12.163  0.00  0.00    +0.001 A 
ATOM     32  C   UNL     1       4.690  -8.199  12.793  0.00  0.00    +0.005 A 
ATOM     33  C   UNL     1       5.717  -7.450  12.253  0.00  0.00    -0.026 A 
ATOM     34  C   UNL     1       5.513  -6.742  11.075  0.00  0.00    +0.039 A 
BRANCH  29  36
ATOM     35  C   UNL     1       2.579  -6.132   8.761  0.00  0.00    +0.009 C 
ATOM     36  C   UNL     1       4.048  -6.016   9.172  0.00  0.00    +0.033 C 
ENDBRANCH  29  36
BRANCH  33  37
ATOM     37  C   UNL     1       7.056  -7.399  12.942  0.00  0.00    +0.033 C 
ATOM     38  C   UNL     1       7.120  -6.166  13.844  0.00  0.00    +0.009 C 
ENDBRANCH  33  37
ENDBRANCH  22  34
ENDBRANCH  21  26
ENDBRANCH   1  21
TORSDOF 10
