REMARK  Name = ZINC08644469
REMARK  9 active torsions:
REMARK  status: ('A' for Active; 'I' for Inactive)
REMARK    1  A    between atoms: C_1  and  O_2
REMARK    2  A    between atoms: O_2  and  C_3
REMARK    3  A    between atoms: C_3  and  C_5
REMARK    4  A    between atoms: C_9  and  N_10
REMARK    5  A    between atoms: C_11  and  C_13
REMARK    6  A    between atoms: C_13  and  S_14
REMARK    7  A    between atoms: S_14  and  C_15
REMARK    8  A    between atoms: C_18  and  C_21
REMARK    9  A    between atoms: N_19  and  N_20
REMARK                            x       y       z     vdW  Elec       q    Type
REMARK                         _______ _______ _______ _____ _____    ______ ____
ROOT
ATOM      1  C   UNL     1      -0.026  -1.932  -3.593  0.00  0.00    +0.173 C 
ENDROOT
BRANCH   1   3
ATOM      2  N   UNL     1      -0.048  -2.814  -5.904  0.00  0.00    -0.279 N 
ATOM      3  C   UNL     1      -0.051  -1.741  -5.087  0.00  0.00    +0.228 C 
ATOM      4  O   UNL     1      -0.073  -0.623  -5.556  0.00  0.00    -0.275 OA
ATOM      5  H   UNL     1      -0.030  -3.708  -5.529  0.00  0.00    +0.155 HD
BRANCH   2  10
ATOM      6  C   UNL     1      -0.067  -3.606  -8.270  0.00  0.00    +0.091 A 
ATOM      7  C   UNL     1      -0.100  -3.150  -9.660  0.00  0.00    -0.021 A 
ATOM      8  C   UNL     1      -0.121  -1.815  -9.823  0.00  0.00    -0.004 A 
ATOM      9  S   UNL     1      -0.104  -1.157  -8.173  0.00  0.00    -0.077 S 
ATOM     10  C   UNL     1      -0.071  -2.638  -7.278  0.00  0.00    +0.086 A 
ATOM     11  C   UNL     1      -0.151  -1.425 -11.276  0.00  0.00    +0.043 C 
ATOM     12  C   UNL     1      -0.583  -2.711 -12.015  0.00  0.00    +0.010 C 
ATOM     13  C   UNL     1      -0.110  -3.807 -11.041  0.00  0.00    +0.037 C 
BRANCH   6  14
ATOM     14  C   UNL     1      -0.036  -5.032  -7.939  0.00  0.00    +0.342 C 
ATOM     15  O   UNL     1      -1.077  -5.644  -7.787  0.00  0.00    -0.245 OA
BRANCH  14  17
ATOM     16  C   UNL     1       1.101  -7.080  -7.474  0.00  0.00    +0.280 C 
ATOM     17  O   UNL     1       1.146  -5.667  -7.803  0.00  0.00    -0.464 OA
ENDBRANCH  14  17
ENDBRANCH   6  14
ENDBRANCH   2  10
ENDBRANCH   1   3
BRANCH   1  18
ATOM     18  S   UNL     1      -0.035  -0.316  -2.778  0.00  0.00    -0.075 S 
BRANCH  18  19
ATOM     19  C   UNL     1      -0.003  -0.824  -1.091  0.00  0.00    +0.209 A 
ATOM     20  N   UNL     1       0.023  -2.061  -0.649  0.00  0.00    -0.121 NA
ATOM     21  N   UNL     1       0.035  -2.071   0.635  0.00  0.00    -0.127 NA
ATOM     22  C   UNL     1       0.024  -0.841   1.094  0.00  0.00    +0.183 A 
ATOM     23  N   UNL     1       0.002  -0.004   0.002  0.00  0.00    -0.224 N 
BRANCH  22  24
ATOM     24  C   UNL     1       0.033  -0.432   2.514  0.00  0.00    +0.039 A 
ATOM     25  C   UNL     1       0.025   0.921   2.854  0.00  0.00    +0.014 A 
ATOM     26  C   UNL     1       0.029   1.297   4.181  0.00  0.00    +0.021 A 
ATOM     27  C   UNL     1       0.051   0.334   5.176  0.00  0.00    +0.042 A 
ATOM     28  C   UNL     1       0.064  -1.011   4.847  0.00  0.00    +0.040 A 
ATOM     29  C   UNL     1       0.056  -1.399   3.522  0.00  0.00    +0.053 A 
ATOM     30 CL   UNL     1       0.073  -3.086   3.110  0.00  0.00    -0.083 Cl
ATOM     31 CL   UNL     1       0.062   0.815   6.845  0.00  0.00    -0.083 Cl
ENDBRANCH  22  24
BRANCH  23  32
ATOM     32  N   UNL     1      -0.016   1.362   0.009  0.00  0.00    -0.295 N 
ATOM     33  H   UNL     1       0.920   1.736   0.003  0.00  0.00    +0.163 HD
ATOM     34  H   UNL     1      -0.555   1.720  -0.765  0.00  0.00    +0.163 HD
ENDBRANCH  23  32
ENDBRANCH  18  19
ENDBRANCH   1  18
TORSDOF 8
