REMARK  Name = ZINC24537558
REMARK  10 active torsions:
REMARK  status: ('A' for Active; 'I' for Inactive)
REMARK    1  A    between atoms: C_1  and  C_2
REMARK    2  A    between atoms: C_6  and  C_30
REMARK    3  A    between atoms: C_7  and  C_13
REMARK    4  A    between atoms: C_13  and  C_14
REMARK    5  A    between atoms: C_14  and  C_15
REMARK    6  A    between atoms: N_17  and  C_18
REMARK    7  A    between atoms: C_21  and  C_29
REMARK    8  A    between atoms: C_22  and  S_24
REMARK    9  A    between atoms: S_24  and  N_27
REMARK   10  A    between atoms: N_27  and  C_28
REMARK                            x       y       z     vdW  Elec       q    Type
REMARK                         _______ _______ _______ _____ _____    ______ ____
ROOT
ATOM      1  C   UNL     1      -3.856   3.633  -0.562  0.00  0.00    +0.218 C 
ATOM      2  O   UNL     1      -3.736   2.442  -0.758  0.00  0.00    -0.275 OA
ATOM      3  N   UNL     1      -2.763   4.416  -0.478  0.00  0.00    -0.285 N 
ATOM      4  H   UNL     1      -2.873   5.506  -0.377  0.00  0.00    +0.155 HD
ENDROOT
BRANCH   3   5
ATOM      5  C   UNL     1      -1.487   3.843  -0.520  0.00  0.00    +0.035 A 
ATOM      6  C   UNL     1      -1.248   2.734  -1.321  0.00  0.00    +0.023 A 
ATOM      7  C   UNL     1       0.011   2.167  -1.355  0.00  0.00    +0.007 A 
ATOM      8  C   UNL     1       1.036   2.709  -0.601  0.00  0.00    -0.024 A 
ATOM      9  C   UNL     1       0.802   3.817   0.193  0.00  0.00    +0.110 A 
ATOM     10  C   UNL     1      -0.456   4.385   0.235  0.00  0.00    +0.052 A 
ATOM     11  C   UNL     1       2.409   2.091  -0.645  0.00  0.00    +0.046 C 
BRANCH   9  12
ATOM     12  S   UNL     1       2.112   4.504   1.151  0.00  0.00    +0.058 S 
ATOM     13  O   UNL     1       1.587   5.662   1.784  0.00  0.00    -0.153 OA
ATOM     14  O   UNL     1       2.687   3.430   1.882  0.00  0.00    -0.153 OA
BRANCH  12  15
ATOM     15  N   UNL     1       3.271   5.029   0.091  0.00  0.00    -0.193 NA
ATOM     16  C   UNL     1       2.981   6.139  -0.821  0.00  0.00    +0.127 C 
ATOM     17  H   UNL     1       4.190   4.439  -0.036  0.00  0.00    +0.148 HD
ENDBRANCH  12  15
ENDBRANCH   9  12
ENDBRANCH   3   5
BRANCH   1  18
ATOM     18  C   UNL     1      -5.229   4.237  -0.413  0.00  0.00    +0.101 C 
BRANCH  18  19
ATOM     19  C   UNL     1      -6.287   3.140  -0.549  0.00  0.00    +0.052 C 
BRANCH  19  26
ATOM     20  C   UNL     1     -13.534   6.460  -0.675  0.00  0.00    +0.044 C 
ATOM     21  C   UNL     1     -12.165   5.866  -0.887  0.00  0.00    -0.047 A 
ATOM     22  C   UNL     1     -11.633   5.807  -2.167  0.00  0.00    +0.004 A 
ATOM     23  C   UNL     1     -10.393   5.272  -2.379  0.00  0.00    +0.012 A 
ATOM     24  C   UNL     1      -9.656   4.782  -1.297  0.00  0.00    +0.021 A 
ATOM     25  C   UNL     1      -8.323   4.202  -1.491  0.00  0.00    -0.030 A 
ATOM     26  C   UNL     1      -7.659   3.744  -0.400  0.00  0.00    +0.041 A 
ATOM     27  C   UNL     1      -8.261   3.829   0.875  0.00  0.00    +0.341 A 
ATOM     28  O   UNL     1      -7.657   3.409   1.845  0.00  0.00    -0.245 OA
ATOM     29  O   UNL     1      -9.479   4.365   1.045  0.00  0.00    -0.422 OA
ATOM     30  C   UNL     1     -10.192   4.840   0.001  0.00  0.00    +0.140 A 
ATOM     31  C   UNL     1     -11.454   5.388   0.193  0.00  0.00    +0.050 A 
ATOM     32  C   UNL     1      -7.708   4.118  -2.864  0.00  0.00    +0.045 C 
ENDBRANCH  19  26
ENDBRANCH  18  19
ENDBRANCH   1  18
TORSDOF 6
