REMARK  Name = ZINC10471850
REMARK  11 active torsions:
REMARK  status: ('A' for Active; 'I' for Inactive)
REMARK    1  A    between atoms: C_1  and  C_2
REMARK    2  A    between atoms: C_2  and  C_3
REMARK    3  A    between atoms: C_2  and  O_4
REMARK    4  A    between atoms: O_4  and  C_5
REMARK    5  A    between atoms: C_9  and  C_11
REMARK    6  A    between atoms: N_13  and  C_14
REMARK    7  A    between atoms: C_14  and  N_16
REMARK    8  A    between atoms: N_16  and  N_17
REMARK    9  A    between atoms: C_18  and  C_20
REMARK   10  A    between atoms: C_20  and  O_21
REMARK   11  A    between atoms: O_21  and  C_22
REMARK                            x       y       z     vdW  Elec       q    Type
REMARK                         _______ _______ _______ _____ _____    ______ ____
ROOT
ATOM      1  N   UNL     1       2.988  11.634  -0.621  0.00  0.00    -0.245 N 
ATOM      2  H   UNL     1       2.094  11.983  -0.763  0.00  0.00    +0.172 HD
ENDROOT
BRANCH   1   3
ATOM      3  N   UNL     1       3.179  10.263  -0.407  0.00  0.00    -0.232 N 
ATOM      4  C   UNL     1       2.120   9.429  -0.398  0.00  0.00    +0.267 C 
ATOM      5  O   UNL     1       1.003   9.865  -0.575  0.00  0.00    -0.271 OA
ATOM      6  H   UNL     1       4.072   9.914  -0.265  0.00  0.00    +0.173 HD
BRANCH   4   7
ATOM      7  C   UNL     1       2.325   7.954  -0.168  0.00  0.00    +0.326 C 
BRANCH   7   8
ATOM      8  O   UNL     1       1.062   7.286  -0.203  0.00  0.00    -0.482 OA
BRANCH   8   9
ATOM      9  C   UNL     1       1.070   5.940  -0.012  0.00  0.00    +0.136 A 
ATOM     10  C   UNL     1       2.283   5.282   0.206  0.00  0.00    +0.047 A 
ATOM     11  C   UNL     1       2.324   3.936   0.402  0.00  0.00    +0.012 A 
ATOM     12  C   UNL     1       1.130   3.193   0.384  0.00  0.00    -0.017 A 
ATOM     13  C   UNL     1       1.136   1.802   0.581  0.00  0.00    +0.008 A 
ATOM     14  C   UNL     1      -0.038   1.113   0.557  0.00  0.00    +0.001 A 
ATOM     15  C   UNL     1      -1.249   1.766   0.334  0.00  0.00    +0.001 A 
ATOM     16  C   UNL     1      -1.294   3.113   0.145  0.00  0.00    +0.010 A 
ATOM     17  C   UNL     1      -0.102   3.858   0.163  0.00  0.00    -0.000 A 
ATOM     18  C   UNL     1      -0.109   5.249  -0.035  0.00  0.00    +0.067 A 
ATOM     19 BR   UNL     1      -1.739   6.159  -0.333  0.00  0.00    -0.046 Br
ENDBRANCH   8   9
ENDBRANCH   7   8
ENDBRANCH   4   7
ENDBRANCH   1   3
BRANCH   1  20
ATOM     20  C   UNL     1       4.047  12.468  -0.630  0.00  0.00    +0.153 C 
ATOM     21  S   UNL     1       3.814  14.144  -0.892  0.00  0.00    -0.017 S 
BRANCH  20  24
ATOM     22  C   UNL     1       6.347  12.817  -0.442  0.00  0.00    +0.250 C 
ATOM     23  O   UNL     1       6.182  14.007  -0.628  0.00  0.00    -0.270 OA
ATOM     24  N   UNL     1       5.289  11.983  -0.433  0.00  0.00    -0.263 N 
ATOM     25  H   UNL     1       5.421  11.034  -0.285  0.00  0.00    +0.157 HD
BRANCH  22  30
ATOM     26  C   UNL     1      10.080  12.641  -0.032  0.00  0.00    +0.122 A 
ATOM     27  C   UNL     1      10.261  11.281   0.180  0.00  0.00    +0.046 A 
ATOM     28  C   UNL     1       9.175  10.426   0.189  0.00  0.00    +0.004 A 
ATOM     29  C   UNL     1       7.901  10.920  -0.007  0.00  0.00    +0.013 A 
ATOM     30  C   UNL     1       7.709  12.285  -0.226  0.00  0.00    +0.041 A 
ATOM     31  C   UNL     1       8.807  13.147  -0.235  0.00  0.00    +0.058 A 
BRANCH  26  32
ATOM     32  O   UNL     1      11.152  13.476  -0.040  0.00  0.00    -0.489 OA
BRANCH  32  34
ATOM     33  C   UNL     1      13.487  13.803  -0.569  0.00  0.00    +0.051 C 
ATOM     34  C   UNL     1      12.444  12.874   0.056  0.00  0.00    +0.167 C 
ATOM     35  C   UNL     1      12.789  12.637   1.528  0.00  0.00    +0.051 C 
ENDBRANCH  32  34
ENDBRANCH  26  32
ENDBRANCH  22  30
ENDBRANCH  20  24
ENDBRANCH   1  20
TORSDOF 9
