REMARK  Name = ZINC09450483
REMARK  5 active torsions:
REMARK  status: ('A' for Active; 'I' for Inactive)
REMARK    1  A    between atoms: C_1  and  C_2
REMARK    2  A    between atoms: C_5  and  S_7
REMARK    3  A    between atoms: S_7  and  C_8
REMARK    4  A    between atoms: C_8  and  C_9
REMARK    5  A    between atoms: N_15  and  C_16
REMARK                            x       y       z     vdW  Elec       q    Type
REMARK                         _______ _______ _______ _____ _____    ______ ____
ROOT
ATOM      1  C   UNL     1      -0.800   3.402   7.298  0.00  0.00    +0.146 A 
ATOM      2  N   UNL     1      -0.654   2.466   8.220  0.00  0.00    -0.199 NA
ATOM      3  C   UNL     1      -0.325   2.802   9.465  0.00  0.00    +0.217 A 
ATOM      4  N   UNL     1      -0.154   4.081   9.783  0.00  0.00    -0.181 NA
ATOM      5  C   UNL     1      -0.307   5.019   8.855  0.00  0.00    +0.224 A 
ATOM      6  N   UNL     1      -0.632   4.675   7.611  0.00  0.00    -0.198 NA
ATOM      7  N   UNL     1      -0.131   6.349   9.181  0.00  0.00    -0.284 N 
ATOM      8  N   UNL     1      -0.166   1.824  10.425  0.00  0.00    -0.327 N 
ATOM      9  H   UNL     1      -0.164   7.027   8.488  0.00  0.00    +0.155 HD
ATOM     10  H   UNL     1       0.070   2.070  11.334  0.00  0.00    +0.145 HD
ATOM     11  H   UNL     1      -0.291   0.891  10.193  0.00  0.00    +0.145 HD
ENDROOT
BRANCH   7  12
ATOM     12  C   UNL     1       0.096   6.720  10.511  0.00  0.00    +0.034 A 
ATOM     13  C   UNL     1      -0.498   6.005  11.543  0.00  0.00    +0.026 A 
ATOM     14  C   UNL     1      -0.269   6.369  12.855  0.00  0.00    +0.040 A 
ATOM     15  C   UNL     1       0.544   7.453  13.142  0.00  0.00    +0.124 A 
ATOM     16  C   UNL     1       1.133   8.171  12.115  0.00  0.00    +0.040 A 
ATOM     17  C   UNL     1       0.911   7.806  10.801  0.00  0.00    +0.026 A 
ATOM     18  F   UNL     1       0.762   7.811  14.427  0.00  0.00    -0.205 F 
ENDBRANCH   7  12
BRANCH   1  19
ATOM     19  C   UNL     1      -1.167   3.017   5.888  0.00  0.00    +0.152 C 
BRANCH  19  20
ATOM     20  S   UNL     1       0.341   2.741   4.926  0.00  0.00    -0.091 S 
BRANCH  20  25
ATOM     21  C   UNL     1       0.265   1.350  -0.131  0.00  0.00    +0.066 C 
ATOM     22  C   UNL     1      -0.440   1.708   1.152  0.00  0.00    +0.047 A 
ATOM     23  C   UNL     1      -1.793   1.740   1.213  0.00  0.00    +0.070 A 
ATOM     24  S   UNL     1      -2.038   2.206   2.921  0.00  0.00    -0.069 S 
ATOM     25  C   UNL     1      -0.363   2.317   3.368  0.00  0.00    +0.135 A 
ATOM     26  N   UNL     1       0.247   2.002   2.240  0.00  0.00    -0.238 NA
ENDBRANCH  20  25
ENDBRANCH  19  20
ENDBRANCH   1  19
TORSDOF 4
