REMARK  Name = ZINC12985496
REMARK  6 active torsions:
REMARK  status: ('A' for Active; 'I' for Inactive)
REMARK    1  A    between atoms: C_1  and  C_2
REMARK    2  A    between atoms: C_2  and  C_3
REMARK    3  A    between atoms: C_10  and  C_12
REMARK    4  A    between atoms: N_14  and  N_15
REMARK    5  A    between atoms: N_15  and  S_16
REMARK    6  A    between atoms: S_16  and  C_19
REMARK                            x       y       z     vdW  Elec       q    Type
REMARK                         _______ _______ _______ _____ _____    ______ ____
ROOT
ATOM      1  C   UNL     1      -0.056  -1.632   1.738  0.00  0.00    +0.265 C 
ATOM      2  O   UNL     1      -1.218  -1.865   1.462  0.00  0.00    -0.268 OA
ATOM      3  N   UNL     1       0.628  -0.702   1.043  0.00  0.00    -0.227 N 
ATOM      4  H   UNL     1       1.554  -0.516   1.264  0.00  0.00    +0.171 HD
ENDROOT
BRANCH   1  11
ATOM      5  C   UNL     1       1.681  -5.660   6.182  0.00  0.00    -0.007 C 
ATOM      6  C   UNL     1       2.627  -4.612   6.777  0.00  0.00    +0.009 C 
ATOM      7  C   UNL     1       3.269  -3.820   5.629  0.00  0.00    +0.043 C 
ATOM      8  C   UNL     1       2.188  -3.402   4.681  0.00  0.00    -0.006 A 
ATOM      9  C   UNL     1       0.912  -3.886   4.622  0.00  0.00    -0.036 A 
ATOM     10  C   UNL     1       0.081  -3.338   3.658  0.00  0.00    +0.024 A 
ATOM     11  C   UNL     1       0.599  -2.362   2.828  0.00  0.00    +0.076 A 
ATOM     12  S   UNL     1       2.271  -2.217   3.434  0.00  0.00    -0.088 S 
ATOM     13  C   UNL     1       0.450  -4.974   5.588  0.00  0.00    +0.039 C 
BRANCH   5  15
ATOM     14  C   UNL     1       0.407  -7.753   6.669  0.00  0.00    +0.004 C 
ATOM     15  C   UNL     1       1.242  -6.628   7.283  0.00  0.00    +0.000 C 
ENDBRANCH   5  15
ENDBRANCH   1  11
BRANCH   3  16
ATOM     16  N   UNL     1       0.002  -0.004   0.002  0.00  0.00    -0.107 NA
ATOM     17  H   UNL     1      -0.418  -0.491  -0.724  0.00  0.00    +0.172 HD
BRANCH  16  18
ATOM     18  S   UNL     1      -0.020   1.652   0.011  0.00  0.00    +0.080 S 
ATOM     19  O   UNL     1      -0.589   2.057  -1.227  0.00  0.00    -0.151 OA
ATOM     20  O   UNL     1      -0.565   2.044   1.264  0.00  0.00    -0.151 OA
BRANCH  18  21
ATOM     21  C   UNL     1       1.655   2.196  -0.002  0.00  0.00    +0.145 A 
ATOM     22  C   UNL     1       2.459   2.459  -1.061  0.00  0.00    +0.038 A 
ATOM     23  C   UNL     1       3.754   2.884  -0.831  0.00  0.00    +0.030 A 
ATOM     24  C   UNL     1       4.186   3.013   0.449  0.00  0.00    +0.080 A 
ATOM     25  S   UNL     1       2.738   2.534   1.377  0.00  0.00    -0.057 S 
ATOM     26 CL   UNL     1       5.743   3.513   1.032  0.00  0.00    -0.076 Cl
ENDBRANCH  18  21
ENDBRANCH  16  18
ENDBRANCH   3  16
TORSDOF 5
