REMARK  Name = ZINC09724394
REMARK  9 active torsions:
REMARK  status: ('A' for Active; 'I' for Inactive)
REMARK    1  A    between atoms: C_1  and  C_2
REMARK    2  A    between atoms: C_2  and  O_3
REMARK    3  A    between atoms: O_3  and  C_4
REMARK    4  A    between atoms: C_4  and  C_5
REMARK    5  A    between atoms: C_5  and  N_6
REMARK    6  A    between atoms: C_10  and  S_26
REMARK    7  A    between atoms: N_15  and  C_16
REMARK    8  A    between atoms: C_16  and  C_18
REMARK    9  A    between atoms: S_26  and  N_29
REMARK                            x       y       z     vdW  Elec       q    Type
REMARK                         _______ _______ _______ _____ _____    ______ ____
ROOT
ATOM      1  N   UNL     1      -3.604   1.671   0.043  0.00  0.00    -0.319 N 
ATOM      2  C   UNL     1      -4.684   0.808   0.085  0.00  0.00    +0.058 A 
ATOM      3  C   UNL     1      -6.051   1.125   0.124  0.00  0.00    +0.029 A 
ATOM      4  C   UNL     1      -7.002   0.133   0.163  0.00  0.00    +0.030 A 
ATOM      5  C   UNL     1      -6.644  -1.204   0.164  0.00  0.00    +0.106 A 
ATOM      6  C   UNL     1      -5.303  -1.546   0.125  0.00  0.00    +0.045 A 
ATOM      7  C   UNL     1      -4.351  -0.554   0.087  0.00  0.00    +0.041 A 
ATOM      8  S   UNL     1      -2.578  -0.541   0.024  0.00  0.00    -0.052 S 
ATOM      9  C   UNL     1      -2.337   1.176   0.008  0.00  0.00    +0.167 A 
ATOM     10  N   UNL     1      -1.191   1.847  -0.034  0.00  0.00    -0.152 NA
ENDROOT
BRANCH   5  11
ATOM     11  S   UNL     1      -7.881  -2.458   0.213  0.00  0.00    +0.056 S 
ATOM     12  O   UNL     1      -9.069  -1.876  -0.307  0.00  0.00    -0.153 OA
ATOM     13  O   UNL     1      -7.298  -3.627  -0.346  0.00  0.00    -0.153 OA
BRANCH  11  14
ATOM     14  N   UNL     1      -8.177  -2.792   1.807  0.00  0.00    -0.204 NA
ATOM     15  H   UNL     1      -7.692  -2.317   2.500  0.00  0.00    +0.144 HD
ATOM     16  H   UNL     1      -8.834  -3.463   2.049  0.00  0.00    +0.144 HD
ENDBRANCH  11  14
ENDBRANCH   5  11
BRANCH  10  17
ATOM     17  C   UNL     1      -0.030   1.186  -0.064  0.00  0.00    +0.270 C 
ATOM     18  O   UNL     1      -0.022  -0.033  -0.053  0.00  0.00    -0.268 OA
BRANCH  17  19
ATOM     19  C   UNL     1       1.247   1.935  -0.117  0.00  0.00    +0.042 A 
ATOM     20  C   UNL     1       1.241   3.329  -0.135  0.00  0.00    +0.033 A 
ATOM     21  C   UNL     1       2.435   4.022  -0.179  0.00  0.00    +0.043 A 
ATOM     22  C   UNL     1       3.636   3.334  -0.215  0.00  0.00    +0.040 A 
ATOM     23  C   UNL     1       3.648   1.950  -0.203  0.00  0.00    +0.043 A 
ATOM     24  C   UNL     1       2.460   1.247  -0.154  0.00  0.00    +0.033 A 
ATOM     25 CL   UNL     1       5.159   1.096  -0.250  0.00  0.00    -0.083 Cl
ATOM     26 CL   UNL     1       2.430   5.758  -0.195  0.00  0.00    -0.083 Cl
ENDBRANCH  17  19
ENDBRANCH  10  17
BRANCH   1  27
ATOM     27  C   UNL     1      -3.824   3.119   0.038  0.00  0.00    +0.152 C 
BRANCH  27  28
ATOM     28  C   UNL     1      -2.734   3.804   0.864  0.00  0.00    +0.181 C 
BRANCH  28  29
ATOM     29  O   UNL     1      -3.023   5.199   0.971  0.00  0.00    -0.378 OA
BRANCH  29  31
ATOM     30  C   UNL     1      -2.469   7.410   1.775  0.00  0.00    +0.034 C 
ATOM     31  C   UNL     1      -2.061   5.936   1.727  0.00  0.00    +0.156 C 
ENDBRANCH  29  31
ENDBRANCH  28  29
ENDBRANCH  27  28
ENDBRANCH   1  27
TORSDOF 8
