REMARK  Name = ZINC39688508
REMARK  7 active torsions:
REMARK  status: ('A' for Active; 'I' for Inactive)
REMARK    1  A    between atoms: C_1  and  C_2
REMARK    2  A    between atoms: C_2  and  C_4
REMARK    3  A    between atoms: C_2  and  N_12
REMARK    4  A    between atoms: C_4  and  C_5
REMARK    5  A    between atoms: C_13  and  C_15
REMARK    6  A    between atoms: C_26  and  C_28
REMARK    7  A    between atoms: C_31  and  C_35
REMARK                            x       y       z     vdW  Elec       q    Type
REMARK                         _______ _______ _______ _____ _____    ______ ____
ROOT
ATOM      1  C   UNL     1       1.304  -1.379   3.953  0.00  0.00    +0.100 C 
ATOM      2  C   UNL     1       2.316  -0.217   4.078  0.00  0.00    +0.121 C 
ATOM      3  N   UNL     1       1.700   0.712   5.054  0.00  0.00    -0.296 N 
ATOM      4  C   UNL     1       1.092  -0.175   6.075  0.00  0.00    +0.115 C 
ATOM      5  C   UNL     1       0.505  -1.350   5.267  0.00  0.00    -0.004 C 
ATOM      6  C   UNL     1       0.692  -2.659   6.027  0.00  0.00    -0.010 C 
ATOM      7  C   UNL     1      -0.158  -2.630   7.301  0.00  0.00    -0.082 C 
ATOM      8  N   UNL     1      -1.570  -2.445   6.945  0.00  0.00    +0.379 N 
ATOM      9  C   UNL     1      -1.755  -1.141   6.297  0.00  0.00    -0.082 C 
ATOM     10  C   UNL     1      -0.973  -1.107   4.981  0.00  0.00    -0.010 C 
ATOM     11  C   UNL     1       1.694   2.059   5.022  0.00  0.00    +0.247 C 
ATOM     12  O   UNL     1       2.129   2.646   4.051  0.00  0.00    -0.270 OA
ATOM     13  H   UNL     1      -1.855  -3.177   6.312  0.00  0.00    -0.086 HD
ATOM     14  H   UNL     1      -2.134  -2.487   7.781  0.00  0.00    -0.086 HD
ENDROOT
BRANCH  11  15
ATOM     15  C   UNL     1       1.158   2.824   6.168  0.00  0.00    +0.040 A 
ATOM     16  C   UNL     1       1.065   2.227   7.427  0.00  0.00    +0.014 A 
ATOM     17  C   UNL     1       0.565   2.945   8.493  0.00  0.00    +0.016 A 
ATOM     18  C   UNL     1       0.155   4.255   8.319  0.00  0.00    +0.090 A 
ATOM     19  C   UNL     1       0.244   4.854   7.073  0.00  0.00    +0.136 A 
ATOM     20  C   UNL     1       0.749   4.147   5.998  0.00  0.00    +0.052 A 
ATOM     21  F   UNL     1      -0.159   6.133   6.910  0.00  0.00    -0.205 F 
BRANCH  18  22
ATOM     22  C   UNL     1      -0.390   5.033   9.489  0.00  0.00    +0.420 C 
ATOM     23  F   UNL     1      -0.383   4.224  10.631  0.00  0.00    -0.166 F 
ATOM     24  F   UNL     1       0.407   6.161   9.711  0.00  0.00    -0.166 F 
ATOM     25  F   UNL     1      -1.701   5.435   9.211  0.00  0.00    -0.166 F 
ENDBRANCH  18  22
ENDBRANCH  11  15
BRANCH   1  27
ATOM     26  N   UNL     1      -0.044  -2.201   2.050  0.00  0.00    -0.312 N 
ATOM     27  C   UNL     1       0.389  -1.153   2.777  0.00  0.00    +0.218 C 
ATOM     28  O   UNL     1       0.043  -0.028   2.486  0.00  0.00    -0.275 OA
ATOM     29  H   UNL     1       0.233  -3.101   2.283  0.00  0.00    +0.149 HD
BRANCH  26  31
ATOM     30  C   UNL     1      -0.100  -1.655  -0.333  0.00  0.00    +0.028 C 
ATOM     31  C   UNL     1      -0.934  -1.982   0.907  0.00  0.00    +0.074 C 
BRANCH  31  32
ATOM     32  C   UNL     1      -1.755  -3.247   0.650  0.00  0.00    +0.057 C 
BRANCH  32  33
ATOM     33  C   UNL     1      -2.668  -3.501   1.822  0.00  0.00    -0.045 A 
ATOM     34  C   UNL     1      -2.231  -4.272   2.883  0.00  0.00    +0.006 A 
ATOM     35  C   UNL     1      -3.066  -4.505   3.959  0.00  0.00    +0.038 A 
ATOM     36  C   UNL     1      -4.341  -3.966   3.974  0.00  0.00    +0.123 A 
ATOM     37  C   UNL     1      -4.778  -3.194   2.911  0.00  0.00    +0.038 A 
ATOM     38  C   UNL     1      -3.939  -2.958   1.839  0.00  0.00    +0.006 A 
ATOM     39  F   UNL     1      -5.159  -4.194   5.025  0.00  0.00    -0.205 F 
ENDBRANCH  32  33
ENDBRANCH  31  32
ENDBRANCH  26  31
ENDBRANCH   1  27
TORSDOF 6
