REMARK  Name = ZINC39379883
REMARK  9 active torsions:
REMARK  status: ('A' for Active; 'I' for Inactive)
REMARK    1  A    between atoms: C_1  and  C_2
REMARK    2  A    between atoms: C_2  and  C_3
REMARK    3  A    between atoms: C_2  and  C_4
REMARK    4  A    between atoms: C_4  and  C_5
REMARK    5  A    between atoms: C_5  and  C_6
REMARK    6  A    between atoms: C_6  and  C_13
REMARK    7  A    between atoms: N_16  and  C_19
REMARK    8  A    between atoms: C_19  and  C_20
REMARK    9  A    between atoms: C_25  and  C_26
REMARK                            x       y       z     vdW  Elec       q    Type
REMARK                         _______ _______ _______ _____ _____    ______ ____
ROOT
ATOM      1  C   UNL     1      -2.860  -4.116  -0.172  0.00  0.00    +0.018 C 
ATOM      2  C   UNL     1      -2.070  -4.584  -1.397  0.00  0.00    -0.013 C 
ATOM      3  C   UNL     1      -2.149  -6.109  -1.497  0.00  0.00    -0.078 C 
ATOM      4  N   UNL     1      -3.551  -6.522  -1.630  0.00  0.00    +0.380 N 
ATOM      5  C   UNL     1      -4.299  -6.140  -0.426  0.00  0.00    -0.078 C 
ATOM      6  C   UNL     1      -4.303  -4.616  -0.285  0.00  0.00    -0.013 C 
ATOM      7  H   UNL     1      -3.959  -6.070  -2.435  0.00  0.00    -0.082 HD
ENDROOT
BRANCH   1   8
ATOM      8  C   UNL     1      -2.851  -2.587  -0.110  0.00  0.00    +0.115 C 
ATOM      9  C   UNL     1      -3.645  -2.000  -1.260  0.00  0.00    +0.244 C 
ATOM     10  O   UNL     1      -3.422  -2.127  -2.445  0.00  0.00    -0.273 OA
ATOM     11  N   UNL     1      -4.651  -1.307  -0.692  0.00  0.00    -0.238 N 
ATOM     12  C   UNL     1      -4.604  -1.374   0.644  0.00  0.00    +0.307 C 
ATOM     13  O   UNL     1      -5.406  -0.829   1.377  0.00  0.00    -0.252 OA
ATOM     14  N   UNL     1      -3.570  -2.112   1.085  0.00  0.00    -0.285 N 
ATOM     15  H   UNL     1      -5.326  -0.819  -1.189  0.00  0.00    +0.159 HD
ATOM     16  H   UNL     1      -3.342  -2.297   2.009  0.00  0.00    +0.151 HD
BRANCH   8  17
ATOM     17  C   UNL     1      -1.416  -2.058  -0.121  0.00  0.00    +0.036 C 
BRANCH  17  18
ATOM     18  C   UNL     1      -1.433  -0.534   0.013  0.00  0.00    +0.005 C 
BRANCH  18  20
ATOM     19  C   UNL     1      -0.019   1.526   0.010  0.00  0.00    +0.007 C 
ATOM     20  C   UNL     1       0.002  -0.004   0.002  0.00  0.00    -0.017 C 
ATOM     21  C   UNL     1       0.742  -0.511   1.242  0.00  0.00    +0.007 C 
ENDBRANCH  18  20
ENDBRANCH  17  18
ENDBRANCH   8  17
ENDBRANCH   1   8
BRANCH   4  22
ATOM     22  C   UNL     1      -3.616  -7.979  -1.804  0.00  0.00    -0.063 C 
BRANCH  22  23
ATOM     23  C   UNL     1      -5.065  -8.397  -2.067  0.00  0.00    +0.066 C 
ATOM     24  C   UNL     1      -5.525  -7.903  -3.424  0.00  0.00    +0.115 C 
ATOM     25  N   UNL     1      -5.815  -8.959  -4.111  0.00  0.00    -0.161 NA
ATOM     26  N   UNL     1      -5.611 -10.134  -3.394  0.00  0.00    -0.153 NA
ATOM     27  C   UNL     1      -5.173  -9.904  -2.182  0.00  0.00    +0.077 C 
BRANCH  27  28
ATOM     28  C   UNL     1      -4.851 -10.899  -1.148  0.00  0.00    -0.001 A 
ATOM     29  C   UNL     1      -4.394 -10.485   0.108  0.00  0.00    +0.011 A 
ATOM     30  C   UNL     1      -4.094 -11.423   1.072  0.00  0.00    +0.020 A 
ATOM     31  C   UNL     1      -4.245 -12.773   0.801  0.00  0.00    +0.041 A 
ATOM     32  C   UNL     1      -4.697 -13.191  -0.440  0.00  0.00    +0.020 A 
ATOM     33  C   UNL     1      -5.006 -12.264  -1.413  0.00  0.00    +0.011 A 
ATOM     34 CL   UNL     1      -3.865 -13.947   2.022  0.00  0.00    -0.084 Cl
ENDBRANCH  27  28
ENDBRANCH  22  23
ENDBRANCH   4  22
TORSDOF 7
