REMARK  Name = ZINC43743503
REMARK  13 active torsions:
REMARK  status: ('A' for Active; 'I' for Inactive)
REMARK    1  A    between atoms: CD1_1  and  CG1_2
REMARK    2  A    between atoms: CG1_2  and  CB_3
REMARK    3  A    between atoms: CB_3  and  CG2_5
REMARK    4  A    between atoms: CB_3  and  CA_6
REMARK    5  A    between atoms: CA_6  and  C_8
REMARK    6  A    between atoms: CA_6  and  N_11
REMARK    7  A    between atoms: C_12  and  C_14
REMARK    8  A    between atoms: C_14  and  O_15
REMARK    9  A    between atoms: O_15  and  N_16
REMARK   10  A    between atoms: C_20  and  C_42
REMARK   11  A    between atoms: C_25  and  C_41
REMARK   12  A    between atoms: C_36  and  C_38
REMARK   13  A    between atoms: C_38  and  C_40
REMARK                            x       y       z     vdW  Elec       q    Type
REMARK                         _______ _______ _______ _____ _____    ______ ____
ROOT
ATOM      1  N   UNK A   0       5.213  -5.931   5.548  0.00  0.00    -0.089 NA
ATOM      2  C   UNK A   0       5.693  -7.086   5.208  0.00  0.00    +0.080 C 
ATOM      3  C   UNK A   0       5.495  -7.660   3.818  0.00  0.00    +0.059 C 
ATOM      4  C   UNK A   0       4.930  -9.071   3.979  0.00  0.00    +0.017 C 
ATOM      5  C   UNK A   0       5.798  -9.941   4.855  0.00  0.00    -0.007 C 
ATOM      6  C   UNK A   0       6.803 -10.752   4.036  0.00  0.00    +0.002 C 
ATOM      7  C   UNK A   0       6.065 -11.544   2.961  0.00  0.00    +0.005 C 
ATOM      8  C   UNK A   0       7.015 -12.475   2.190  0.00  0.00    +0.008 C 
ATOM      9  C   UNK A   0       7.670 -13.390   3.207  0.00  0.00    -0.019 C 
ATOM     10  C   UNK A   0       8.535 -12.498   4.138  0.00  0.00    -0.001 C 
ATOM     11  C   UNK A   0       7.565 -11.694   4.983  0.00  0.00    -0.003 C 
ATOM     12  C   UNK A   0       8.348 -10.876   6.011  0.00  0.00    +0.008 C 
ATOM     13  C   UNK A   0       7.381 -10.069   6.884  0.00  0.00    +0.031 C 
ATOM     14  C   UNK A   0       6.515  -9.230   5.960  0.00  0.00    -0.062 C 
ATOM     15  C   UNK A   0       6.469  -7.917   6.150  0.00  0.00    +0.026 C 
ATOM     16  C   UNK A   0       9.364 -13.546   4.889  0.00  0.00    +0.005 C 
ATOM     17  C   UNK A   0       9.744 -14.555   3.771  0.00  0.00    +0.012 C 
ATOM     18  C   UNK A   0       8.671 -14.404   2.663  0.00  0.00    +0.061 C 
ATOM     19  C   UNK A   0       6.595 -14.110   4.024  0.00  0.00    +0.012 C 
ATOM     20  C   UNK A   0       4.873 -10.963   5.518  0.00  0.00    +0.016 C 
ENDROOT
BRANCH  18  21
ATOM     21  C   UNK A   0       9.300 -13.888   1.395  0.00  0.00    +0.134 C 
ATOM     22  O   UNK A   0       9.438 -12.699   1.229  0.00  0.00    -0.297 OA
ATOM     23  C   UNK A   0       9.758 -14.854   0.333  0.00  0.00    +0.086 C 
ENDBRANCH  18  21
BRANCH   1  24
ATOM     24  O   UNK A   0       4.474  -5.168   4.611  0.00  0.00    -0.384 OA
BRANCH  24  25
ATOM     25  C   UNK A   0       4.006  -3.918   5.120  0.00  0.00    +0.358 C 
BRANCH  25  27
ATOM     26  N   ILE A   1       2.699  -1.985   4.299  0.00  0.00    -0.299 N 
ATOM     27  C   UNK A   0       3.237  -3.194   4.045  0.00  0.00    +0.254 C 
ATOM     28  O   UNK A   0       3.104  -3.699   2.950  0.00  0.00    -0.272 OA
ATOM     29  H   ILE A   1       2.806  -1.581   5.174  0.00  0.00    +0.150 HD
BRANCH  26  30
ATOM     30  CA  ILE A   1       1.951  -1.281   3.254  0.00  0.00    +0.189 C 
BRANCH  30  31
ATOM     31  C   ILE A   1       0.522  -1.758   3.251  0.00  0.00    +0.376 C 
ATOM     32  O   ILE A   1      -0.118  -1.761   2.213  0.00  0.00    -0.244 OA
ATOM     33  OXT ILE A   1       0.004  -2.140   4.287  0.00  0.00    -0.244 OA
ENDBRANCH  30  31
BRANCH  30  34
ATOM     34  CB  ILE A   1       1.987   0.224   3.527  0.00  0.00    +0.017 C 
ATOM     35  CG2 ILE A   1       1.352   0.510   4.889  0.00  0.00    +0.010 C 
BRANCH  34  37
ATOM     36  CD1 ILE A   1       1.346   2.469   2.637  0.00  0.00    +0.004 C 
ATOM     37  CG1 ILE A   1       1.207   0.959   2.435  0.00  0.00    +0.002 C 
ENDBRANCH  34  37
ENDBRANCH  30  34
ENDBRANCH  26  30
ENDBRANCH  25  27
ENDBRANCH  24  25
ENDBRANCH   1  24
TORSDOF 8
