REMARK  Name = ZINC05425838
REMARK  9 active torsions:
REMARK  status: ('A' for Active; 'I' for Inactive)
REMARK    1  A    between atoms: C_1  and  C_2
REMARK    2  A    between atoms: C_5  and  O_32
REMARK    3  A    between atoms: C_7  and  C_30
REMARK    4  A    between atoms: C_7  and  C_31
REMARK    5  A    between atoms: C_12  and  C_17
REMARK    6  A    between atoms: C_14  and  C_15
REMARK    7  A    between atoms: C_14  and  O_16
REMARK    8  A    between atoms: C_17  and  O_18
REMARK    9  A    between atoms: O_18  and  C_19
REMARK                            x       y       z     vdW  Elec       q    Type
REMARK                         _______ _______ _______ _____ _____    ______ ____
ROOT
ATOM      1  C   UNL     1       0.096   1.514  -0.008  0.00  0.00    +0.014 C 
ATOM      2  C   UNL     1       0.096  -0.015  -0.007  0.00  0.00    +0.000 C 
ATOM      3  C   UNL     1      -1.362  -0.493   0.065  0.00  0.00    +0.012 C 
ATOM      4  C   UNL     1      -1.976  -0.071   1.399  0.00  0.00    +0.032 C 
ATOM      5  C   UNL     1      -1.233  -0.742   2.547  0.00  0.00    +0.120 C 
ATOM      6  C   UNL     1       0.259  -0.406   2.530  0.00  0.00    -0.006 C 
ATOM      7  C   UNL     1       0.870  -0.603   1.160  0.00  0.00    +0.006 C 
ATOM      8  C   UNL     1       2.325  -0.139   1.098  0.00  0.00    +0.005 C 
ATOM      9  C   UNL     1       2.958  -0.779  -0.142  0.00  0.00    +0.010 C 
ATOM     10  C   UNL     1       2.214  -0.400  -1.409  0.00  0.00    +0.058 C 
ATOM     11  C   UNL     1       0.703  -0.507  -1.326  0.00  0.00    +0.075 C 
ATOM     12  C   UNL     1       0.096   0.318  -2.476  0.00  0.00    +0.042 C 
ATOM     13  C   UNL     1       0.940  -1.392   3.511  0.00  0.00    +0.014 C 
ATOM     14  C   UNL     1       0.482   1.002   3.080  0.00  0.00    +0.014 C 
ENDROOT
BRANCH  11  15
ATOM     15  O   UNL     1       0.323  -1.878  -1.522  0.00  0.00    -0.388 OA
ATOM     16  H   UNL     1       0.667  -2.269  -2.337  0.00  0.00    +0.210 HD
ENDBRANCH  11  15
BRANCH   5  17
ATOM     17  O   UNL     1      -1.796  -0.315   3.792  0.00  0.00    -0.391 OA
ATOM     18  H   UNL     1      -2.733  -0.530   3.894  0.00  0.00    +0.210 HD
ENDBRANCH   5  17
BRANCH  10  19
ATOM     19  C   UNL     1       2.655   0.980  -1.901  0.00  0.00    +0.235 C 
BRANCH  19  20
ATOM     20  O   UNL     1       4.030   0.931  -2.285  0.00  0.00    -0.491 OA
BRANCH  20  21
ATOM     21  C   UNL     1       4.582   2.082  -2.749  0.00  0.00    +0.124 A 
ATOM     22  C   UNL     1       3.807   3.238  -2.825  0.00  0.00    +0.046 A 
ATOM     23  C   UNL     1       4.347   4.402  -3.289  0.00  0.00    +0.015 A 
ATOM     24  C   UNL     1       5.687   4.436  -3.691  0.00  0.00    +0.018 A 
ATOM     25  C   UNL     1       6.293   5.672  -4.192  0.00  0.00    +0.018 A 
ATOM     26  C   UNL     1       7.598   5.640  -4.566  0.00  0.00    +0.092 A 
ATOM     27  C   UNL     1       8.328   4.438  -4.465  0.00  0.00    +0.337 A 
ATOM     28  O   UNL     1       9.498   4.424  -4.803  0.00  0.00    -0.245 OA
ATOM     29  O   UNL     1       7.767   3.309  -4.004  0.00  0.00    -0.422 OA
ATOM     30  C   UNL     1       6.474   3.272  -3.616  0.00  0.00    +0.143 A 
ATOM     31  C   UNL     1       5.911   2.099  -3.137  0.00  0.00    +0.092 A 
ENDBRANCH  20  21
ENDBRANCH  19  20
ENDBRANCH  10  19
TORSDOF 5
