REMARK  Name = ZINC62872007
REMARK  3 active torsions:
REMARK  status: ('A' for Active; 'I' for Inactive)
REMARK    1  A    between atoms: C_1  and  C_2
REMARK    2  A    between atoms: C_15  and  C_17
REMARK    3  A    between atoms: C_15  and  C_18
REMARK                            x       y       z     vdW  Elec       q    Type
REMARK                         _______ _______ _______ _____ _____    ______ ____
ROOT
ATOM      1  C   UNL     1       4.692  -2.081  -0.015  0.00  0.00    +0.009 C 
ATOM      2  C   UNL     1       3.512  -1.613   0.839  0.00  0.00    +0.003 C 
ATOM      3  C   UNL     1       3.149  -0.174   0.464  0.00  0.00    +0.006 C 
ATOM      4  C   UNL     1       1.990   0.306   1.340  0.00  0.00    +0.019 C 
ATOM      5  C   UNL     1       0.766  -0.582   1.093  0.00  0.00    +0.109 C 
ATOM      6  N   UNL     1       1.147  -1.984   1.311  0.00  0.00    -0.285 N 
ATOM      7  C   UNL     1       2.305  -2.523   0.586  0.00  0.00    +0.112 C 
ATOM      8  C   UNL     1       0.447  -2.761   2.161  0.00  0.00    +0.305 C 
ATOM      9  O   UNL     1      -0.209  -2.253   3.050  0.00  0.00    -0.252 OA
ATOM     10  N   UNL     1       0.473  -4.102   2.026  0.00  0.00    -0.284 N 
ATOM     11  C   UNL     1       1.067  -4.722   0.833  0.00  0.00    +0.109 C 
ATOM     12  C   UNL     1       0.042  -5.677   0.212  0.00  0.00    +0.020 C 
ATOM     13  C   UNL     1      -0.426  -6.676   1.273  0.00  0.00    +0.021 C 
ATOM     14  C   UNL     1      -1.101  -5.923   2.422  0.00  0.00    +0.085 C 
ATOM     15  C   UNL     1      -0.084  -4.971   3.070  0.00  0.00    +0.127 C 
ATOM     16  C   UNL     1      -2.285  -5.120   1.881  0.00  0.00    +0.024 C 
ENDROOT
BRANCH  14  17
ATOM     17  C   UNL     1      -1.590  -6.910   3.451  0.00  0.00    +0.363 C 
ATOM     18  O   UNL     1      -1.647  -6.588   4.626  0.00  0.00    -0.246 OA
ATOM     19  O   UNL     1      -1.929  -8.030   3.109  0.00  0.00    -0.246 OA
ENDBRANCH  14  17
TORSDOF 1
