REMARK  Name = ZINC63289580
REMARK  9 active torsions:
REMARK  status: ('A' for Active; 'I' for Inactive)
REMARK    1  A    between atoms: C_1  and  C_2
REMARK    2  A    between atoms: C_4  and  N_10
REMARK    3  A    between atoms: C_8  and  C_9
REMARK    4  A    between atoms: N_10  and  S_11
REMARK    5  A    between atoms: S_11  and  C_14
REMARK    6  A    between atoms: C_17  and  N_20
REMARK    7  A    between atoms: C_21  and  C_23
REMARK    8  A    between atoms: C_23  and  S_24
REMARK    9  A    between atoms: S_24  and  C_25
REMARK                            x       y       z     vdW  Elec       q    Type
REMARK                         _______ _______ _______ _____ _____    ______ ____
ROOT
ATOM      1  C   UNL     1       2.009  -2.409  -3.705  0.00  0.00    +0.105 A 
ATOM      2  C   UNL     1       2.706  -1.377  -4.305  0.00  0.00    +0.030 A 
ATOM      3  C   UNL     1       4.044  -1.530  -4.610  0.00  0.00    +0.025 A 
ATOM      4  C   UNL     1       4.690  -2.723  -4.312  0.00  0.00    +0.034 A 
ATOM      5  C   UNL     1       3.988  -3.757  -3.709  0.00  0.00    +0.025 A 
ATOM      6  C   UNL     1       2.651  -3.596  -3.402  0.00  0.00    +0.030 A 
ENDROOT
BRANCH   4   7
ATOM      7  N   UNL     1       6.046  -2.881  -4.620  0.00  0.00    -0.285 N 
ATOM      8  C   UNL     1       6.879  -1.824  -4.557  0.00  0.00    +0.227 C 
ATOM      9  O   UNL     1       6.476  -0.758  -4.143  0.00  0.00    -0.275 OA
ATOM     10  H   UNL     1       6.386  -3.752  -4.878  0.00  0.00    +0.155 HD
BRANCH   8  11
ATOM     11  C   UNL     1       8.312  -1.967  -5.002  0.00  0.00    +0.169 C 
BRANCH  11  12
ATOM     12  S   UNL     1       9.169  -0.381  -4.797  0.00  0.00    -0.106 S 
BRANCH  12  13
ATOM     13  C   UNL     1      10.858  -0.718  -5.369  0.00  0.00    +0.236 C 
ATOM     14  N   UNL     1      10.832  -1.221  -6.748  0.00  0.00    -0.355 N 
ATOM     15  C   UNL     1      11.353  -2.414  -6.739  0.00  0.00    +0.061 A 
ATOM     16  C   UNL     1      11.597  -3.406  -7.795  0.00  0.00    +0.027 A 
ATOM     17  C   UNL     1      12.167  -4.587  -7.480  0.00  0.00    +0.002 A 
ATOM     18  C   UNL     1      12.545  -4.919  -6.167  0.00  0.00    +0.002 A 
ATOM     19  C   UNL     1      12.367  -4.083  -5.125  0.00  0.00    +0.027 A 
ATOM     20  C   UNL     1      11.753  -2.767  -5.349  0.00  0.00    +0.061 A 
ATOM     21  N   UNL     1      11.464  -1.778  -4.553  0.00  0.00    -0.355 N 
ATOM     22  H   UNL     1      10.489  -0.751  -7.524  0.00  0.00    +0.162 HD
ATOM     23  H   UNL     1      11.621  -1.747  -3.596  0.00  0.00    +0.162 HD
ENDBRANCH  12  13
ENDBRANCH  11  12
ENDBRANCH   8  11
ENDBRANCH   4   7
BRANCH   1  24
ATOM     24  S   UNL     1       0.302  -2.209  -3.318  0.00  0.00    +0.061 S 
ATOM     25  O   UNL     1      -0.255  -3.515  -3.252  0.00  0.00    -0.153 OA
ATOM     26  O   UNL     1      -0.200  -1.211  -4.196  0.00  0.00    -0.153 OA
BRANCH  24  27
ATOM     27  N   UNL     1       0.217  -1.581  -1.788  0.00  0.00    -0.149 NA
ATOM     28  H   UNL     1      -0.180  -2.101  -1.071  0.00  0.00    +0.152 HD
BRANCH  27  31
ATOM     29  C   UNL     1      -0.112   1.952  -0.575  0.00  0.00    +0.019 C 
ATOM     30  C   UNL     1      -0.041   0.438  -0.366  0.00  0.00    +0.093 C 
ATOM     31  C   UNL     1       0.740  -0.240  -1.517  0.00  0.00    +0.301 C 
ATOM     32  O   UNL     1       2.071  -0.305  -0.964  0.00  0.00    -0.373 OA
ATOM     33  N   UNL     1       1.947  -0.303   0.444  0.00  0.00    -0.092 NA
ATOM     34  C   UNL     1       0.801   0.101   0.851  0.00  0.00    +0.062 C 
ATOM     35  C   UNL     1       0.361   0.222   2.287  0.00  0.00    +0.064 C 
ENDBRANCH  27  31
ENDBRANCH  24  27
ENDBRANCH   1  24
TORSDOF 7
