REMARK  Name = ZINC40557933
REMARK  1 active torsions:
REMARK  status: ('A' for Active; 'I' for Inactive)
REMARK    1  A    between atoms: C_15  and  C_17
REMARK                            x       y       z     vdW  Elec       q    Type
REMARK                         _______ _______ _______ _____ _____    ______ ____
ROOT
ATOM      1  C   UNL     1       0.320   2.259   0.080  0.00  0.00    +0.000 C 
ATOM      2  C   UNL     1       1.788   2.597   0.311  0.00  0.00    +0.002 C 
ATOM      3  C   UNL     1       2.002   2.962   1.790  0.00  0.00    +0.019 C 
ATOM      4  C   UNL     1       2.040   1.685   2.619  0.00  0.00    +0.109 C 
ATOM      5  N   UNL     1       0.683   1.129   2.711  0.00  0.00    -0.285 N 
ATOM      6  C   UNL     1       0.380  -0.122   2.036  0.00  0.00    +0.109 C 
ATOM      7  C   UNL     1       1.015  -0.086   0.640  0.00  0.00    +0.019 C 
ATOM      8  C   UNL     1       0.154   0.773  -0.287  0.00  0.00    +0.002 C 
ATOM      9  C   UNL     1      -0.271   1.773   3.412  0.00  0.00    +0.306 C 
ATOM     10  O   UNL     1      -0.064   2.895   3.832  0.00  0.00    -0.252 OA
ATOM     11  N   UNL     1      -1.454   1.173   3.649  0.00  0.00    -0.262 N 
ATOM     12  C   UNL     1      -1.682  -0.252   3.325  0.00  0.00    +0.179 C 
ATOM     13  S   UNL     1      -3.091  -0.655   4.450  0.00  0.00    -0.139 S 
ATOM     14  C   UNL     1      -3.843   1.034   4.453  0.00  0.00    +0.105 C 
ATOM     15  C   UNL     1      -2.571   1.891   4.241  0.00  0.00    +0.201 C 
ENDROOT
BRANCH  15  16
ATOM     16  C   UNL     1      -2.924   3.049   3.344  0.00  0.00    +0.377 C 
ATOM     17  O   UNL     1      -2.736   2.969   2.142  0.00  0.00    -0.244 OA
ATOM     18  O   UNL     1      -3.397   4.066   3.821  0.00  0.00    -0.244 OA
ENDBRANCH  15  16
TORSDOF 1
