REMARK  Name = ZINC58265873
REMARK  4 active torsions:
REMARK  status: ('A' for Active; 'I' for Inactive)
REMARK    1  A    between atoms: C_3  and  C_25
REMARK    2  A    between atoms: C_5  and  S_7
REMARK    3  A    between atoms: S_7  and  N_10
REMARK    4  A    between atoms: C_20  and  C_22
REMARK                            x       y       z     vdW  Elec       q    Type
REMARK                         _______ _______ _______ _____ _____    ______ ____
ROOT
ATOM      1  N   UNL     1       1.237  -2.946   1.557  0.00  0.00    -0.161 NA
ATOM      2  C   UNL     1       2.428  -3.290   2.338  0.00  0.00    +0.084 C 
ATOM      3  C   UNL     1       3.542  -3.866   1.494  0.00  0.00    +0.021 C 
ATOM      4  C   UNL     1       3.150  -5.226   0.914  0.00  0.00    +0.002 C 
ATOM      5  C   UNL     1       2.835  -6.175   2.074  0.00  0.00    +0.000 C 
ATOM      6  C   UNL     1       1.629  -5.631   2.837  0.00  0.00    +0.005 C 
ATOM      7  C   UNL     1       1.944  -4.269   3.423  0.00  0.00    +0.010 C 
ATOM      8  C   UNL     1       0.569  -3.632   3.790  0.00  0.00    +0.035 C 
ATOM      9  C   UNL     1       0.059  -3.115   2.426  0.00  0.00    +0.166 C 
ENDROOT
BRANCH   9  10
ATOM     10  C   UNL     1      -0.885  -4.122   1.820  0.00  0.00    +0.229 C 
ATOM     11  O   UNL     1      -0.611  -4.652   0.765  0.00  0.00    -0.274 OA
ATOM     12  N   UNL     1      -2.035  -4.432   2.451  0.00  0.00    -0.328 N 
ATOM     13  H   UNL     1      -2.255  -4.008   3.295  0.00  0.00    +0.145 HD
ATOM     14  H   UNL     1      -2.643  -5.080   2.061  0.00  0.00    +0.145 HD
ENDBRANCH   9  10
BRANCH   1  15
ATOM     15  S   UNL     1       1.218  -2.448  -0.023  0.00  0.00    +0.062 S 
ATOM     16  O   UNL     1      -0.122  -2.583  -0.475  0.00  0.00    -0.153 OA
ATOM     17  O   UNL     1       2.308  -3.095  -0.665  0.00  0.00    -0.153 OA
BRANCH  15  22
ATOM     18  C   UNL     1       0.830   1.554   0.055  0.00  0.00    +0.003 A 
ATOM     19  C   UNL     1       2.133   1.996  -0.038  0.00  0.00    +0.019 A 
ATOM     20  C   UNL     1       3.175   1.071  -0.128  0.00  0.00    +0.054 A 
ATOM     21  C   UNL     1       2.889  -0.296  -0.123  0.00  0.00    +0.047 A 
ATOM     22  C   UNL     1       1.581  -0.724  -0.029  0.00  0.00    +0.107 A 
ATOM     23  C   UNL     1       0.553   0.199   0.059  0.00  0.00    +0.028 A 
BRANCH  20  24
ATOM     24  C   UNL     1       4.531   1.521  -0.226  0.00  0.00    +0.099 C 
ATOM     25  N   UNL     1       5.606   1.879  -0.303  0.00  0.00    -0.191 NA
ENDBRANCH  20  24
ENDBRANCH  15  22
ENDBRANCH   1  15
TORSDOF 4
