REMARK  Name = ZINC04251393
REMARK  7 active torsions:
REMARK  status: ('A' for Active; 'I' for Inactive)
REMARK    1  A    between atoms: C_1  and  C_2
REMARK    2  A    between atoms: C_5  and  C_25
REMARK    3  A    between atoms: C_6  and  N_8
REMARK    4  A    between atoms: C_9  and  C_11
REMARK    5  A    between atoms: C_11  and  S_12
REMARK    6  A    between atoms: S_12  and  C_13
REMARK    7  A    between atoms: C_19  and  C_24
REMARK                            x       y       z     vdW  Elec       q    Type
REMARK                         _______ _______ _______ _____ _____    ______ ____
ROOT
ATOM      1  C   UNL     1      -3.514  -2.219   0.037  0.00  0.00    +0.173 C 
ENDROOT
BRANCH   1   3
ATOM      2  N   UNL     1      -5.804  -3.152   0.038  0.00  0.00    -0.285 N 
ATOM      3  C   UNL     1      -5.012  -2.062   0.041  0.00  0.00    +0.227 C 
ATOM      4  O   UNL     1      -5.506  -0.954   0.046  0.00  0.00    -0.275 OA
ATOM      5  H   UNL     1      -5.413  -4.035  -0.047  0.00  0.00    +0.155 HD
BRANCH   2  11
ATOM      6  C   UNL     1      -9.673  -0.524   1.555  0.00  0.00    +0.044 C 
ATOM      7  C   UNL     1      -9.094  -1.746   0.889  0.00  0.00    -0.049 A 
ATOM      8  C   UNL     1      -9.934  -2.728   0.396  0.00  0.00    +0.004 A 
ATOM      9  C   UNL     1      -9.406  -3.850  -0.216  0.00  0.00    +0.005 A 
ATOM     10  C   UNL     1      -8.037  -3.994  -0.336  0.00  0.00    -0.029 A 
ATOM     11  C   UNL     1      -7.191  -3.010   0.158  0.00  0.00    +0.037 A 
ATOM     12  C   UNL     1      -7.724  -1.886   0.777  0.00  0.00    +0.027 A 
ATOM     13  C   UNL     1      -7.463  -5.217  -1.002  0.00  0.00    +0.045 C 
ENDBRANCH   2  11
ENDBRANCH   1   3
BRANCH   1  14
ATOM     14  S   UNL     1      -2.733  -0.582   0.042  0.00  0.00    -0.075 S 
BRANCH  14  15
ATOM     15  C   UNL     1      -1.007  -0.932   0.037  0.00  0.00    +0.214 A 
ATOM     16  N   UNL     1      -0.463  -2.124   0.032  0.00  0.00    -0.119 NA
ATOM     17  N   UNL     1       0.929  -1.970   0.030  0.00  0.00    -0.108 NA
ATOM     18  C   UNL     1       1.196  -0.685   0.034  0.00  0.00    +0.254 A 
ATOM     19  N   UNL     1       0.003  -0.005   0.038  0.00  0.00    -0.172 N 
ATOM     20  N   UNL     1      -0.016   1.395   0.042  0.00  0.00    -0.161 NA
ATOM     21  C   UNL     1       1.095   2.068   0.042  0.00  0.00    +0.123 A 
ATOM     22  C   UNL     1       2.380   1.358   0.038  0.00  0.00    +0.274 A 
ATOM     23  O   UNL     1       3.426   1.981   0.038  0.00  0.00    -0.266 OA
ATOM     24  N   UNL     1       2.392   0.009   0.034  0.00  0.00    -0.289 N 
ATOM     25  H   UNL     1       3.235  -0.471   0.031  0.00  0.00    +0.172 HD
ATOM     26  C   UNL     1       1.065   3.575   0.046  0.00  0.00    +0.073 C 
ENDBRANCH  14  15
ENDBRANCH   1  14
TORSDOF 4
