REMARK  Name = ZINC03440107
REMARK  12 active torsions:
REMARK  status: ('A' for Active; 'I' for Inactive)
REMARK    1  A    between atoms: C_1  and  C_2
REMARK    2  A    between atoms: C_2  and  C_3
REMARK    3  A    between atoms: C_3  and  C_5
REMARK    4  A    between atoms: C_3  and  N_60
REMARK    5  A    between atoms: C_8  and  S_17
REMARK    6  A    between atoms: N_9  and  C_10
REMARK    7  A    between atoms: C_10  and  C_11
REMARK    8  A    between atoms: S_17  and  C_18
REMARK    9  A    between atoms: C_20  and  C_28
REMARK   10  A    between atoms: C_25  and  C_27
REMARK   11  A    between atoms: C_33  and  N_60
REMARK   12  A    between atoms: C_34  and  N_60
REMARK                            x       y       z     vdW  Elec       q    Type
REMARK                         _______ _______ _______ _____ _____    ______ ____
ROOT
ATOM      1  C   UNL     1      -3.355   1.587   2.397  0.00  0.00    +0.121 A 
ATOM      2  N   UNL     1      -3.395   1.120   3.614  0.00  0.00    -0.135 NA
ATOM      3  N   UNL     1      -2.748   0.011   3.681  0.00  0.00    -0.122 NA
ATOM      4  C   UNL     1      -2.261  -0.294   2.501  0.00  0.00    +0.198 A 
ATOM      5  N   UNL     1      -2.629   0.705   1.646  0.00  0.00    -0.303 N 
ENDROOT
BRANCH   1   6
ATOM      6  C   UNL     1      -3.992   2.863   1.909  0.00  0.00    +0.000 C 
BRANCH   6   9
ATOM      7  C   UNL     1      -6.151   1.812   1.603  0.00  0.00    -0.096 C 
ATOM      8  C   UNL     1      -5.567   2.774   3.746  0.00  0.00    -0.096 C 
ATOM      9  N   UNL     1      -5.422   2.904   2.281  0.00  0.00    +0.383 N 
ATOM     10  H   UNL     1      -5.818   3.804   1.985  0.00  0.00    -0.082 HD
ENDBRANCH   6   9
BRANCH   6  12
ATOM     11  C   UNL     1      -3.844   5.356   1.952  0.00  0.00    +0.002 C 
ATOM     12  C   UNL     1      -3.281   4.061   2.542  0.00  0.00    -0.011 C 
ENDBRANCH   6  12
ENDBRANCH   1   6
BRANCH   5  13
ATOM     13  C   UNL     1      -2.316   0.808   0.219  0.00  0.00    +0.160 C 
BRANCH  13  14
ATOM     14  C   UNL     1      -1.020   1.556   0.041  0.00  0.00    -0.028 A 
ATOM     15  C   UNL     1       0.178   0.868   0.018  0.00  0.00    +0.005 A 
ATOM     16  C   UNL     1       1.366   1.553  -0.150  0.00  0.00    +0.000 A 
ATOM     17  C   UNL     1       1.357   2.929  -0.291  0.00  0.00    +0.000 A 
ATOM     18  C   UNL     1       0.159   3.618  -0.262  0.00  0.00    +0.000 A 
ATOM     19  C   UNL     1      -1.030   2.932  -0.093  0.00  0.00    +0.005 A 
ENDBRANCH  13  14
ENDBRANCH   5  13
BRANCH   4  20
ATOM     20  S   UNL     1      -1.310  -1.720   2.097  0.00  0.00    -0.029 S 
BRANCH  20  21
ATOM     21  C   UNL     1      -1.256  -2.508   3.672  0.00  0.00    +0.117 A 
ATOM     22  C   UNL     1      -0.573  -3.744   3.835  0.00  0.00    +0.048 A 
ATOM     23  C   UNL     1       0.151  -4.544   2.852  0.00  0.00    +0.008 A 
ATOM     24  C   UNL     1       0.727  -5.703   3.253  0.00  0.00    +0.057 A 
ATOM     25  S   UNL     1       0.336  -5.782   4.991  0.00  0.00    -0.076 S 
ATOM     26  C   UNL     1      -0.592  -4.279   5.139  0.00  0.00    +0.113 A 
ATOM     27  N   UNL     1      -1.216  -3.663   6.126  0.00  0.00    -0.225 NA
ATOM     28  C   UNL     1      -1.837  -2.520   5.912  0.00  0.00    +0.128 A 
ATOM     29  N   UNL     1      -1.855  -1.959   4.717  0.00  0.00    -0.225 NA
ATOM     30  C   UNL     1      -2.542  -1.839   7.057  0.00  0.00    +0.088 C 
BRANCH  23  31
ATOM     31  C   UNL     1       0.254  -4.098   1.446  0.00  0.00    +0.021 A 
ATOM     32  C   UNL     1       0.767  -2.931   0.947  0.00  0.00    +0.016 A 
ATOM     33  C   UNL     1       0.756  -2.734  -0.418  0.00  0.00    +0.008 A 
ATOM     34  C   UNL     1       0.241  -3.699  -1.221  0.00  0.00    +0.046 A 
ATOM     35  S   UNL     1      -0.251  -4.945  -0.042  0.00  0.00    -0.097 S 
ENDBRANCH  23  31
ENDBRANCH  20  21
ENDBRANCH   4  20
TORSDOF 8
