REMARK  Name = ZINC08719272
REMARK  6 active torsions:
REMARK  status: ('A' for Active; 'I' for Inactive)
REMARK    1  A    between atoms: C_1  and  C_2
REMARK    2  A    between atoms: C_3  and  C_25
REMARK    3  A    between atoms: C_7  and  N_18
REMARK    4  A    between atoms: C_9  and  C_11
REMARK    5  A    between atoms: C_11  and  N_53
REMARK    6  A    between atoms: C_14  and  C_17
REMARK                            x       y       z     vdW  Elec       q    Type
REMARK                         _______ _______ _______ _____ _____    ______ ____
ROOT
ATOM      1  C   UNL     1      -0.709   7.473  -7.774  0.00  0.00    +0.045 C 
ATOM      2  C   UNL     1      -1.471   7.300  -6.485  0.00  0.00    -0.028 A 
ATOM      3  C   UNL     1      -2.803   7.455  -6.459  0.00  0.00    -0.008 A 
ATOM      4  S   UNL     1      -3.224   7.155  -4.753  0.00  0.00    -0.074 S 
ATOM      5  C   UNL     1      -1.599   6.830  -4.121  0.00  0.00    +0.114 A 
ATOM      6  C   UNL     1      -0.772   6.964  -5.257  0.00  0.00    +0.051 A 
ATOM      7  C   UNL     1       0.615   6.750  -5.030  0.00  0.00    +0.134 A 
ATOM      8  N   UNL     1       1.031   6.454  -3.809  0.00  0.00    -0.219 NA
ATOM      9  C   UNL     1       0.197   6.340  -2.791  0.00  0.00    +0.116 A 
ATOM     10  N   UNL     1      -1.100   6.527  -2.939  0.00  0.00    -0.227 NA
ATOM     11  C   UNL     1      -3.725   7.800  -7.600  0.00  0.00    +0.052 C 
ENDROOT
BRANCH   7  12
ATOM     12  N   UNL     1       1.520   6.854  -6.071  0.00  0.00    -0.304 N 
ATOM     13  C   UNL     1       2.229   5.582  -6.284  0.00  0.00    +0.126 C 
ATOM     14  C   UNL     1       2.975   5.653  -7.617  0.00  0.00    +0.123 C 
ATOM     15  N   UNL     1       3.765   6.880  -7.684  0.00  0.00    -0.313 N 
ATOM     16  C   UNL     1       3.544   7.931  -6.889  0.00  0.00    +0.230 C 
ATOM     17  O   UNL     1       4.228   8.922  -7.032  0.00  0.00    -0.274 OA
ATOM     18  C   UNL     1       2.483   7.936  -5.825  0.00  0.00    +0.202 C 
ATOM     19  H   UNL     1       4.483   6.934  -8.335  0.00  0.00    +0.149 HD
ENDBRANCH   7  12
BRANCH   9  20
ATOM     20  C   UNL     1       0.741   5.995  -1.428  0.00  0.00    -0.001 C 
BRANCH  20  27
ATOM     21  C   UNL     1       1.492   4.151  -0.052  0.00  0.00    -0.078 C 
ATOM     22  C   UNL     1       1.611   2.626   0.012  0.00  0.00    -0.016 C 
ATOM     23  C   UNL     1       0.210   2.010   0.028  0.00  0.00    -0.018 C 
ATOM     24  C   UNL     1      -0.554   2.465  -1.218  0.00  0.00    -0.016 C 
ATOM     25  C   UNL     1      -0.610   3.994  -1.246  0.00  0.00    -0.078 C 
ATOM     26  C   UNL     1       0.322   0.484   0.030  0.00  0.00    +0.007 C 
ATOM     27  N   UNL     1       0.770   4.524  -1.286  0.00  0.00    +0.384 N 
ATOM     28  H   UNL     1       1.259   4.121  -2.093  0.00  0.00    -0.081 HD
ENDBRANCH  20  27
ENDBRANCH   9  20
TORSDOF 3
