REMARK  Name = ZINC09730593
REMARK  7 active torsions:
REMARK  status: ('A' for Active; 'I' for Inactive)
REMARK    1  A    between atoms: C_4  and  C_7
REMARK    2  A    between atoms: N_9  and  C_10
REMARK    3  A    between atoms: C_10  and  C_21
REMARK    4  A    between atoms: C_11  and  C_12
REMARK    5  A    between atoms: N_23  and  N_24
REMARK    6  A    between atoms: C_25  and  C_26
REMARK    7  A    between atoms: C_31  and  O_32
REMARK                            x       y       z     vdW  Elec       q    Type
REMARK                         _______ _______ _______ _____ _____    ______ ____
ROOT
ATOM      1  C   UNL     1      -1.033   2.030   0.132  0.00  0.00    +0.098 C 
ATOM      2  C   UNL     1       0.197   1.614   0.517  0.00  0.00    +0.036 C 
ENDROOT
BRANCH   2   3
ATOM      3  C   UNL     1       0.346   0.362   1.273  0.00  0.00    -0.019 A 
ATOM      4  C   UNL     1      -0.646  -0.034   2.177  0.00  0.00    +0.012 A 
ATOM      5  C   UNL     1      -0.506  -1.211   2.880  0.00  0.00    +0.050 A 
ATOM      6  C   UNL     1       0.621  -2.002   2.703  0.00  0.00    +0.166 A 
ATOM      7  C   UNL     1       1.617  -1.610   1.807  0.00  0.00    +0.167 A 
ATOM      8  C   UNL     1       1.482  -0.435   1.095  0.00  0.00    +0.057 A 
ATOM      9  O   UNL     1       2.607  -2.551   1.818  0.00  0.00    -0.453 OA
ATOM     10  C   UNL     1       2.019  -3.720   2.420  0.00  0.00    +0.466 C 
ATOM     11  O   UNL     1       0.990  -3.186   3.273  0.00  0.00    -0.453 OA
ENDBRANCH   2   3
BRANCH   1  14
ATOM     12  C   UNL     1      -2.409   3.684  -0.884  0.00  0.00    +0.248 C 
ATOM     13  O   UNL     1      -3.384   2.991  -0.665  0.00  0.00    -0.270 OA
ATOM     14  N   UNL     1      -1.192   3.287  -0.462  0.00  0.00    -0.277 N 
ATOM     15  H   UNL     1      -0.426   3.873  -0.569  0.00  0.00    +0.155 HD
BRANCH  12  19
ATOM     16  C   UNL     1      -2.837   7.353  -2.980  0.00  0.00    +0.000 A 
ATOM     17  C   UNL     1      -3.948   6.567  -2.733  0.00  0.00    +0.001 A 
ATOM     18  C   UNL     1      -3.816   5.374  -2.053  0.00  0.00    +0.013 A 
ATOM     19  C   UNL     1      -2.558   4.960  -1.614  0.00  0.00    +0.037 A 
ATOM     20  C   UNL     1      -1.441   5.761  -1.862  0.00  0.00    +0.013 A 
ATOM     21  C   UNL     1      -1.586   6.949  -2.547  0.00  0.00    +0.001 A 
ENDBRANCH  12  19
ENDBRANCH   1  14
BRANCH   1  22
ATOM     22  C   UNL     1      -2.200   1.163   0.339  0.00  0.00    +0.277 C 
ATOM     23  O   UNL     1      -2.999   1.418   1.220  0.00  0.00    -0.267 OA
ATOM     24  N   UNL     1      -2.385   0.085  -0.448  0.00  0.00    -0.202 N 
ATOM     25  H   UNL     1      -1.712  -0.160  -1.103  0.00  0.00    +0.178 HD
BRANCH  24  26
ATOM     26  N   UNL     1      -3.550  -0.683  -0.321  0.00  0.00    -0.187 NA
ATOM     27  C   UNL     1      -3.686  -1.775  -1.010  0.00  0.00    +0.142 C 
BRANCH  27  28
ATOM     28  C   UNL     1      -4.954  -2.524  -0.961  0.00  0.00    +0.039 A 
ATOM     29  C   UNL     1      -5.104  -3.700  -1.700  0.00  0.00    +0.033 A 
ATOM     30  C   UNL     1      -6.295  -4.397  -1.650  0.00  0.00    +0.043 A 
ATOM     31  C   UNL     1      -7.342  -3.934  -0.870  0.00  0.00    +0.043 A 
ATOM     32  C   UNL     1      -7.205  -2.771  -0.134  0.00  0.00    +0.084 A 
ATOM     33  C   UNL     1      -6.014  -2.063  -0.169  0.00  0.00    +0.144 A 
ATOM     34 CL   UNL     1      -8.525  -2.202   0.840  0.00  0.00    -0.080 Cl
ATOM     35 CL   UNL     1      -6.480  -5.858  -2.569  0.00  0.00    -0.083 Cl
BRANCH  33  36
ATOM     36  O   UNL     1      -5.877  -0.923   0.558  0.00  0.00    -0.505 OA
ATOM     37  H   UNL     1      -6.142  -0.122   0.086  0.00  0.00    +0.292 HD
ENDBRANCH  33  36
ENDBRANCH  27  28
ENDBRANCH  24  26
ENDBRANCH   1  22
TORSDOF 7
