REMARK  Name = ZINC22582917
REMARK  9 active torsions:
REMARK  status: ('A' for Active; 'I' for Inactive)
REMARK    1  A    between atoms: C_1  and  C_2
REMARK    2  A    between atoms: N_13  and  C_28
REMARK    3  A    between atoms: C_14  and  S_16
REMARK    4  A    between atoms: S_16  and  C_17
REMARK    5  A    between atoms: C_17  and  C_19
REMARK    6  A    between atoms: C_17  and  C_22
REMARK    7  A    between atoms: C_19  and  C_20
REMARK    8  A    between atoms: C_19  and  C_21
REMARK    9  A    between atoms: C_28  and  C_29
REMARK                            x       y       z     vdW  Elec       q    Type
REMARK                         _______ _______ _______ _____ _____    ______ ____
ROOT
ATOM      1  C   UNL     1      -3.365   0.062  -2.041  0.00  0.00    +0.008 C 
ATOM      2  C   UNL     1      -2.546   0.027  -0.749  0.00  0.00    -0.009 C 
ATOM      3  C   UNL     1      -1.162   0.631  -1.001  0.00  0.00    +0.008 C 
ATOM      4  C   UNL     1      -0.257   0.377   0.205  0.00  0.00    +0.037 C 
ATOM      5  C   UNL     1      -0.962   0.864   1.468  0.00  0.00    -0.023 A 
ATOM      6  C   UNL     1      -2.303   1.062   1.471  0.00  0.00    -0.004 A 
ATOM      7  S   UNL     1      -2.686   1.617   3.113  0.00  0.00    -0.073 S 
ATOM      8  C   UNL     1      -1.049   1.584   3.791  0.00  0.00    +0.117 A 
ATOM      9  C   UNL     1      -0.256   1.138   2.708  0.00  0.00    +0.076 A 
ATOM     10  C   UNL     1       1.152   1.003   2.940  0.00  0.00    +0.263 A 
ATOM     11  O   UNL     1       1.918   0.627   2.070  0.00  0.00    -0.267 OA
ATOM     12  N   UNL     1       1.579   1.319   4.185  0.00  0.00    -0.285 N 
ATOM     13  C   UNL     1       0.740   1.742   5.171  0.00  0.00    +0.173 A 
ATOM     14  N   UNL     1      -0.567   1.878   4.991  0.00  0.00    -0.216 NA
ATOM     15  C   UNL     1      -3.254   0.855   0.333  0.00  0.00    +0.046 C 
ENDROOT
BRANCH  13  16
ATOM     16  S   UNL     1       1.419   2.124   6.752  0.00  0.00    -0.075 S 
BRANCH  16  17
ATOM     17  C   UNL     1      -0.057   2.762   7.583  0.00  0.00    +0.143 C 
BRANCH  17  18
ATOM     18  C   UNL     1      -0.460   4.072   6.955  0.00  0.00    +0.234 C 
ATOM     19  O   UNL     1       0.346   4.708   6.311  0.00  0.00    -0.274 OA
ATOM     20  N   UNL     1      -1.716   4.534   7.110  0.00  0.00    -0.239 N 
ATOM     21  C   UNL     1      -2.077   5.705   6.548  0.00  0.00    +0.303 C 
ATOM     22  O   UNL     1      -1.269   6.344   5.903  0.00  0.00    -0.253 OA
ATOM     23  N   UNL     1      -3.333   6.168   6.703  0.00  0.00    -0.313 N 
ATOM     24  H   UNL     1      -2.447   3.956   7.694  0.00  0.00    +0.159 HD
ATOM     25  H   UNL     1      -3.627   7.124   6.245  0.00  0.00    +0.146 HD
ATOM     26  H   UNL     1      -4.064   5.590   7.287  0.00  0.00    +0.146 HD
ENDBRANCH  17  18
BRANCH  17  27
ATOM     27  C   UNL     1       0.247   2.980   9.066  0.00  0.00    +0.005 C 
ATOM     28  C   UNL     1      -0.991   3.551   9.762  0.00  0.00    +0.009 C 
ATOM     29  C   UNL     1       0.623   1.644   9.711  0.00  0.00    +0.009 C 
ENDBRANCH  17  27
ENDBRANCH  16  17
ENDBRANCH  13  16
BRANCH  12  30
ATOM     30  C   UNL     1       3.008   1.201   4.486  0.00  0.00    +0.159 C 
BRANCH  30  31
ATOM     31  C   UNL     1       3.305  -0.206   5.006  0.00  0.00    +0.138 C 
ATOM     32  C   UNL     1       4.785  -0.305   5.433  0.00  0.00    +0.035 C 
ATOM     33  C   UNL     1       5.174  -1.728   4.947  0.00  0.00    +0.031 C 
ATOM     34  C   UNL     1       4.320  -1.843   3.659  0.00  0.00    +0.160 C 
ATOM     35  O   UNL     1       3.090  -1.165   3.963  0.00  0.00    -0.375 OA
ENDBRANCH  30  31
ENDBRANCH  12  30
TORSDOF 6
