REMARK  Name = ZINC04674985
REMARK  9 active torsions:
REMARK  status: ('A' for Active; 'I' for Inactive)
REMARK    1  A    between atoms: C_1  and  C_2
REMARK    2  A    between atoms: C_5  and  S_8
REMARK    3  A    between atoms: S_8  and  O_11
REMARK    4  A    between atoms: O_11  and  C_12
REMARK    5  A    between atoms: C_15  and  C_18
REMARK    6  A    between atoms: C_20  and  C_27
REMARK    7  A    between atoms: C_21  and  C_26
REMARK    8  A    between atoms: C_27  and  O_29
REMARK    9  A    between atoms: O_29  and  C_30
REMARK                            x       y       z     vdW  Elec       q    Type
REMARK                         _______ _______ _______ _____ _____    ______ ____
ROOT
ATOM      1  C   UNL     1       2.861  -1.323   2.402  0.00  0.00    +0.157 A 
ATOM      2  C   UNL     1       2.930  -0.993   1.056  0.00  0.00    +0.049 A 
ATOM      3  C   UNL     1       1.998  -1.502   0.172  0.00  0.00    +0.009 A 
ATOM      4  C   UNL     1       0.997  -2.340   0.628  0.00  0.00    -0.022 A 
ATOM      5  C   UNL     1       0.922  -2.666   1.970  0.00  0.00    +0.009 A 
ATOM      6  C   UNL     1       1.855  -2.164   2.857  0.00  0.00    +0.049 A 
ENDROOT
BRANCH   4   7
ATOM      7  C   UNL     1      -0.019  -2.893  -0.338  0.00  0.00    +0.143 C 
ATOM      8  C   UNL     1      -1.280  -2.063  -0.217  0.00  0.00    +0.078 C 
ATOM      9  C   UNL     1      -2.423  -2.700   0.117  0.00  0.00    +0.021 C 
ATOM     10  N   UNL     1      -2.442  -4.049   0.328  0.00  0.00    -0.273 N 
ATOM     11  C   UNL     1      -1.358  -4.830   0.234  0.00  0.00    +0.304 C 
ATOM     12  O   UNL     1      -1.473  -6.022   0.444  0.00  0.00    -0.252 OA
ATOM     13  N   UNL     1      -0.145  -4.338  -0.085  0.00  0.00    -0.288 N 
ATOM     14  C   UNL     1      -3.699  -1.911   0.254  0.00  0.00    +0.061 C 
ATOM     15  H   UNL     1      -3.286  -4.464   0.562  0.00  0.00    +0.156 HD
ATOM     16  H   UNL     1       0.627  -4.923  -0.148  0.00  0.00    +0.151 HD
BRANCH   8  17
ATOM     17  C   UNL     1      -1.260  -0.666  -0.440  0.00  0.00    +0.338 C 
ATOM     18  O   UNL     1      -2.301  -0.036  -0.444  0.00  0.00    -0.245 OA
BRANCH  17  19
ATOM     19  O   UNL     1      -0.087  -0.033  -0.648  0.00  0.00    -0.465 OA
ATOM     20  C   UNL     1      -0.142   1.379  -0.867  0.00  0.00    +0.280 C 
ENDBRANCH  17  19
ENDBRANCH   8  17
ENDBRANCH   4   7
BRANCH   1  21
ATOM     21  O   UNL     1       3.776  -0.823   3.273  0.00  0.00    -0.342 OA
BRANCH  21  22
ATOM     22  S   UNL     1       3.374   0.505   3.898  0.00  0.00    +0.151 S 
ATOM     23  O   UNL     1       4.511   0.981   4.606  0.00  0.00    -0.131 OA
ATOM     24  O   UNL     1       2.743   1.262   2.874  0.00  0.00    -0.131 OA
BRANCH  22  29
ATOM     25  C   UNL     1      -0.862  -0.674   8.030  0.00  0.00    +0.044 C 
ATOM     26  C   UNL     1       0.196  -0.379   6.998  0.00  0.00    -0.050 A 
ATOM     27  C   UNL     1       1.531  -0.380   7.357  0.00  0.00    +0.005 A 
ATOM     28  C   UNL     1       2.502  -0.109   6.411  0.00  0.00    +0.031 A 
ATOM     29  C   UNL     1       2.137   0.161   5.105  0.00  0.00    +0.128 A 
ATOM     30  C   UNL     1       0.802   0.166   4.747  0.00  0.00    +0.031 A 
ATOM     31  C   UNL     1      -0.168  -0.108   5.693  0.00  0.00    +0.005 A 
ENDBRANCH  22  29
ENDBRANCH  21  22
ENDBRANCH   1  21
TORSDOF 6
