REMARK  Name = ZINC55142484
REMARK  12 active torsions:
REMARK  status: ('A' for Active; 'I' for Inactive)
REMARK    1  A    between atoms: C_1  and  C_2
REMARK    2  A    between atoms: C_2  and  O_30
REMARK    3  A    between atoms: C_6  and  O_10
REMARK    4  A    between atoms: C_11  and  C_22
REMARK    5  A    between atoms: C_13  and  C_15
REMARK    6  A    between atoms: C_15  and  O_17
REMARK    7  A    between atoms: O_17  and  C_18
REMARK    8  A    between atoms: C_18  and  C_19
REMARK    9  A    between atoms: C_18  and  C_20
REMARK   10  A    between atoms: C_18  and  C_21
REMARK   11  A    between atoms: C_25  and  O_28
REMARK   12  A    between atoms: O_28  and  C_29
REMARK                            x       y       z     vdW  Elec       q    Type
REMARK                         _______ _______ _______ _____ _____    ______ ____
ROOT
ATOM      1  C   UNL     1      -0.019   1.526   0.010  0.00  0.00    +0.042 C 
ATOM      2  C   UNL     1       0.002  -0.004   0.002  0.00  0.00    +0.082 C 
ATOM      3  C   UNL     1      -1.437  -0.535   0.012  0.00  0.00    +0.090 C 
ATOM      4  C   UNL     1      -2.040  -0.248   1.365  0.00  0.00    +0.046 A 
ATOM      5  C   UNL     1      -1.317   0.074   2.467  0.00  0.00    +0.044 A 
ATOM      6  C   UNL     1      -2.209   0.270   3.525  0.00  0.00    +0.235 A 
ATOM      7  N   UNL     1      -3.426   0.070   3.071  0.00  0.00    -0.136 NA
ATOM      8  H   UNL     1      -4.084  -0.459   1.122  0.00  0.00    +0.189 HD
ATOM      9  N   UNL     1      -3.338  -0.259   1.710  0.00  0.00    -0.278 N 
ATOM     10  C   UNL     1       0.186   0.185   2.491  0.00  0.00    +0.072 C 
ATOM     11  C   UNL     1       0.743  -0.511   1.242  0.00  0.00    +0.141 C 
ENDROOT
BRANCH  10  12
ATOM     12  C   UNL     1       0.726  -0.485   3.728  0.00  0.00    -0.039 A 
ATOM     13  C   UNL     1       0.494  -1.831   3.941  0.00  0.00    +0.008 A 
ATOM     14  C   UNL     1       0.987  -2.447   5.075  0.00  0.00    +0.046 A 
ATOM     15  C   UNL     1       1.715  -1.714   6.001  0.00  0.00    +0.120 A 
ATOM     16  C   UNL     1       1.946  -0.363   5.785  0.00  0.00    +0.046 A 
ATOM     17  C   UNL     1       1.456   0.247   4.647  0.00  0.00    +0.008 A 
BRANCH  15  18
ATOM     18  O   UNL     1       2.200  -2.318   7.117  0.00  0.00    -0.495 OA
ATOM     19  C   UNL     1       2.941  -1.502   8.026  0.00  0.00    +0.277 C 
ENDBRANCH  15  18
ENDBRANCH  10  12
BRANCH   6  20
ATOM     20  O   UNL     1      -1.877   0.607   4.799  0.00  0.00    -0.491 OA
ATOM     21  H   UNL     1      -1.842   1.561   4.957  0.00  0.00    +0.294 HD
ENDBRANCH   6  20
BRANCH  11  22
ATOM     22  C   UNL     1       2.212  -0.205   1.110  0.00  0.00    +0.314 C 
ATOM     23  O   UNL     1       2.625   0.359   0.125  0.00  0.00    -0.250 OA
BRANCH  22  24
ATOM     24  O   UNL     1       3.062  -0.561   2.086  0.00  0.00    -0.459 OA
BRANCH  24  25
ATOM     25  C   UNL     1       4.442  -0.240   1.894  0.00  0.00    +0.105 C 
ATOM     26  C   UNL     1       4.597   1.275   1.745  0.00  0.00    +0.055 C 
ATOM     27  C   UNL     1       5.250  -0.719   3.101  0.00  0.00    +0.055 C 
ATOM     28  C   UNL     1       4.955  -0.932   0.629  0.00  0.00    +0.055 C 
ENDBRANCH  24  25
ENDBRANCH  22  24
ENDBRANCH  11  22
BRANCH   2  29
ATOM     29  O   UNL     1       0.671  -0.465  -1.174  0.00  0.00    -0.388 OA
ATOM     30  H   UNL     1       0.256  -0.180  -1.999  0.00  0.00    +0.210 HD
ENDBRANCH   2  29
TORSDOF 7
