REMARK  Name = ZINC39657774
REMARK  8 active torsions:
REMARK  status: ('A' for Active; 'I' for Inactive)
REMARK    1  A    between atoms: C_4  and  S_31
REMARK    2  A    between atoms: C_5  and  C_7
REMARK    3  A    between atoms: C_7  and  N_8
REMARK    4  A    between atoms: C_9  and  C_11
REMARK    5  A    between atoms: C_22  and  C_24
REMARK    6  A    between atoms: S_31  and  C_32
REMARK    7  A    between atoms: C_37  and  C_38
REMARK    8  A    between atoms: C_38  and  O_39
REMARK                            x       y       z     vdW  Elec       q    Type
REMARK                         _______ _______ _______ _____ _____    ______ ____
ROOT
ATOM      1  N   UNL     1       2.463  -3.720   0.795  0.00  0.00    -0.311 N 
ATOM      2  C   UNL     1       1.351  -4.018   1.496  0.00  0.00    +0.218 C 
ATOM      3  O   UNL     1       0.257  -3.822   1.011  0.00  0.00    -0.275 OA
ATOM      4  H   UNL     1       3.338  -3.876   1.184  0.00  0.00    +0.149 HD
ENDROOT
BRANCH   2   5
ATOM      5  C   UNL     1       1.468  -4.595   2.884  0.00  0.00    +0.100 C 
ATOM      6  C   UNL     1       0.213  -4.250   3.717  0.00  0.00    +0.121 C 
ATOM      7  N   UNL     1      -0.671  -5.430   3.570  0.00  0.00    -0.300 N 
ATOM      8  C   UNL     1       0.252  -6.590   3.618  0.00  0.00    +0.115 C 
ATOM      9  C   UNL     1       1.491  -6.132   2.824  0.00  0.00    -0.004 C 
ATOM     10  C   UNL     1       1.394  -6.606   1.377  0.00  0.00    -0.010 C 
ATOM     11  C   UNL     1       1.477  -8.135   1.339  0.00  0.00    -0.082 C 
ATOM     12  N   UNL     1       2.745  -8.573   1.935  0.00  0.00    +0.379 N 
ATOM     13  C   UNL     1       2.791  -8.193   3.352  0.00  0.00    -0.082 C 
ATOM     14  C   UNL     1       2.763  -6.667   3.475  0.00  0.00    -0.010 C 
ATOM     15  C   UNL     1      -2.011  -5.446   3.425  0.00  0.00    +0.219 C 
ATOM     16  O   UNL     1      -2.596  -6.503   3.317  0.00  0.00    -0.275 OA
ATOM     17  H   UNL     1       2.825  -9.575   1.854  0.00  0.00    -0.086 HD
ATOM     18  H   UNL     1       3.513  -8.137   1.447  0.00  0.00    -0.086 HD
BRANCH  15  19
ATOM     19  C   UNL     1      -2.781  -4.151   3.399  0.00  0.00    +0.079 C 
ATOM     20  C   UNL     1      -4.278  -4.445   3.236  0.00  0.00    +0.017 C 
ATOM     21  C   UNL     1      -5.012  -3.118   3.034  0.00  0.00    +0.027 C 
ATOM     22  C   UNL     1      -4.597  -2.132   4.086  0.00  0.00    -0.031 C 
ATOM     23  C   UNL     1      -3.535  -2.254   4.816  0.00  0.00    -0.030 C 
ATOM     24  C   UNL     1      -2.571  -3.401   4.716  0.00  0.00    +0.039 C 
ENDBRANCH  15  19
ENDBRANCH   2   5
BRANCH   1  25
ATOM     25  C   UNL     1       2.350  -3.159  -0.553  0.00  0.00    +0.140 C 
BRANCH  25  30
ATOM     26  C   UNL     1       5.533  -1.424  -1.609  0.00  0.00    +0.000 A 
ATOM     27  C   UNL     1       6.260  -2.472  -2.145  0.00  0.00    +0.001 A 
ATOM     28  C   UNL     1       5.725  -3.744  -2.168  0.00  0.00    +0.015 A 
ATOM     29  C   UNL     1       4.455  -3.972  -1.652  0.00  0.00    +0.017 A 
ATOM     30  C   UNL     1       3.728  -2.917  -1.114  0.00  0.00    -0.017 A 
ATOM     31  C   UNL     1       4.269  -1.646  -1.094  0.00  0.00    +0.006 A 
BRANCH  29  32
ATOM     32  S   UNL     1       3.768  -5.594  -1.679  0.00  0.00    -0.089 S 
BRANCH  32  33
ATOM     33  C   UNL     1       4.934  -6.535  -2.606  0.00  0.00    +0.018 A 
ATOM     34  C   UNL     1       5.811  -7.394  -1.955  0.00  0.00    +0.015 A 
ATOM     35  C   UNL     1       6.723  -8.130  -2.684  0.00  0.00    +0.001 A 
ATOM     36  C   UNL     1       6.765  -8.013  -4.062  0.00  0.00    +0.000 A 
ATOM     37  C   UNL     1       5.894  -7.160  -4.714  0.00  0.00    +0.007 A 
ATOM     38  C   UNL     1       4.975  -6.424  -3.991  0.00  0.00    -0.008 A 
BRANCH  38  39
ATOM     39  C   UNL     1       4.023  -5.498  -4.702  0.00  0.00    +0.192 C 
BRANCH  39  40
ATOM     40  O   UNL     1       4.260  -5.560  -6.110  0.00  0.00    -0.390 OA
ATOM     41  H   UNL     1       3.682  -4.988  -6.632  0.00  0.00    +0.210 HD
ENDBRANCH  39  40
ENDBRANCH  38  39
ENDBRANCH  32  33
ENDBRANCH  29  32
ENDBRANCH  25  30
ENDBRANCH   1  25
TORSDOF 8
