REMARK  Name = ZINC62298317
REMARK  3 active torsions:
REMARK  status: ('A' for Active; 'I' for Inactive)
REMARK    1  A    between atoms: C_1  and  N_2
REMARK    2  A    between atoms: C_3  and  C_9
REMARK    3  A    between atoms: C_4  and  C_7
REMARK                            x       y       z     vdW  Elec       q    Type
REMARK                         _______ _______ _______ _____ _____    ______ ____
ROOT
ATOM      1  C   UNL     1      -0.018   1.461   0.010  0.00  0.00    +0.175 C 
ATOM      2  N   UNL     1       0.002  -0.004   0.002  0.00  0.00    -0.246 N 
ATOM      3  C   UNL     1       0.008  -0.813  -1.097  0.00  0.00    +0.106 A 
ATOM      4  C   UNL     1       0.029  -2.118  -0.618  0.00  0.00    +0.189 A 
ATOM      5  N   UNL     1       0.034  -2.070   0.724  0.00  0.00    -0.118 NA
ATOM      6  N   UNL     1       0.025  -0.847   1.122  0.00  0.00    -0.064 NA
ENDROOT
BRANCH   3   7
ATOM      7  C   UNL     1      -0.005  -0.387  -2.511  0.00  0.00    +0.003 A 
ATOM      8  C   UNL     1      -0.871   0.624  -2.931  0.00  0.00    +0.011 A 
ATOM      9  C   UNL     1      -0.878   1.018  -4.253  0.00  0.00    +0.016 A 
ATOM     10  C   UNL     1      -0.028   0.411  -5.163  0.00  0.00    +0.018 A 
ATOM     11  C   UNL     1       0.833  -0.592  -4.753  0.00  0.00    +0.016 A 
ATOM     12  C   UNL     1       0.853  -0.991  -3.433  0.00  0.00    +0.011 A 
ATOM     13 BR   UNL     1      -0.045   0.956  -6.974  0.00  0.00    -0.050 Br
ENDBRANCH   3   7
BRANCH   4  14
ATOM     14  C   UNL     1       0.041  -3.306  -1.417  0.00  0.00    +0.123 C 
ATOM     15  N   UNL     1       0.051  -4.249  -2.051  0.00  0.00    -0.189 NA
ENDBRANCH   4  14
TORSDOF 2
