REMARK  Name = ZINC14458372
REMARK  4 active torsions:
REMARK  status: ('A' for Active; 'I' for Inactive)
REMARK    1  A    between atoms: C_1  and  C_2
REMARK    2  A    between atoms: C_5  and  C_8
REMARK    3  A    between atoms: C_19  and  N_25
REMARK    4  A    between atoms: C_21  and  O_24
REMARK                            x       y       z     vdW  Elec       q    Type
REMARK                         _______ _______ _______ _____ _____    ______ ____
ROOT
ATOM      1  C   UNL     1      -2.534   5.228   0.108  0.00  0.00    +0.105 C 
ATOM      2  C   UNL     1      -1.381   5.741  -0.729  0.00  0.00    +0.029 C 
ATOM      3  C   UNL     1      -1.116   7.250  -0.742  0.00  0.00    +0.033 C 
ATOM      4  C   UNL     1       0.395   7.293  -0.981  0.00  0.00    -0.030 C 
ATOM      5  C   UNL     1       0.955   6.174  -0.534  0.00  0.00    -0.023 C 
ATOM      6  C   UNL     1      -0.103   5.322   0.063  0.00  0.00    +0.049 C 
ATOM      7  C   UNL     1      -0.048   3.844   0.030  0.00  0.00    -0.014 A 
ATOM      8  C   UNL     1       1.152   3.163   0.014  0.00  0.00    +0.039 A 
ATOM      9  C   UNL     1       1.177   1.782   0.000  0.00  0.00    +0.130 A 
ATOM     10  C   UNL     1      -0.013   1.076   0.008  0.00  0.00    +0.080 A 
ATOM     11  C   UNL     1      -1.218   1.748   0.017  0.00  0.00    +0.140 A 
ATOM     12  C   UNL     1      -1.258   3.148   0.028  0.00  0.00    +0.074 A 
ATOM     13  N   UNL     1      -2.513   3.759   0.018  0.00  0.00    -0.334 N 
ATOM     14  H   UNL     1      -3.066   3.436  -0.762  0.00  0.00    +0.147 HD
ENDROOT
BRANCH   1  19
ATOM     15  C   UNL     1      -7.531   7.257  -1.967  0.00  0.00    +0.044 C 
ATOM     16  C   UNL     1      -6.228   6.728  -1.426  0.00  0.00    -0.050 A 
ATOM     17  C   UNL     1      -5.643   7.326  -0.326  0.00  0.00    +0.004 A 
ATOM     18  C   UNL     1      -4.447   6.840   0.171  0.00  0.00    +0.006 A 
ATOM     19  C   UNL     1      -3.837   5.757  -0.433  0.00  0.00    -0.027 A 
ATOM     20  C   UNL     1      -4.420   5.162  -1.537  0.00  0.00    +0.006 A 
ATOM     21  C   UNL     1      -5.617   5.645  -2.031  0.00  0.00    +0.004 A 
ENDBRANCH   1  19
BRANCH   9  22
ATOM     22  N   UNL     1       2.470   1.061  -0.022  0.00  0.00    +0.057 N 
ATOM     23  O   UNL     1       2.488  -0.157  -0.035  0.00  0.00    -0.126 OA
ATOM     24  O   UNL     1       3.515   1.686  -0.029  0.00  0.00    -0.126 OA
ENDBRANCH   9  22
BRANCH  11  25
ATOM     25  O   UNL     1      -2.381   1.043   0.022  0.00  0.00    -0.505 OA
ATOM     26  H   UNL     1      -2.713   0.836   0.906  0.00  0.00    +0.292 HD
ENDBRANCH  11  25
TORSDOF 3
