REMARK  Name = ZINC39600677
REMARK  7 active torsions:
REMARK  status: ('A' for Active; 'I' for Inactive)
REMARK    1  A    between atoms: C_1  and  C_2
REMARK    2  A    between atoms: C_2  and  C_3
REMARK    3  A    between atoms: C_3  and  C_4
REMARK    4  A    between atoms: C_4  and  C_5
REMARK    5  A    between atoms: C_9  and  C_18
REMARK    6  A    between atoms: N_20  and  C_21
REMARK    7  A    between atoms: C_21  and  C_22
REMARK                            x       y       z     vdW  Elec       q    Type
REMARK                         _______ _______ _______ _____ _____    ______ ____
ROOT
ATOM      1  C   UNL     1      -2.985  -2.606  -0.018  0.00  0.00    +0.216 C 
ATOM      2  O   UNL     1      -3.935  -1.855   0.049  0.00  0.00    -0.276 OA
ATOM      3  N   UNL     1      -3.177  -3.940   0.011  0.00  0.00    -0.300 N 
ATOM      4  C   UNL     1      -2.151  -5.007  -0.052  0.00  0.00    +0.121 C 
ATOM      5  C   UNL     1      -2.640  -6.080   0.946  0.00  0.00    +0.100 C 
ATOM      6  C   UNL     1      -4.158  -5.855   1.050  0.00  0.00    -0.004 C 
ATOM      7  C   UNL     1      -4.463  -4.671   0.121  0.00  0.00    +0.115 C 
ATOM      8  C   UNL     1      -4.910  -7.099   0.585  0.00  0.00    -0.010 C 
ATOM      9  C   UNL     1      -6.415  -6.873   0.752  0.00  0.00    -0.082 C 
ATOM     10  N   UNL     1      -6.716  -6.593   2.162  0.00  0.00    +0.379 N 
ATOM     11  C   UNL     1      -6.064  -5.345   2.575  0.00  0.00    -0.082 C 
ATOM     12  C   UNL     1      -4.544  -5.506   2.485  0.00  0.00    -0.010 C 
ATOM     13  H   UNL     1      -7.714  -6.505   2.280  0.00  0.00    -0.086 HD
ATOM     14  H   UNL     1      -6.378  -7.353   2.733  0.00  0.00    -0.086 HD
ENDROOT
BRANCH   5  15
ATOM     15  C   UNL     1      -2.347  -7.460   0.419  0.00  0.00    +0.218 C 
ATOM     16  O   UNL     1      -2.334  -7.663  -0.777  0.00  0.00    -0.275 OA
ATOM     17  N   UNL     1      -2.098  -8.470   1.276  0.00  0.00    -0.311 N 
ATOM     18  H   UNL     1      -2.107  -8.308   2.232  0.00  0.00    +0.149 HD
BRANCH  17  19
ATOM     19  C   UNL     1      -1.812  -9.812   0.763  0.00  0.00    +0.142 C 
BRANCH  19  20
ATOM     20  C   UNL     1      -1.571 -10.750   1.918  0.00  0.00    +0.006 A 
ATOM     21  C   UNL     1      -0.279 -11.076   2.286  0.00  0.00    +0.023 A 
ATOM     22  C   UNL     1      -0.057 -11.936   3.346  0.00  0.00    +0.018 A 
ATOM     23  C   UNL     1      -1.129 -12.473   4.038  0.00  0.00    +0.018 A 
ATOM     24  C   UNL     1      -2.421 -12.148   3.671  0.00  0.00    +0.040 A 
ATOM     25  C   UNL     1      -2.643 -11.282   2.614  0.00  0.00    +0.128 A 
ATOM     26  F   UNL     1      -3.906 -10.960   2.258  0.00  0.00    -0.205 F 
ATOM     27 BR   UNL     1       1.710 -12.381   3.849  0.00  0.00    -0.050 Br
ENDBRANCH  19  20
ENDBRANCH  17  19
ENDBRANCH   5  15
BRANCH   1  28
ATOM     28  C   UNL     1      -1.590  -2.048  -0.135  0.00  0.00    +0.096 C 
BRANCH  28  29
ATOM     29  C   UNL     1      -1.652  -0.519  -0.146  0.00  0.00    +0.009 C 
BRANCH  29  31
ATOM     30  C   UNL     1      -0.297   1.576  -0.276  0.00  0.00    +0.004 C 
ATOM     31  C   UNL     1      -0.235   0.047  -0.264  0.00  0.00    -0.003 C 
ENDBRANCH  29  31
ENDBRANCH  28  29
ENDBRANCH   1  28
TORSDOF 6
