REMARK  Name = ZINC05109752
REMARK  8 active torsions:
REMARK  status: ('A' for Active; 'I' for Inactive)
REMARK    1  A    between atoms: C_1  and  C_2
REMARK    2  A    between atoms: C_2  and  C_3
REMARK    3  A    between atoms: C_2  and  C_4
REMARK    4  A    between atoms: C_4  and  N_5
REMARK    5  A    between atoms: C_6  and  N_25
REMARK    6  A    between atoms: C_7  and  C_14
REMARK    7  A    between atoms: N_10  and  C_13
REMARK    8  A    between atoms: C_17  and  C_19
REMARK                            x       y       z     vdW  Elec       q    Type
REMARK                         _______ _______ _______ _____ _____    ______ ____
ROOT
ATOM      1  N   UNL     1      -0.050   0.988   2.425  0.00  0.00    -0.281 N 
ATOM      2  C   UNL     1       0.984   1.639   3.051  0.00  0.00    +0.115 A 
ATOM      3  C   UNL     1       1.535   1.086   4.199  0.00  0.00    +0.103 A 
ATOM      4  C   UNL     1       1.009  -0.134   4.684  0.00  0.00    +0.267 A 
ATOM      5  O   UNL     1       1.471  -0.645   5.689  0.00  0.00    -0.267 OA
ATOM      6  N   UNL     1      -0.006  -0.726   4.025  0.00  0.00    -0.263 N 
ATOM      7  C   UNL     1      -0.527  -0.169   2.918  0.00  0.00    +0.333 A 
ATOM      8  O   UNL     1      -1.447  -0.725   2.349  0.00  0.00    -0.246 OA
ATOM      9  C   UNL     1      -0.553  -1.990   4.525  0.00  0.00    +0.157 C 
ENDROOT
BRANCH   3  10
ATOM     10  C   UNL     1       2.652   1.762   4.903  0.00  0.00    +0.087 A 
ATOM     11  C   UNL     1       3.279   1.147   5.955  0.00  0.00    +0.075 A 
ATOM     12  S   UNL     1       4.495   2.385   6.386  0.00  0.00    -0.075 S 
ATOM     13  C   UNL     1       4.043   3.584   5.140  0.00  0.00    +0.109 A 
ATOM     14  N   UNL     1       3.047   2.962   4.525  0.00  0.00    -0.239 NA
BRANCH  13  15
ATOM     15  C   UNL     1       4.625   4.915   4.867  0.00  0.00    +0.007 A 
ATOM     16  C   UNL     1       4.122   5.701   3.829  0.00  0.00    +0.010 A 
ATOM     17  C   UNL     1       4.666   6.945   3.583  0.00  0.00    +0.001 A 
ATOM     18  C   UNL     1       5.715   7.409   4.356  0.00  0.00    +0.000 A 
ATOM     19  C   UNL     1       6.222   6.633   5.383  0.00  0.00    +0.001 A 
ATOM     20  C   UNL     1       5.684   5.390   5.643  0.00  0.00    +0.010 A 
ENDBRANCH  13  15
ENDBRANCH   3  10
BRANCH   2  21
ATOM     21  N   UNL     1       1.465   2.820   2.549  0.00  0.00    -0.344 N 
ATOM     22  H   UNL     1       0.891   3.388   2.011  0.00  0.00    +0.144 HD
ATOM     23  H   UNL     1       2.378   3.089   2.733  0.00  0.00    +0.144 HD
ENDBRANCH   2  21
BRANCH   1  24
ATOM     24  C   UNL     1      -0.641   1.559   1.212  0.00  0.00    +0.131 C 
BRANCH  24  26
ATOM     25  C   UNL     1       1.546   1.532   0.005  0.00  0.00    +0.009 C 
ATOM     26  C   UNL     1       0.101   1.029  -0.016  0.00  0.00    +0.003 C 
ATOM     27  C   UNL     1      -0.593   1.526  -1.286  0.00  0.00    +0.009 C 
ENDBRANCH  24  26
ENDBRANCH   1  24
TORSDOF 5
