REMARK  Name = ZINC16804782
REMARK  10 active torsions:
REMARK  status: ('A' for Active; 'I' for Inactive)
REMARK    1  A    between atoms: C_1  and  O_2
REMARK    2  A    between atoms: O_2  and  C_3
REMARK    3  A    between atoms: C_8  and  N_9
REMARK    4  A    between atoms: N_9  and  C_10
REMARK    5  A    between atoms: C_10  and  C_11
REMARK    6  A    between atoms: C_11  and  C_12
REMARK    7  A    between atoms: C_15  and  C_17
REMARK    8  A    between atoms: C_17  and  S_18
REMARK    9  A    between atoms: S_18  and  C_19
REMARK   10  A    between atoms: N_21  and  C_25
REMARK                            x       y       z     vdW  Elec       q    Type
REMARK                         _______ _______ _______ _____ _____    ______ ____
ROOT
ATOM      1  N   UNL     1      -0.698   1.558   1.213  0.00  0.00    -0.267 N 
ATOM      2  C   UNL     1      -1.675   0.814   1.769  0.00  0.00    +0.230 C 
ATOM      3  O   UNL     1      -1.986  -0.248   1.271  0.00  0.00    -0.274 OA
ENDROOT
BRANCH   1   9
ATOM      4  C   UNL     1       0.657   2.835   2.760  0.00  0.00    +0.141 A 
ATOM      5  C   UNL     1       1.008   4.050   3.326  0.00  0.00    +0.047 A 
ATOM      6  C   UNL     1       0.370   5.209   2.925  0.00  0.00    +0.004 A 
ATOM      7  C   UNL     1      -0.619   5.160   1.960  0.00  0.00    +0.002 A 
ATOM      8  C   UNL     1      -0.971   3.952   1.388  0.00  0.00    +0.027 A 
ATOM      9  C   UNL     1      -0.339   2.784   1.789  0.00  0.00    +0.078 A 
BRANCH   4  11
ATOM     10  C   UNL     1       2.297   1.821   4.154  0.00  0.00    +0.277 C 
ATOM     11  O   UNL     1       1.285   1.694   3.153  0.00  0.00    -0.493 OA
ENDBRANCH   4  11
ENDBRANCH   1   9
BRANCH   1  12
ATOM     12  C   UNL     1      -0.013   1.086   0.008  0.00  0.00    +0.123 C 
BRANCH  12  13
ATOM     13  C   UNL     1      -0.753   1.593  -1.232  0.00  0.00    +0.115 C 
BRANCH  13  14
ATOM     14  C   UNL     1      -0.047   1.107  -2.471  0.00  0.00    +0.212 C 
ATOM     15  O   UNL     1       0.949   0.422  -2.373  0.00  0.00    -0.276 OA
ATOM     16  N   UNL     1      -0.524   1.433  -3.689  0.00  0.00    -0.329 N 
ATOM     17  H   UNL     1      -1.321   1.980  -3.768  0.00  0.00    +0.145 HD
ATOM     18  H   UNL     1      -0.070   1.120  -4.487  0.00  0.00    +0.145 HD
ENDBRANCH  13  14
ENDBRANCH  12  13
ENDBRANCH   1  12
BRANCH   2  19
ATOM     19  C   UNL     1      -2.380   1.300   3.009  0.00  0.00    +0.172 C 
BRANCH  19  20
ATOM     20  S   UNL     1      -3.629   0.087   3.507  0.00  0.00    -0.088 S 
BRANCH  20  21
ATOM     21  C   UNL     1      -4.278   0.887   4.936  0.00  0.00    +0.158 A 
ATOM     22  N   UNL     1      -5.232   0.490   5.741  0.00  0.00    -0.151 NA
ATOM     23  N   UNL     1      -5.600   1.261   6.820  0.00  0.00    -0.217 N 
ATOM     24  C   UNL     1      -4.963   2.441   7.024  0.00  0.00    +0.150 A 
ATOM     25  S   UNL     1      -5.198   3.604   8.258  0.00  0.00    -0.023 S 
ATOM     26  S   UNL     1      -3.811   2.452   5.659  0.00  0.00    -0.034 S 
BRANCH  23  27
ATOM     27  C   UNL     1      -6.615   0.838   7.685  0.00  0.00    +0.067 A 
ATOM     28  C   UNL     1      -6.534   1.121   9.043  0.00  0.00    +0.029 A 
ATOM     29  C   UNL     1      -7.540   0.708   9.894  0.00  0.00    +0.022 A 
ATOM     30  C   UNL     1      -8.621   0.002   9.398  0.00  0.00    +0.041 A 
ATOM     31  C   UNL     1      -8.702  -0.287   8.047  0.00  0.00    +0.022 A 
ATOM     32  C   UNL     1      -7.702   0.129   7.190  0.00  0.00    +0.029 A 
ATOM     33 CL   UNL     1      -9.880  -0.524  10.472  0.00  0.00    -0.084 Cl
ENDBRANCH  23  27
ENDBRANCH  20  21
ENDBRANCH  19  20
ENDBRANCH   2  19
TORSDOF 9
