REMARK  Name = ZINC35645768
REMARK  14 active torsions:
REMARK  status: ('A' for Active; 'I' for Inactive)
REMARK    1  A    between atoms: C_3  and  O_10
REMARK    2  A    between atoms: C_6  and  N_7
REMARK    3  A    between atoms: O_10  and  C_11
REMARK    4  A    between atoms: C_13  and  O_42
REMARK    5  A    between atoms: C_15  and  O_41
REMARK    6  A    between atoms: C_17  and  O_40
REMARK    7  A    between atoms: C_19  and  C_22
REMARK    8  A    between atoms: C_22  and  O_23
REMARK    9  A    between atoms: O_23  and  C_24
REMARK   10  A    between atoms: C_26  and  O_39
REMARK   11  A    between atoms: C_28  and  O_38
REMARK   12  A    between atoms: C_30  and  O_37
REMARK   13  A    between atoms: C_32  and  C_35
REMARK   14  A    between atoms: C_35  and  O_36
REMARK                            x       y       z     vdW  Elec       q    Type
REMARK                         _______ _______ _______ _____ _____    ______ ____
ROOT
ATOM      1  C   UNL     1       4.756   1.341  -0.037  0.00  0.00    +0.339 C 
ATOM      2  C   UNL     1       5.955   2.284  -0.169  0.00  0.00    +0.214 C 
ATOM      3  C   UNL     1       7.248   1.464  -0.124  0.00  0.00    +0.180 C 
ATOM      4  C   UNL     1       7.284   0.658   1.178  0.00  0.00    +0.177 C 
ATOM      5  C   UNL     1       6.034  -0.223   1.258  0.00  0.00    +0.179 C 
ATOM      6  O   UNL     1       4.867   0.599   1.180  0.00  0.00    -0.331 OA
ENDROOT
BRANCH   4   7
ATOM      7  O   UNL     1       8.452  -0.165   1.198  0.00  0.00    -0.386 OA
ATOM      8  H   UNL     1       9.281   0.329   1.145  0.00  0.00    +0.210 HD
ENDBRANCH   4   7
BRANCH   3   9
ATOM      9  O   UNL     1       7.288   0.574  -1.241  0.00  0.00    -0.386 OA
ATOM     10  H   UNL     1       7.262   1.018  -2.100  0.00  0.00    +0.210 HD
ENDBRANCH   3   9
BRANCH   2  11
ATOM     11  O   UNL     1       5.945   3.222   0.909  0.00  0.00    -0.383 OA
ATOM     12  H   UNL     1       5.151   3.773   0.944  0.00  0.00    +0.210 HD
ENDBRANCH   2  11
BRANCH   1  13
ATOM     13  O   UNL     1       3.548   2.104  -0.021  0.00  0.00    -0.461 OA
BRANCH  13  16
ATOM     14  C   UNL     1      -0.017   1.378   0.010  0.00  0.00    +0.036 A 
ATOM     15  C   UNL     1       1.169   2.087   0.002  0.00  0.00    +0.048 A 
ATOM     16  C   UNL     1       2.380   1.409  -0.013  0.00  0.00    +0.124 A 
ATOM     17  C   UNL     1       2.396   0.022  -0.021  0.00  0.00    +0.048 A 
ATOM     18  C   UNL     1       1.207  -0.681  -0.013  0.00  0.00    +0.036 A 
ATOM     19  C   UNL     1       0.002  -0.004   0.002  0.00  0.00    +0.126 A 
BRANCH  19  20
ATOM     20  N   UNL     1      -1.270  -0.760   0.011  0.00  0.00    +0.056 N 
ATOM     21  O   UNL     1      -2.325  -0.169   0.024  0.00  0.00    -0.126 OA
ATOM     22  O   UNL     1      -1.255  -1.969   0.004  0.00  0.00    -0.126 OA
ENDBRANCH  19  20
ENDBRANCH  13  16
ENDBRANCH   1  13
BRANCH   5  23
ATOM     23  C   UNL     1       6.032  -0.987   2.583  0.00  0.00    +0.197 C 
BRANCH  23  24
ATOM     24  O   UNL     1       4.929  -1.895   2.609  0.00  0.00    -0.346 OA
BRANCH  24  25
ATOM     25  C   UNL     1       4.836  -2.662   3.810  0.00  0.00    +0.282 C 
ATOM     26  C   UNL     1       3.786  -3.763   3.633  0.00  0.00    +0.201 C 
ATOM     27  C   UNL     1       3.648  -4.543   4.944  0.00  0.00    +0.179 C 
ATOM     28  C   UNL     1       3.285  -3.568   6.069  0.00  0.00    +0.177 C 
ATOM     29  C   UNL     1       4.354  -2.475   6.152  0.00  0.00    +0.178 C 
ATOM     30  O   UNL     1       4.452  -1.810   4.891  0.00  0.00    -0.341 OA
BRANCH  28  31
ATOM     31  O   UNL     1       3.223  -4.274   7.310  0.00  0.00    -0.386 OA
ATOM     32  H   UNL     1       2.568  -4.985   7.326  0.00  0.00    +0.210 HD
ENDBRANCH  28  31
BRANCH  27  33
ATOM     33  O   UNL     1       2.620  -5.526   4.810  0.00  0.00    -0.386 OA
ATOM     34  H   UNL     1       2.783  -6.173   4.110  0.00  0.00    +0.210 HD
ENDBRANCH  27  33
BRANCH  26  35
ATOM     35  O   UNL     1       4.195  -4.649   2.589  0.00  0.00    -0.384 OA
ATOM     36  H   UNL     1       4.307  -4.220   1.730  0.00  0.00    +0.210 HD
ENDBRANCH  26  35
BRANCH  29  37
ATOM     37  C   UNL     1       3.967  -1.465   7.234  0.00  0.00    +0.190 C 
BRANCH  37  38
ATOM     38  O   UNL     1       5.019  -0.511   7.393  0.00  0.00    -0.392 OA
ATOM     39  H   UNL     1       4.841   0.162   8.064  0.00  0.00    +0.210 HD
ENDBRANCH  37  38
ENDBRANCH  29  37
ENDBRANCH  24  25
ENDBRANCH  23  24
ENDBRANCH   5  23
TORSDOF 14
