REMARK  Name = ZINC35749836
REMARK  8 active torsions:
REMARK  status: ('A' for Active; 'I' for Inactive)
REMARK    1  A    between atoms: C_2  and  C_3
REMARK    2  A    between atoms: C_3  and  N_4
REMARK    3  A    between atoms: C_5  and  C_7
REMARK    4  A    between atoms: C_7  and  C_9
REMARK    5  A    between atoms: C_7  and  N_25
REMARK    6  A    between atoms: N_12  and  S_15
REMARK    7  A    between atoms: S_15  and  C_18
REMARK    8  A    between atoms: C_26  and  C_28
REMARK                            x       y       z     vdW  Elec       q    Type
REMARK                         _______ _______ _______ _____ _____    ______ ____
ROOT
ATOM      1  C   UNL     1       2.589  -3.343   2.503  0.00  0.00    +0.162 C 
ENDROOT
BRANCH   1   2
ATOM      2  C   UNL     1       1.513  -4.430   2.450  0.00  0.00    +0.021 C 
ATOM      3  C   UNL     1       0.135  -3.777   2.322  0.00  0.00    +0.023 C 
ATOM      4  C   UNL     1      -0.937  -4.869   2.235  0.00  0.00    +0.110 C 
ATOM      5  N   UNL     1      -0.797  -5.761   3.393  0.00  0.00    -0.177 NA
ATOM      6  C   UNL     1       0.512  -6.372   3.661  0.00  0.00    +0.110 C 
ATOM      7  C   UNL     1       1.567  -5.264   3.732  0.00  0.00    +0.023 C 
BRANCH   5   8
ATOM      8  S   UNL     1      -2.091  -6.074   4.378  0.00  0.00    +0.061 S 
ATOM      9  O   UNL     1      -1.559  -6.461   5.637  0.00  0.00    -0.153 OA
ATOM     10  O   UNL     1      -2.986  -4.979   4.232  0.00  0.00    -0.153 OA
BRANCH   8  11
ATOM     11  C   UNL     1      -2.915  -7.488   3.724  0.00  0.00    +0.106 A 
ATOM     12  C   UNL     1      -3.920  -7.330   2.787  0.00  0.00    +0.030 A 
ATOM     13  C   UNL     1      -4.566  -8.439   2.274  0.00  0.00    +0.022 A 
ATOM     14  C   UNL     1      -4.207  -9.706   2.697  0.00  0.00    +0.041 A 
ATOM     15  C   UNL     1      -3.201  -9.863   3.634  0.00  0.00    +0.022 A 
ATOM     16  C   UNL     1      -2.552  -8.754   4.142  0.00  0.00    +0.030 A 
ATOM     17 CL   UNL     1      -5.019 -11.099   2.053  0.00  0.00    -0.084 Cl
ENDBRANCH   8  11
ENDBRANCH   5   8
ENDBRANCH   1   2
BRANCH   1  19
ATOM     18  N   UNL     1       1.698  -1.408   1.247  0.00  0.00    -0.310 N 
ATOM     19  C   UNL     1       2.502  -2.490   1.264  0.00  0.00    +0.234 C 
ATOM     20  O   UNL     1       3.154  -2.776   0.283  0.00  0.00    -0.274 OA
ATOM     21  H   UNL     1       1.121  -1.220   2.003  0.00  0.00    +0.149 HD
BRANCH  18  22
ATOM     22  C   UNL     1       1.697  -0.515   0.085  0.00  0.00    +0.131 C 
BRANCH  22  24
ATOM     23  C   UNL     1       1.117   1.853   0.223  0.00  0.00    +0.005 C 
ATOM     24  C   UNL     1       0.719   0.608   0.316  0.00  0.00    -0.016 C 
ENDBRANCH  22  24
ENDBRANCH  18  22
ENDBRANCH   1  19
BRANCH   1  25
ATOM     25  N   UNL     1       3.912  -3.969   2.572  0.00  0.00    -0.300 N 
ATOM     26  C   UNL     1       4.946  -3.299   3.118  0.00  0.00    +0.245 C 
ATOM     27  O   UNL     1       4.781  -2.175   3.552  0.00  0.00    -0.270 OA
ATOM     28  H   UNL     1       4.043  -4.865   2.226  0.00  0.00    +0.150 HD
BRANCH  26  29
ATOM     29  C   UNL     1       6.279  -3.929   3.188  0.00  0.00    +0.040 A 
ATOM     30  C   UNL     1       6.472  -5.218   2.684  0.00  0.00    +0.017 A 
ATOM     31  C   UNL     1       7.717  -5.804   2.750  0.00  0.00    +0.050 A 
ATOM     32  C   UNL     1       8.783  -5.119   3.316  0.00  0.00    +0.166 A 
ATOM     33  C   UNL     1       8.597  -3.831   3.821  0.00  0.00    +0.167 A 
ATOM     34  C   UNL     1       7.353  -3.236   3.753  0.00  0.00    +0.062 A 
ATOM     35  O   UNL     1       9.788  -3.382   4.317  0.00  0.00    -0.453 OA
ATOM     36  C   UNL     1      10.603  -4.558   4.481  0.00  0.00    +0.466 C 
ATOM     37  O   UNL     1      10.088  -5.472   3.495  0.00  0.00    -0.453 OA
ENDBRANCH  26  29
ENDBRANCH   1  25
TORSDOF 8
