REMARK  Name = ZINC67148535
REMARK  9 active torsions:
REMARK  status: ('A' for Active; 'I' for Inactive)
REMARK    1  A    between atoms: C_1  and  C_2
REMARK    2  A    between atoms: C_3  and  C_9
REMARK    3  A    between atoms: C_4  and  C_8
REMARK    4  A    between atoms: N_5  and  C_7
REMARK    5  A    between atoms: C_9  and  C_11
REMARK    6  A    between atoms: C_9  and  N_12
REMARK    7  A    between atoms: C_13  and  C_15
REMARK    8  A    between atoms: C_16  and  C_30
REMARK    9  A    between atoms: N_17  and  C_20
REMARK                            x       y       z     vdW  Elec       q    Type
REMARK                         _______ _______ _______ _____ _____    ______ ____
ROOT
ATOM      1  C   UNL     1       2.432   2.128  -4.115  0.00  0.00    +0.170 A 
ATOM      2  C   UNL     1       3.037   2.509  -5.279  0.00  0.00    +0.074 A 
ATOM      3  N   UNL     1       3.883   3.515  -4.968  0.00  0.00    -0.216 N 
ATOM      4  N   UNL     1       3.770   3.727  -3.587  0.00  0.00    -0.060 NA
ATOM      5  N   UNL     1       2.904   2.897  -3.118  0.00  0.00    -0.124 NA
ATOM      6  C   UNL     1       2.804   1.921  -6.647  0.00  0.00    +0.068 C 
ENDROOT
BRANCH   3   7
ATOM      7  C   UNL     1       4.715   4.213  -5.856  0.00  0.00    +0.071 A 
ATOM      8  C   UNL     1       4.235   4.599  -7.100  0.00  0.00    +0.031 A 
ATOM      9  C   UNL     1       5.054   5.284  -7.976  0.00  0.00    +0.051 A 
ATOM     10  C   UNL     1       6.359   5.590  -7.615  0.00  0.00    +0.162 A 
ATOM     11  C   UNL     1       6.842   5.207  -6.369  0.00  0.00    +0.164 A 
ATOM     12  C   UNL     1       6.017   4.522  -5.489  0.00  0.00    +0.077 A 
ATOM     13  O   UNL     1       8.116   5.504  -5.995  0.00  0.00    -0.485 OA
ATOM     14  C   UNL     1       9.026   5.866  -7.039  0.00  0.00    +0.270 C 
ATOM     15  C   UNL     1       8.327   6.880  -7.955  0.00  0.00    +0.270 C 
ATOM     16  O   UNL     1       7.153   6.263  -8.493  0.00  0.00    -0.485 OA
ENDBRANCH   3   7
BRANCH   1  18
ATOM     17  N   UNL     1       0.900   0.781  -2.766  0.00  0.00    -0.303 N 
ATOM     18  C   UNL     1       1.427   1.057  -3.975  0.00  0.00    +0.266 C 
ATOM     19  O   UNL     1       1.074   0.424  -4.952  0.00  0.00    -0.268 OA
ATOM     20  H   UNL     1       1.181   1.286  -1.987  0.00  0.00    +0.150 HD
BRANCH  17  21
ATOM     21  C   UNL     1      -0.098  -0.282  -2.628  0.00  0.00    +0.104 C 
ATOM     22  C   UNL     1      -1.487   0.278  -2.942  0.00  0.00    +0.033 C 
BRANCH  21  25
ATOM     23  C   UNL     1       0.003   1.465   0.014  0.00  0.00    +0.068 C 
ATOM     24  C   UNL     1      -0.033  -0.040  -0.050  0.00  0.00    +0.065 A 
ATOM     25  C   UNL     1      -0.077  -0.811  -1.217  0.00  0.00    +0.016 A 
ATOM     26  C   UNL     1      -0.099  -2.114  -0.854  0.00  0.00    +0.041 A 
ATOM     27  N   UNL     1      -0.069  -2.166   0.494  0.00  0.00    -0.271 N 
ATOM     28  N   UNL     1      -0.023  -0.852   0.976  0.00  0.00    -0.176 NA
ATOM     29  C   UNL     1      -0.079  -3.383   1.310  0.00  0.00    +0.172 C 
ATOM     30  C   UNL     1      -0.148  -3.296  -1.788  0.00  0.00    +0.065 C 
ENDBRANCH  21  25
ENDBRANCH  17  21
ENDBRANCH   1  18
TORSDOF 4
