REMARK  Name = ZINC13241644
REMARK  7 active torsions:
REMARK  status: ('A' for Active; 'I' for Inactive)
REMARK    1  A    between atoms: C_2  and  C_3
REMARK    2  A    between atoms: C_3  and  N_4
REMARK    3  A    between atoms: C_17  and  S_18
REMARK    4  A    between atoms: S_18  and  C_19
REMARK    5  A    between atoms: C_19  and  C_20
REMARK    6  A    between atoms: N_22  and  C_23
REMARK    7  A    between atoms: C_32  and  C_33
REMARK                            x       y       z     vdW  Elec       q    Type
REMARK                         _______ _______ _______ _____ _____    ______ ____
ROOT
ATOM      1  S   UNL     1      -4.373   5.986   0.234  0.00  0.00    -0.076 S 
ENDROOT
BRANCH   1  15
ATOM      2  N   UNL     1      -8.034   9.594   0.800  0.00  0.00    -0.273 N 
ATOM      3  C   UNL     1      -7.261  10.686   0.632  0.00  0.00    +0.263 A 
ATOM      4  O   UNL     1      -7.744  11.801   0.688  0.00  0.00    -0.267 OA
ATOM      5  C   UNL     1      -5.822  10.504   0.367  0.00  0.00    +0.064 A 
ATOM      6  C   UNL     1      -4.978  11.596   0.176  0.00  0.00    +0.015 A 
ATOM      7  C   UNL     1      -3.637  11.386  -0.068  0.00  0.00    +0.001 A 
ATOM      8  C   UNL     1      -3.128  10.098  -0.124  0.00  0.00    +0.002 A 
ATOM      9  C   UNL     1      -3.954   9.008   0.063  0.00  0.00    +0.027 A 
ATOM     10  C   UNL     1      -5.305   9.201   0.310  0.00  0.00    +0.064 A 
ATOM     11  N   UNL     1      -6.161   8.118   0.504  0.00  0.00    -0.256 N 
ATOM     12  C   UNL     1      -7.493   8.318   0.744  0.00  0.00    +0.240 A 
ATOM     13  N   UNL     1      -8.056   7.140   0.893  0.00  0.00    -0.109 NA
ATOM     14  N   UNL     1      -7.066   6.162   0.740  0.00  0.00    -0.120 NA
ATOM     15  C   UNL     1      -5.928   6.769   0.502  0.00  0.00    +0.198 A 
BRANCH   2  16
ATOM     16  C   UNL     1      -9.466   9.758   1.066  0.00  0.00    +0.155 C 
BRANCH  16  18
ATOM     17  C   UNL     1     -10.333  10.896   3.045  0.00  0.00    +0.005 C 
ATOM     18  C   UNL     1      -9.692   9.865   2.552  0.00  0.00    -0.013 C 
ENDBRANCH  16  18
ENDBRANCH   2  16
ENDBRANCH   1  15
BRANCH   1  19
ATOM     19  C   UNL     1      -4.744   4.216   0.367  0.00  0.00    +0.173 C 
BRANCH  19  20
ATOM     20  C   UNL     1      -3.481   3.421   0.155  0.00  0.00    +0.228 C 
ATOM     21  O   UNL     1      -2.434   3.992  -0.064  0.00  0.00    -0.275 OA
ATOM     22  N   UNL     1      -3.515   2.074   0.210  0.00  0.00    -0.284 N 
ATOM     23  H   UNL     1      -4.364   1.614   0.312  0.00  0.00    +0.155 HD
BRANCH  22  24
ATOM     24  C   UNL     1      -2.332   1.342   0.119  0.00  0.00    +0.048 A 
ATOM     25  C   UNL     1      -1.382   1.704  -0.792  0.00  0.00    +0.032 A 
ATOM     26  C   UNL     1      -0.190   0.969  -0.893  0.00  0.00    -0.016 A 
ATOM     27  C   UNL     1       0.801   1.321  -1.827  0.00  0.00    +0.008 A 
ATOM     28  C   UNL     1       1.949   0.594  -1.899  0.00  0.00    +0.001 A 
ATOM     29  C   UNL     1       2.162  -0.498  -1.058  0.00  0.00    +0.001 A 
ATOM     30  C   UNL     1       1.228  -0.869  -0.141  0.00  0.00    +0.008 A 
ATOM     31  C   UNL     1       0.027  -0.142  -0.037  0.00  0.00    -0.017 A 
ATOM     32  C   UNL     1      -0.955  -0.500   0.898  0.00  0.00    +0.025 A 
ATOM     33  C   UNL     1      -2.126   0.238   0.975  0.00  0.00    +0.085 A 
BRANCH  33  34
ATOM     34  C   UNL     1      -3.162  -0.133   1.956  0.00  0.00    +0.388 C 
ATOM     35  O   UNL     1      -4.173   0.534   2.053  0.00  0.00    -0.241 OA
ATOM     36  O   UNL     1      -2.988  -1.212   2.744  0.00  0.00    -0.241 OA
ENDBRANCH  33  34
ENDBRANCH  22  24
ENDBRANCH  19  20
ENDBRANCH   1  19
TORSDOF 7
