REMARK  Name = ZINC00663461
REMARK  10 active torsions:
REMARK  status: ('A' for Active; 'I' for Inactive)
REMARK    1  A    between atoms: C_1  and  O_2
REMARK    2  A    between atoms: O_2  and  C_3
REMARK    3  A    between atoms: C_3  and  C_5
REMARK    4  A    between atoms: C_6  and  C_22
REMARK    5  A    between atoms: C_8  and  N_21
REMARK    6  A    between atoms: C_9  and  C_19
REMARK    7  A    between atoms: C_10  and  C_12
REMARK    8  A    between atoms: C_22  and  S_23
REMARK    9  A    between atoms: S_23  and  C_24
REMARK   10  A    between atoms: C_25  and  C_36
REMARK                            x       y       z     vdW  Elec       q    Type
REMARK                         _______ _______ _______ _____ _____    ______ ____
ROOT
ATOM      1  C   UNL     1       2.459   0.170   0.275  0.00  0.00    +0.088 C 
ATOM      2  C   UNL     1       2.277   1.494   0.347  0.00  0.00    +0.128 C 
ATOM      3  O   UNL     1       1.093   2.070   0.091  0.00  0.00    -0.444 OA
ATOM      4  C   UNL     1      -0.024   1.323   0.124  0.00  0.00    +0.198 C 
ATOM      5  C   UNL     1       0.017  -0.028   0.034  0.00  0.00    +0.098 C 
ATOM      6  C   UNL     1       1.330  -0.750  -0.104  0.00  0.00    +0.105 C 
ENDROOT
BRANCH   6   7
ATOM      7  C   UNL     1       1.507  -1.200  -1.532  0.00  0.00    -0.034 A 
ATOM      8  C   UNL     1       1.523  -0.267  -2.552  0.00  0.00    +0.007 A 
ATOM      9  C   UNL     1       1.691  -0.677  -3.861  0.00  0.00    +0.038 A 
ATOM     10  C   UNL     1       1.832  -2.024  -4.151  0.00  0.00    +0.123 A 
ATOM     11  C   UNL     1       1.810  -2.957  -3.129  0.00  0.00    +0.038 A 
ATOM     12  C   UNL     1       1.648  -2.544  -1.820  0.00  0.00    +0.007 A 
ATOM     13  F   UNL     1       1.990  -2.427  -5.431  0.00  0.00    -0.205 F 
ENDBRANCH   6   7
BRANCH   4  14
ATOM     14  N   UNL     1      -1.241   1.947   0.246  0.00  0.00    -0.328 N 
ATOM     15  H   UNL     1      -2.056   1.421   0.267  0.00  0.00    +0.145 HD
ATOM     16  H   UNL     1      -1.285   2.914   0.311  0.00  0.00    +0.145 HD
ENDBRANCH   4  14
BRANCH   1  17
ATOM     17  C   UNL     1       3.736  -0.375   0.558  0.00  0.00    +0.339 C 
ATOM     18  O   UNL     1       3.953  -0.883   1.642  0.00  0.00    -0.245 OA
BRANCH  17  20
ATOM     19  C   UNL     1       5.973  -0.897  -0.020  0.00  0.00    +0.280 C 
ATOM     20  O   UNL     1       4.710  -0.329  -0.374  0.00  0.00    -0.465 OA
ENDBRANCH  17  20
ENDBRANCH   1  17
BRANCH   5  21
ATOM     21  C   UNL     1      -1.203  -0.778   0.072  0.00  0.00    +0.101 C 
ATOM     22  N   UNL     1      -2.170  -1.373   0.102  0.00  0.00    -0.191 NA
ENDBRANCH   5  21
BRANCH   2  23
ATOM     23  C   UNL     1       3.442   2.368   0.733  0.00  0.00    +0.150 C 
BRANCH  23  24
ATOM     24  S   UNL     1       4.077   3.210  -0.739  0.00  0.00    -0.097 S 
BRANCH  24  25
ATOM     25  C   UNL     1       5.393   4.135  -0.018  0.00  0.00    +0.115 A 
ATOM     26  C   UNL     1       6.191   4.961  -0.830  0.00  0.00    +0.084 A 
ATOM     27  C   UNL     1       7.226   5.695  -0.236  0.00  0.00    +0.027 A 
ATOM     28  C   UNL     1       7.420   5.561   1.123  0.00  0.00    -0.025 A 
ATOM     29  C   UNL     1       6.598   4.718   1.857  0.00  0.00    +0.046 A 
ATOM     30  N   UNL     1       5.626   4.043   1.284  0.00  0.00    -0.244 NA
ATOM     31  C   UNL     1       6.878   4.602   3.333  0.00  0.00    +0.056 C 
ATOM     32  C   UNL     1       6.254   5.708   4.120  0.00  0.00    +0.006 C 
ATOM     33  C   UNL     1       6.948   7.056   4.138  0.00  0.00    +0.000 C 
ATOM     34  C   UNL     1       6.725   7.792   2.804  0.00  0.00    +0.000 C 
ATOM     35  C   UNL     1       8.065   7.768   2.020  0.00  0.00    +0.005 C 
ATOM     36  C   UNL     1       8.505   6.316   1.842  0.00  0.00    +0.037 C 
BRANCH  26  37
ATOM     37  C   UNL     1       5.947   5.054  -2.238  0.00  0.00    +0.102 C 
ATOM     38  N   UNL     1       5.753   5.128  -3.355  0.00  0.00    -0.191 NA
ENDBRANCH  26  37
ENDBRANCH  24  25
ENDBRANCH  23  24
ENDBRANCH   2  23
TORSDOF 9
