REMARK  Name = ZINC39325087
REMARK  8 active torsions:
REMARK  status: ('A' for Active; 'I' for Inactive)
REMARK    1  A    between atoms: C_1  and  O_2
REMARK    2  A    between atoms: O_2  and  C_3
REMARK    3  A    between atoms: C_8  and  C_15
REMARK    4  A    between atoms: C_15  and  N_16
REMARK    5  A    between atoms: N_16  and  C_17
REMARK    6  A    between atoms: N_16  and  S_24
REMARK    7  A    between atoms: C_17  and  C_18
REMARK    8  A    between atoms: S_24  and  C_27
REMARK                            x       y       z     vdW  Elec       q    Type
REMARK                         _______ _______ _______ _____ _____    ______ ____
ROOT
ATOM      1  N   UNL     1      -5.971  -5.977  -1.149  0.00  0.00    -0.171 NA
ENDROOT
BRANCH   1   2
ATOM      2  S   UNL     1      -4.898  -6.988  -1.902  0.00  0.00    +0.062 S 
ATOM      3  O   UNL     1      -5.637  -8.127  -2.319  0.00  0.00    -0.153 OA
ATOM      4  O   UNL     1      -4.154  -6.188  -2.810  0.00  0.00    -0.153 OA
BRANCH   2   5
ATOM      5  C   UNL     1      -3.761  -7.547  -0.676  0.00  0.00    +0.119 A 
ATOM      6  C   UNL     1      -3.807  -8.857  -0.238  0.00  0.00    +0.029 A 
ATOM      7  C   UNL     1      -2.915  -9.296   0.723  0.00  0.00    +0.002 A 
ATOM      8  C   UNL     1      -1.978  -8.425   1.246  0.00  0.00    +0.001 A 
ATOM      9  C   UNL     1      -1.931  -7.115   0.808  0.00  0.00    +0.017 A 
ATOM     10  C   UNL     1      -2.820  -6.677  -0.158  0.00  0.00    +0.044 A 
ATOM     11 BR   UNL     1      -2.753  -4.886  -0.763  0.00  0.00    -0.048 Br
ENDBRANCH   2   5
ENDBRANCH   1   2
BRANCH   1  12
ATOM     12  C   UNL     1      -5.808  -4.525  -1.256  0.00  0.00    +0.126 C 
BRANCH  12  18
ATOM     13  C   UNL     1      -9.094  -0.631  -4.521  0.00  0.00    +0.122 A 
ATOM     14  C   UNL     1      -8.019   0.115  -4.016  0.00  0.00    +0.046 A 
ATOM     15  C   UNL     1      -6.951  -0.489  -3.442  0.00  0.00    +0.013 A 
ATOM     16  C   UNL     1      -6.925  -1.950  -3.349  0.00  0.00    -0.007 A 
ATOM     17  C   UNL     1      -5.869  -2.592  -2.779  0.00  0.00    -0.003 C 
ATOM     18  C   UNL     1      -5.921  -4.106  -2.723  0.00  0.00    +0.114 C 
ATOM     19  C   UNL     1      -7.142  -4.782  -3.305  0.00  0.00    +0.225 C 
ATOM     20  O   UNL     1      -7.235  -5.995  -3.286  0.00  0.00    -0.275 OA
ATOM     21  N   UNL     1      -8.107  -4.051  -3.834  0.00  0.00    -0.284 N 
ATOM     22  C   UNL     1      -8.065  -2.717  -3.885  0.00  0.00    +0.044 A 
ATOM     23  C   UNL     1      -9.128  -2.007  -4.457  0.00  0.00    +0.069 A 
ATOM     24  H   UNL     1      -8.881  -4.504  -4.202  0.00  0.00    +0.155 HD
BRANCH  13  26
ATOM     25  C   UNL     1     -10.059   1.450  -5.130  0.00  0.00    +0.277 C 
ATOM     26  O   UNL     1     -10.136   0.024  -5.085  0.00  0.00    -0.495 OA
ENDBRANCH  13  26
ENDBRANCH  12  18
ENDBRANCH   1  12
BRANCH   1  27
ATOM     27  C   UNL     1      -7.084  -6.534  -0.376  0.00  0.00    +0.144 C 
BRANCH  27  28
ATOM     28  C   UNL     1      -8.313  -6.605  -1.245  0.00  0.00    -0.032 A 
ATOM     29  C   UNL     1      -9.184  -5.533  -1.299  0.00  0.00    +0.005 A 
ATOM     30  C   UNL     1     -10.312  -5.598  -2.096  0.00  0.00    +0.000 A 
ATOM     31  C   UNL     1     -10.568  -6.736  -2.839  0.00  0.00    +0.000 A 
ATOM     32  C   UNL     1      -9.697  -7.807  -2.785  0.00  0.00    +0.000 A 
ATOM     33  C   UNL     1      -8.567  -7.740  -1.991  0.00  0.00    +0.005 A 
ENDBRANCH  27  28
ENDBRANCH   1  27
TORSDOF 7
