REMARK  Name = ZINC39205179
REMARK  7 active torsions:
REMARK  status: ('A' for Active; 'I' for Inactive)
REMARK    1  A    between atoms: C_1  and  C_2
REMARK    2  A    between atoms: C_2  and  C_3
REMARK    3  A    between atoms: C_3  and  C_5
REMARK    4  A    between atoms: C_3  and  S_23
REMARK    5  A    between atoms: N_7  and  C_8
REMARK    6  A    between atoms: C_10  and  C_21
REMARK    7  A    between atoms: S_23  and  C_24
REMARK                            x       y       z     vdW  Elec       q    Type
REMARK                         _______ _______ _______ _____ _____    ______ ____
ROOT
ATOM      1  C   UNL     1      -1.802  -1.840   0.555  0.00  0.00    +0.227 C 
ATOM      2  O   UNL     1      -2.275  -2.570  -0.290  0.00  0.00    -0.275 OA
ATOM      3  N   UNL     1      -1.319  -2.359   1.701  0.00  0.00    -0.301 N 
ATOM      4  H   UNL     1      -0.872  -1.786   2.342  0.00  0.00    +0.150 HD
ENDROOT
BRANCH   3   5
ATOM      5  C   UNL     1      -1.471  -3.790   1.977  0.00  0.00    +0.148 C 
ATOM      6  C   UNL     1      -0.380  -4.277   2.965  0.00  0.00    +0.126 C 
ATOM      7  C   UNL     1       0.024  -5.712   2.619  0.00  0.00    +0.021 C 
ATOM      8  C   UNL     1       1.233  -6.174   3.406  0.00  0.00    +0.006 C 
ATOM      9  C   UNL     1       2.487  -5.411   2.979  0.00  0.00    +0.000 C 
ATOM     10  C   UNL     1       2.724  -5.655   1.485  0.00  0.00    +0.001 C 
ATOM     11  C   UNL     1       1.537  -5.100   0.700  0.00  0.00    +0.014 C 
ATOM     12  C   UNL     1       0.270  -5.817   1.097  0.00  0.00    +0.053 C 
ATOM     13  S   UNL     1      -1.132  -4.785   0.468  0.00  0.00    -0.134 S 
BRANCH   6  14
ATOM     14  C   UNL     1       0.798  -3.400   2.865  0.00  0.00    +0.069 C 
ATOM     15  N   UNL     1       1.708  -2.724   2.787  0.00  0.00    -0.196 NA
ENDBRANCH   6  14
ENDBRANCH   3   5
BRANCH   1  16
ATOM     16  C   UNL     1      -1.754  -0.351   0.323  0.00  0.00    +0.140 C 
BRANCH  16  18
ATOM     17  C   UNL     1      -0.290   1.555  -0.358  0.00  0.00    +0.005 C 
ATOM     18  C   UNL     1      -0.389   0.032  -0.250  0.00  0.00    +0.020 C 
ENDBRANCH  16  18
BRANCH  16  19
ATOM     19  S   UNL     1      -3.056   0.120  -0.849  0.00  0.00    -0.075 S 
BRANCH  19  20
ATOM     20  C   UNL     1      -4.552  -0.178   0.033  0.00  0.00    +0.168 A 
ATOM     21  N   UNL     1      -4.625  -0.582   1.278  0.00  0.00    -0.222 NA
ATOM     22  C   UNL     1      -5.928  -0.711   1.641  0.00  0.00    +0.090 A 
ATOM     23  C   UNL     1      -6.561  -1.099   2.824  0.00  0.00    +0.030 A 
ATOM     24  C   UNL     1      -7.936  -1.130   2.885  0.00  0.00    +0.002 A 
ATOM     25  C   UNL     1      -8.698  -0.779   1.781  0.00  0.00    +0.002 A 
ATOM     26  C   UNL     1      -8.088  -0.393   0.605  0.00  0.00    +0.028 A 
ATOM     27  C   UNL     1      -6.705  -0.355   0.525  0.00  0.00    +0.067 A 
ATOM     28  N   UNL     1      -5.810  -0.018  -0.477  0.00  0.00    -0.333 N 
ATOM     29  H   UNL     1      -6.034   0.276  -1.374  0.00  0.00    +0.168 HD
ENDBRANCH  19  20
ENDBRANCH  16  19
ENDBRANCH   1  16
TORSDOF 6
