REMARK  Name = ZINC03217980
REMARK  7 active torsions:
REMARK  status: ('A' for Active; 'I' for Inactive)
REMARK    1  A    between atoms: C_1  and  C_2
REMARK    2  A    between atoms: C_2  and  C_4
REMARK    3  A    between atoms: C_2  and  N_14
REMARK    4  A    between atoms: C_15  and  C_17
REMARK    5  A    between atoms: C_21  and  S_23
REMARK    6  A    between atoms: S_23  and  N_26
REMARK    7  A    between atoms: N_26  and  C_27
REMARK                            x       y       z     vdW  Elec       q    Type
REMARK                         _______ _______ _______ _____ _____    ______ ____
ROOT
ATOM      1  C   UNL     1       1.957  -0.549  -6.045  0.00  0.00    +0.039 A 
ATOM      2  C   UNL     1       3.244  -1.089  -6.001  0.00  0.00    +0.014 A 
ATOM      3  C   UNL     1       3.994  -1.169  -7.155  0.00  0.00    +0.023 A 
ATOM      4  C   UNL     1       3.478  -0.706  -8.354  0.00  0.00    +0.068 A 
ATOM      5  C   UNL     1       2.204  -0.164  -8.403  0.00  0.00    +0.127 A 
ATOM      6  C   UNL     1       1.442  -0.083  -7.256  0.00  0.00    +0.043 A 
ATOM      7 CL   UNL     1       4.431  -0.805  -9.802  0.00  0.00    -0.082 Cl
ENDROOT
BRANCH   1   9
ATOM      8  N   UNL     1       1.646  -0.914  -3.644  0.00  0.00    -0.308 N 
ATOM      9  C   UNL     1       1.146  -0.464  -4.812  0.00  0.00    +0.244 C 
ATOM     10  O   UNL     1       0.028   0.011  -4.852  0.00  0.00    -0.270 OA
ATOM     11  H   UNL     1       2.538  -1.294  -3.613  0.00  0.00    +0.149 HD
BRANCH   8  13
ATOM     12  C   UNL     1      -0.076  -2.051  -2.332  0.00  0.00    +0.028 C 
ATOM     13  C   UNL     1       0.841  -0.831  -2.423  0.00  0.00    +0.074 C 
BRANCH  13  14
ATOM     14  C   UNL     1       1.766  -0.796  -1.205  0.00  0.00    +0.012 C 
ATOM     15  C   UNL     1       2.621   0.492  -1.213  0.00  0.00    +0.009 C 
ATOM     16  C   UNL     1       2.222   1.238   0.097  0.00  0.00    -0.010 C 
ATOM     17  C   UNL     1       2.829   0.370   1.241  0.00  0.00    +0.004 C 
ATOM     18  C   UNL     1       1.974  -0.918   1.249  0.00  0.00    +0.004 C 
ATOM     19  C   UNL     1       0.932  -0.707   0.109  0.00  0.00    -0.006 C 
ATOM     20  C   UNL     1       0.707   0.843   0.205  0.00  0.00    +0.007 C 
ENDBRANCH  13  14
ENDBRANCH   8  13
ENDBRANCH   1   9
BRANCH   5  21
ATOM     21  S   UNL     1       1.556   0.423  -9.932  0.00  0.00    +0.074 S 
ATOM     22  O   UNL     1       1.774  -0.607 -10.887  0.00  0.00    -0.150 OA
ATOM     23  O   UNL     1       0.264   0.942  -9.653  0.00  0.00    -0.150 OA
BRANCH  21  24
ATOM     24  N   UNL     1       2.492   1.707 -10.400  0.00  0.00    -0.216 N 
ATOM     25  H   UNL     1       2.989   1.667 -11.232  0.00  0.00    +0.174 HD
BRANCH  24  26
ATOM     26  C   UNL     1       2.564   2.848  -9.596  0.00  0.00    +0.048 A 
ATOM     27  C   UNL     1       1.405   3.401  -9.067  0.00  0.00    +0.026 A 
ATOM     28  C   UNL     1       1.480   4.525  -8.268  0.00  0.00    +0.022 A 
ATOM     29  C   UNL     1       2.708   5.107  -8.005  0.00  0.00    +0.041 A 
ATOM     30  C   UNL     1       3.863   4.562  -8.536  0.00  0.00    +0.022 A 
ATOM     31  C   UNL     1       3.795   3.434  -9.330  0.00  0.00    +0.026 A 
ATOM     32 CL   UNL     1       2.798   6.525  -7.006  0.00  0.00    -0.084 Cl
ENDBRANCH  24  26
ENDBRANCH  21  24
ENDBRANCH   5  21
TORSDOF 6
