REMARK  Name = ZINC05516137
REMARK  6 active torsions:
REMARK  status: ('A' for Active; 'I' for Inactive)
REMARK    1  A    between atoms: C_1  and  C_2
REMARK    2  A    between atoms: C_4  and  C_28
REMARK    3  A    between atoms: C_5  and  N_9
REMARK    4  A    between atoms: C_6  and  C_8
REMARK    5  A    between atoms: N_9  and  S_10
REMARK    6  A    between atoms: S_10  and  C_13
REMARK                            x       y       z     vdW  Elec       q    Type
REMARK                         _______ _______ _______ _____ _____    ______ ____
ROOT
ATOM      1  C   UNL     1       4.993   1.068   1.450  0.00  0.00    +0.110 A 
ATOM      2  C   UNL     1       5.577   0.508   2.551  0.00  0.00    +0.037 A 
ATOM      3  C   UNL     1       5.624   1.220   3.761  0.00  0.00    -0.015 A 
ATOM      4  C   UNL     1       6.212   0.687   4.922  0.00  0.00    +0.008 A 
ATOM      5  C   UNL     1       6.234   1.419   6.075  0.00  0.00    +0.001 A 
ATOM      6  C   UNL     1       5.683   2.693   6.139  0.00  0.00    +0.014 A 
ATOM      7  C   UNL     1       5.094   3.255   5.017  0.00  0.00    +0.046 A 
ATOM      8  C   UNL     1       5.062   2.513   3.814  0.00  0.00    +0.006 A 
ATOM      9  C   UNL     1       4.463   3.077   2.665  0.00  0.00    +0.047 A 
ATOM     10  C   UNL     1       4.441   2.343   1.488  0.00  0.00    +0.042 A 
ATOM     11  C   UNL     1       3.888   4.427   2.759  0.00  0.00    +0.251 C 
ATOM     12  O   UNL     1       3.368   4.932   1.782  0.00  0.00    -0.270 OA
ATOM     13  N   UNL     1       3.935   5.107   3.920  0.00  0.00    -0.248 N 
ATOM     14  C   UNL     1       4.498   4.599   5.032  0.00  0.00    +0.251 C 
ATOM     15  O   UNL     1       4.514   5.256   6.056  0.00  0.00    -0.270 OA
ATOM     16  H   UNL     1       3.549   5.997   3.956  0.00  0.00    +0.158 HD
ENDROOT
BRANCH   1  17
ATOM     17  S   UNL     1       4.946   0.154  -0.056  0.00  0.00    +0.072 S 
ATOM     18  O   UNL     1       5.940  -0.855   0.050  0.00  0.00    -0.150 OA
ATOM     19  O   UNL     1       4.938   1.108  -1.109  0.00  0.00    -0.150 OA
BRANCH  17  20
ATOM     20  N   UNL     1       3.485  -0.624  -0.111  0.00  0.00    -0.216 N 
ATOM     21  H   UNL     1       3.450  -1.592  -0.067  0.00  0.00    +0.174 HD
BRANCH  20  26
ATOM     22  C   UNL     1      -1.307   2.376  -0.553  0.00  0.00    +0.044 C 
ATOM     23  C   UNL     1      -0.035   1.575  -0.437  0.00  0.00    -0.050 A 
ATOM     24  C   UNL     1       0.251   0.901   0.736  0.00  0.00    +0.008 A 
ATOM     25  C   UNL     1       1.418   0.171   0.848  0.00  0.00    -0.028 A 
ATOM     26  C   UNL     1       2.304   0.114  -0.220  0.00  0.00    +0.054 A 
ATOM     27  C   UNL     1       2.014   0.792  -1.397  0.00  0.00    -0.028 A 
ATOM     28  C   UNL     1       0.845   1.521  -1.502  0.00  0.00    +0.008 A 
ATOM     29  C   UNL     1       2.973   0.734  -2.558  0.00  0.00    +0.046 C 
ATOM     30  C   UNL     1       1.729  -0.563   2.127  0.00  0.00    +0.046 C 
ENDBRANCH  20  26
ENDBRANCH  17  20
ENDBRANCH   1  17
TORSDOF 3
