REMARK  Name = ZINC43668990
REMARK  5 active torsions:
REMARK  status: ('A' for Active; 'I' for Inactive)
REMARK    1  A    between atoms: C_1  and  C_2
REMARK    2  A    between atoms: C_4  and  N_18
REMARK    3  A    between atoms: N_5  and  C_7
REMARK    4  A    between atoms: C_7  and  C_9
REMARK    5  A    between atoms: C_7  and  C_10
REMARK                            x       y       z     vdW  Elec       q    Type
REMARK                         _______ _______ _______ _____ _____    ______ ____
ROOT
ATOM      1  C   UNL     1      -0.018   1.503   0.010  0.00  0.00    +0.068 C 
ATOM      2  C   UNL     1       0.002  -0.004   0.002  0.00  0.00    +0.075 A 
ATOM      3  C   UNL     1       0.008  -0.815  -1.136  0.00  0.00    +0.075 A 
ATOM      4  C   UNL     1       0.028  -2.113  -0.724  0.00  0.00    +0.129 A 
ATOM      5  N   UNL     1       0.034  -2.109   0.634  0.00  0.00    -0.242 N 
ATOM      6  N   UNL     1       0.023  -0.775   1.059  0.00  0.00    -0.173 NA
ATOM      7  I   UNL     1      -0.011  -0.152  -3.124  0.00  0.00    -0.038 I 
ENDROOT
BRANCH   4   8
ATOM      8  N   UNL     1       0.040  -3.238  -1.545  0.00  0.00    -0.342 N 
ATOM      9  H   UNL     1       0.034  -3.135  -2.509  0.00  0.00    +0.144 HD
ATOM     10  H   UNL     1       0.053  -4.125  -1.152  0.00  0.00    +0.144 HD
ENDBRANCH   4   8
BRANCH   5  11
ATOM     11  C   UNL     1       0.054  -3.291   1.500  0.00  0.00    +0.139 C 
ATOM     12  C   UNL     1      -1.191  -3.292   2.389  0.00  0.00    +0.038 C 
BRANCH  11  13
ATOM     13  C   UNL     1       1.289  -3.259   2.364  0.00  0.00    +0.012 A 
ATOM     14  C   UNL     1       1.494  -2.207   3.237  0.00  0.00    +0.011 A 
ATOM     15  C   UNL     1       2.625  -2.177   4.030  0.00  0.00    +0.039 A 
ATOM     16  C   UNL     1       3.555  -3.201   3.951  0.00  0.00    +0.126 A 
ATOM     17  C   UNL     1       3.350  -4.255   3.078  0.00  0.00    +0.077 A 
ATOM     18  C   UNL     1       2.213  -4.287   2.288  0.00  0.00    +0.131 A 
ATOM     19  F   UNL     1       2.010  -5.317   1.438  0.00  0.00    -0.205 F 
ATOM     20  F   UNL     1       4.661  -3.171   4.726  0.00  0.00    -0.205 F 
ENDBRANCH  11  13
ENDBRANCH   5  11
TORSDOF 3
