REMARK  Name = ZINC16509354
REMARK  3 active torsions:
REMARK  status: ('A' for Active; 'I' for Inactive)
REMARK    1  A    between atoms: N_11  and  C_12
REMARK    2  A    between atoms: C_20  and  C_23
REMARK    3  A    between atoms: C_23  and  C_24
REMARK                            x       y       z     vdW  Elec       q    Type
REMARK                         _______ _______ _______ _____ _____    ______ ____
ROOT
ATOM      1  C   UNL     1       2.507  -4.476   0.970  0.00  0.00    +0.095 C 
ATOM      2  C   UNL     1       3.158  -3.724  -0.194  0.00  0.00    +0.044 C 
ATOM      3  C   UNL     1       2.895  -2.225  -0.037  0.00  0.00    +0.109 C 
ATOM      4  N   UNL     1       1.447  -1.980  -0.022  0.00  0.00    -0.308 N 
ATOM      5  C   UNL     1       0.807  -2.654   1.115  0.00  0.00    +0.109 C 
ATOM      6  C   UNL     1       1.008  -4.166   0.992  0.00  0.00    +0.044 C 
ATOM      7  C   UNL     1       1.174  -0.624  -0.013  0.00  0.00    +0.181 A 
ATOM      8  N   UNL     1       0.002  -0.004   0.002  0.00  0.00    -0.208 NA
ATOM      9  C   UNL     1      -0.016   1.308   0.009  0.00  0.00    +0.145 A 
ATOM     10  N   UNL     1       1.113   1.975   0.002  0.00  0.00    -0.192 NA
ATOM     11  S   UNL     1       2.275   0.718  -0.016  0.00  0.00    +0.049 S 
ENDROOT
BRANCH   1  22
ATOM     12  C   UNL     1       4.547  -8.889   3.007  0.00  0.00    +0.002 A 
ATOM     13  C   UNL     1       4.591  -7.619   3.556  0.00  0.00    +0.002 A 
ATOM     14  C   UNL     1       4.005  -6.556   2.897  0.00  0.00    +0.028 A 
ATOM     15  C   UNL     1       3.372  -6.761   1.681  0.00  0.00    +0.070 A 
ATOM     16  C   UNL     1       3.329  -8.042   1.127  0.00  0.00    +0.067 A 
ATOM     17  C   UNL     1       3.919  -9.104   1.796  0.00  0.00    +0.028 A 
ATOM     18  N   UNL     1       2.638  -7.937  -0.078  0.00  0.00    -0.306 N 
ATOM     19  H   UNL     1       2.449  -8.666  -0.689  0.00  0.00    +0.170 HD
ATOM     20  C   UNL     1       2.274  -6.652  -0.247  0.00  0.00    +0.328 A 
ATOM     21  O   UNL     1       1.650  -6.220  -1.199  0.00  0.00    -0.247 OA
ATOM     22  N   UNL     1       2.707  -5.917   0.795  0.00  0.00    -0.289 N 
ENDBRANCH   1  22
BRANCH   9  23
ATOM     23  C   UNL     1      -1.330   2.046   0.019  0.00  0.00    +0.112 C 
BRANCH  23  24
ATOM     24  C   UNL     1      -1.761   2.284   1.444  0.00  0.00    -0.040 A 
ATOM     25  C   UNL     1      -2.550   1.352   2.092  0.00  0.00    +0.005 A 
ATOM     26  C   UNL     1      -2.941   1.568   3.400  0.00  0.00    +0.020 A 
ATOM     27  C   UNL     1      -2.552   2.722   4.057  0.00  0.00    +0.041 A 
ATOM     28  C   UNL     1      -1.767   3.657   3.406  0.00  0.00    +0.020 A 
ATOM     29  C   UNL     1      -1.372   3.438   2.099  0.00  0.00    +0.005 A 
ATOM     30 CL   UNL     1      -3.048   2.996   5.698  0.00  0.00    -0.084 Cl
ENDBRANCH  23  24
ENDBRANCH   9  23
TORSDOF 3
