REMARK  Name = ZINC46668772
REMARK  7 active torsions:
REMARK  status: ('A' for Active; 'I' for Inactive)
REMARK    1  A    between atoms: C_1  and  C_2
REMARK    2  A    between atoms: C_2  and  C_4
REMARK    3  A    between atoms: C_2  and  N_12
REMARK    4  A    between atoms: C_13  and  C_15
REMARK    5  A    between atoms: N_23  and  C_24
REMARK    6  A    between atoms: C_24  and  C_25
REMARK    7  A    between atoms: C_24  and  C_26
REMARK                            x       y       z     vdW  Elec       q    Type
REMARK                         _______ _______ _______ _____ _____    ______ ____
ROOT
ATOM      1  N   UNL     1       0.765  -0.731  -1.466  0.00  0.00    -0.308 N 
ATOM      2  C   UNL     1       2.104  -0.882  -1.452  0.00  0.00    +0.217 C 
ATOM      3  O   UNL     1       2.734  -0.623  -0.448  0.00  0.00    -0.275 OA
ATOM      4  H   UNL     1       0.262  -0.938  -2.268  0.00  0.00    +0.149 HD
ENDROOT
BRANCH   2   5
ATOM      5  C   UNL     1       2.819  -1.374  -2.684  0.00  0.00    +0.078 C 
ATOM      6  C   UNL     1       2.567  -0.405  -3.841  0.00  0.00    +0.032 C 
ATOM      7  C   UNL     1       3.267  -0.926  -5.100  0.00  0.00    +0.110 C 
ATOM      8  N   UNL     1       4.687  -1.146  -4.795  0.00  0.00    -0.286 N 
ATOM      9  C   UNL     1       5.041  -1.989  -3.646  0.00  0.00    +0.110 C 
ATOM     10  C   UNL     1       4.322  -1.456  -2.403  0.00  0.00    +0.032 C 
ATOM     11  C   UNL     1       5.648  -0.584  -5.556  0.00  0.00    +0.302 C 
ATOM     12  O   UNL     1       5.345   0.192  -6.442  0.00  0.00    -0.253 OA
ATOM     13  N   UNL     1       6.943  -0.883  -5.335  0.00  0.00    -0.297 N 
ATOM     14  H   UNL     1       7.190  -1.445  -4.584  0.00  0.00    +0.150 HD
BRANCH  13  15
ATOM     15  C   UNL     1       7.979  -0.359  -6.230  0.00  0.00    +0.068 C 
ATOM     16  C   UNL     1       9.311  -0.287  -5.481  0.00  0.00    +0.027 C 
ATOM     17  C   UNL     1       8.123  -1.284  -7.440  0.00  0.00    +0.027 C 
ENDBRANCH  13  15
ENDBRANCH   2   5
BRANCH   1  19
ATOM     18  C   UNL     1      -0.008   1.276  -0.299  0.00  0.00    +0.033 C 
ATOM     19  C   UNL     1       0.070  -0.252  -0.268  0.00  0.00    +0.102 C 
BRANCH  19  20
ATOM     20  C   UNL     1      -1.323  -0.826  -0.233  0.00  0.00    -0.009 A 
ATOM     21  C   UNL     1      -1.949  -1.194  -1.410  0.00  0.00    +0.008 A 
ATOM     22  C   UNL     1      -3.226  -1.720  -1.378  0.00  0.00    +0.020 A 
ATOM     23  C   UNL     1      -3.880  -1.879  -0.169  0.00  0.00    +0.042 A 
ATOM     24  C   UNL     1      -3.254  -1.511   1.008  0.00  0.00    +0.040 A 
ATOM     25  C   UNL     1      -1.974  -0.989   0.977  0.00  0.00    +0.047 A 
ATOM     26 CL   UNL     1      -1.185  -0.533   2.455  0.00  0.00    -0.083 Cl
ATOM     27 CL   UNL     1      -5.485  -2.539  -0.130  0.00  0.00    -0.083 Cl
ENDBRANCH  19  20
ENDBRANCH   1  19
TORSDOF 4
