REMARK  Name = ZINC67401075
REMARK  6 active torsions:
REMARK  status: ('A' for Active; 'I' for Inactive)
REMARK    1  A    between atoms: C_4  and  C_7
REMARK    2  A    between atoms: C_7  and  C_9
REMARK    3  A    between atoms: C_7  and  N_12
REMARK    4  A    between atoms: C_15  and  C_18
REMARK    5  A    between atoms: C_18  and  C_20
REMARK    6  A    between atoms: C_18  and  O_27
REMARK                            x       y       z     vdW  Elec       q    Type
REMARK                         _______ _______ _______ _____ _____    ______ ____
ROOT
ATOM      1  N   UNL     1       4.341  -1.532   1.002  0.00  0.00    +0.390 N 
ATOM      2  C   UNL     1       5.799  -1.497   0.836  0.00  0.00    -0.077 C 
ATOM      3  C   UNL     1       6.455  -2.419   1.866  0.00  0.00    -0.012 C 
ATOM      4  C   UNL     1       6.090  -1.943   3.275  0.00  0.00    +0.019 C 
ATOM      5  C   UNL     1       4.565  -1.911   3.413  0.00  0.00    -0.012 C 
ATOM      6  C   UNL     1       3.978  -1.009   2.325  0.00  0.00    -0.077 C 
ATOM      7  H   UNL     1       4.017  -2.483   0.918  0.00  0.00    -0.080 HD
ENDROOT
BRANCH   1   8
ATOM      8  C   UNL     1       3.711  -0.707  -0.038  0.00  0.00    +0.050 C 
BRANCH   8  12
ATOM      9  C   UNL     1      -0.526  -0.721   0.504  0.00  0.00    +0.000 A 
ATOM     10  C   UNL     1       0.121   0.446   0.143  0.00  0.00    +0.000 A 
ATOM     11  C   UNL     1       1.492   0.451  -0.032  0.00  0.00    +0.002 A 
ATOM     12  C   UNL     1       2.216  -0.712   0.154  0.00  0.00    -0.052 A 
ATOM     13  C   UNL     1       1.570  -1.879   0.516  0.00  0.00    +0.002 A 
ATOM     14  C   UNL     1       0.198  -1.884   0.690  0.00  0.00    +0.000 A 
ENDBRANCH   8  12
BRANCH   8  15
ATOM     15  C   UNL     1       4.045  -1.270  -1.395  0.00  0.00    +0.201 C 
ATOM     16  O   UNL     1       4.282  -2.452  -1.520  0.00  0.00    -0.277 OA
ATOM     17  N   UNL     1       4.080  -0.458  -2.471  0.00  0.00    -0.330 N 
ATOM     18  H   UNL     1       3.891   0.488  -2.371  0.00  0.00    +0.145 HD
ATOM     19  H   UNL     1       4.295  -0.820  -3.345  0.00  0.00    +0.145 HD
ENDBRANCH   8  15
ENDBRANCH   1   8
BRANCH   4  20
ATOM     20  C   UNL     1       6.677  -2.905   4.309  0.00  0.00    +0.147 C 
BRANCH  20  21
ATOM     21  C   UNL     1       6.317  -2.436   5.695  0.00  0.00    -0.019 A 
ATOM     22  C   UNL     1       7.032  -1.411   6.285  0.00  0.00    +0.007 A 
ATOM     23  C   UNL     1       6.702  -0.980   7.556  0.00  0.00    +0.020 A 
ATOM     24  C   UNL     1       5.655  -1.574   8.237  0.00  0.00    +0.041 A 
ATOM     25  C   UNL     1       4.939  -2.599   7.646  0.00  0.00    +0.020 A 
ATOM     26  C   UNL     1       5.266  -3.026   6.373  0.00  0.00    +0.007 A 
ATOM     27 CL   UNL     1       5.239  -1.033   9.834  0.00  0.00    -0.084 Cl
ENDBRANCH  20  21
BRANCH  20  28
ATOM     28  O   UNL     1       8.100  -2.940   4.173  0.00  0.00    -0.387 OA
ATOM     29  H   UNL     1       8.528  -2.084   4.305  0.00  0.00    +0.210 HD
ENDBRANCH  20  28
ENDBRANCH   4  20
TORSDOF 6
