REMARK  Name = ZINC03296770
REMARK  13 active torsions:
REMARK  status: ('A' for Active; 'I' for Inactive)
REMARK    1  A    between atoms: C_1  and  C_2
REMARK    2  A    between atoms: C_3  and  C_29
REMARK    3  A    between atoms: C_6  and  N_15
REMARK    4  A    between atoms: N_15  and  S_16
REMARK    5  A    between atoms: S_16  and  C_19
REMARK    6  A    between atoms: C_22  and  C_25
REMARK    7  A    between atoms: C_25  and  C_26
REMARK    8  A    between atoms: C_25  and  C_27
REMARK    9  A    between atoms: C_25  and  C_28
REMARK   10  A    between atoms: C_29  and  O_31
REMARK   11  A    between atoms: O_31  and  C_32
REMARK   12  A    between atoms: C_32  and  C_33
REMARK   13  A    between atoms: C_32  and  C_34
REMARK                            x       y       z     vdW  Elec       q    Type
REMARK                         _______ _______ _______ _____ _____    ______ ____
ROOT
ATOM      1  C   UNL     1       5.065   6.372   0.036  0.00  0.00    +0.087 C 
ATOM      2  C   UNL     1       4.202   5.143  -0.077  0.00  0.00    +0.117 A 
ATOM      3  C   UNL     1       2.914   5.045   0.358  0.00  0.00    +0.107 A 
ATOM      4  C   UNL     1       2.487   3.668   0.036  0.00  0.00    +0.037 A 
ATOM      5  C   UNL     1       1.293   2.956   0.224  0.00  0.00    +0.037 A 
ATOM      6  C   UNL     1       1.184   1.661  -0.186  0.00  0.00    +0.057 A 
ATOM      7  C   UNL     1       2.284   1.019  -0.803  0.00  0.00    +0.008 A 
ATOM      8  C   UNL     1       2.191  -0.312  -1.236  0.00  0.00    +0.010 A 
ATOM      9  C   UNL     1       3.262  -0.906  -1.832  0.00  0.00    +0.001 A 
ATOM     10  C   UNL     1       4.452  -0.208  -2.024  0.00  0.00    +0.001 A 
ATOM     11  C   UNL     1       4.576   1.087  -1.620  0.00  0.00    +0.012 A 
ATOM     12  C   UNL     1       3.492   1.729  -1.002  0.00  0.00    +0.027 A 
ATOM     13  C   UNL     1       3.589   3.070  -0.572  0.00  0.00    +0.144 A 
ATOM     14  O   UNL     1       4.582   3.981  -0.618  0.00  0.00    -0.459 OA
ENDROOT
BRANCH   6  15
ATOM     15  N   UNL     1      -0.011   0.966   0.007  0.00  0.00    -0.216 N 
ATOM     16  H   UNL     1       0.007   0.018   0.215  0.00  0.00    +0.174 HD
BRANCH  15  17
ATOM     17  S   UNL     1      -1.460   1.757  -0.124  0.00  0.00    +0.072 S 
ATOM     18  O   UNL     1      -2.474   0.768  -0.012  0.00  0.00    -0.150 OA
ATOM     19  O   UNL     1      -1.390   2.879   0.745  0.00  0.00    -0.150 OA
BRANCH  17  20
ATOM     20  C   UNL     1      -1.558   2.396  -1.763  0.00  0.00    +0.109 A 
ATOM     21  C   UNL     1      -1.080   3.663  -2.041  0.00  0.00    +0.029 A 
ATOM     22  C   UNL     1      -1.153   4.162  -3.328  0.00  0.00    +0.006 A 
ATOM     23  C   UNL     1      -1.712   3.398  -4.335  0.00  0.00    -0.042 A 
ATOM     24  C   UNL     1      -2.194   2.133  -4.057  0.00  0.00    +0.006 A 
ATOM     25  C   UNL     1      -2.117   1.632  -2.771  0.00  0.00    +0.029 A 
BRANCH  23  26
ATOM     26  C   UNL     1      -1.795   3.945  -5.737  0.00  0.00    -0.013 C 
ATOM     27  C   UNL     1      -3.260   4.002  -6.176  0.00  0.00    +0.015 C 
ATOM     28  C   UNL     1      -1.197   5.352  -5.773  0.00  0.00    +0.015 C 
ATOM     29  C   UNL     1      -1.014   3.034  -6.687  0.00  0.00    +0.015 C 
ENDBRANCH  23  26
ENDBRANCH  17  20
ENDBRANCH  15  17
ENDBRANCH   6  15
BRANCH   3  30
ATOM     30  C   UNL     1       2.116   6.091   1.011  0.00  0.00    +0.343 C 
ATOM     31  O   UNL     1       2.128   6.199   2.222  0.00  0.00    -0.245 OA
BRANCH  30  32
ATOM     32  O   UNL     1       1.370   6.933   0.267  0.00  0.00    -0.458 OA
BRANCH  32  33
ATOM     33  C   UNL     1       0.607   7.943   0.979  0.00  0.00    +0.171 C 
ATOM     34  C   UNL     1       0.457   9.184   0.098  0.00  0.00    +0.052 C 
ATOM     35  C   UNL     1      -0.777   7.389   1.321  0.00  0.00    +0.052 C 
ENDBRANCH  32  33
ENDBRANCH  30  32
ENDBRANCH   3  30
TORSDOF 7
