REMARK  Name = ZINC01704540
REMARK  1 active torsions:
REMARK  status: ('A' for Active; 'I' for Inactive)
REMARK    1  A    between atoms: C_1  and  C_2
REMARK                            x       y       z     vdW  Elec       q    Type
REMARK                         _______ _______ _______ _____ _____    ______ ____
ROOT
ATOM      1  C   UNL     1      -0.014   1.080   0.010  0.00  0.00    +0.063 C 
ATOM      2  C   UNL     1      -0.718   1.572   1.248  0.00  0.00    +0.017 A 
ATOM      3  C   UNL     1      -2.049   1.781   1.218  0.00  0.00    +0.071 A 
ATOM      4  C   UNL     1      -2.711   2.234   2.387  0.00  0.00    +0.183 A 
ATOM      5  O   UNL     1      -3.920   2.422   2.384  0.00  0.00    -0.288 OA
ATOM      6  C   UNL     1      -1.954   2.463   3.549  0.00  0.00    +0.084 A 
ATOM      7  C   UNL     1      -0.607   2.239   3.522  0.00  0.00    +0.088 A 
ATOM      8  N   UNL     1      -0.003   1.799   2.382  0.00  0.00    -0.353 N 
ATOM      9  H   UNL     1       1.083   1.628   2.391  0.00  0.00    +0.166 HD
ATOM     10  S   UNL     1       0.357   2.522   4.970  0.00  0.00    -0.033 S 
ENDROOT
TORSDOF 0
