REMARK  Name = ZINC40313939
REMARK  4 active torsions:
REMARK  status: ('A' for Active; 'I' for Inactive)
REMARK    1  A    between atoms: C_6  and  N_7
REMARK    2  A    between atoms: N_7  and  S_8
REMARK    3  A    between atoms: S_8  and  C_11
REMARK    4  A    between atoms: C_13  and  N_19
REMARK                            x       y       z     vdW  Elec       q    Type
REMARK                         _______ _______ _______ _____ _____    ______ ____
ROOT
ATOM      1  S   UNL     1      -1.175  -2.376   0.001  0.00  0.00    +0.093 S 
ATOM      2  O   UNL     1      -0.630  -2.768  -1.252  0.00  0.00    -0.148 OA
ATOM      3  O   UNL     1      -0.606  -2.781   1.239  0.00  0.00    -0.148 OA
ENDROOT
BRANCH   1   4
ATOM      4  C   UNL     1      -2.850  -2.922   0.015  0.00  0.00    +0.130 A 
ATOM      5  C   UNL     1      -3.359  -3.616  -1.067  0.00  0.00    +0.056 A 
ATOM      6  C   UNL     1      -4.678  -4.045  -1.056  0.00  0.00    +0.062 A 
ATOM      7  C   UNL     1      -5.486  -3.776   0.044  0.00  0.00    +0.145 A 
ATOM      8  C   UNL     1      -4.971  -3.082   1.123  0.00  0.00    +0.062 A 
ATOM      9  C   UNL     1      -3.653  -2.660   1.110  0.00  0.00    +0.070 A 
ATOM     10 CL   UNL     1      -3.007  -1.793   2.469  0.00  0.00    -0.081 Cl
ATOM     11  F   UNL     1      -6.771  -4.193   0.059  0.00  0.00    -0.204 F 
BRANCH   6  12
ATOM     12  N   UNL     1      -5.196  -4.748  -2.150  0.00  0.00    -0.356 N 
ATOM     13  H   UNL     1      -4.632  -4.935  -2.917  0.00  0.00    +0.142 HD
ATOM     14  H   UNL     1      -6.118  -5.048  -2.142  0.00  0.00    +0.142 HD
ENDBRANCH   6  12
ENDBRANCH   1   4
BRANCH   1  15
ATOM     15  N   UNL     1      -1.198  -0.721   0.010  0.00  0.00    -0.098 NA
BRANCH  15  21
ATOM     16  C   UNL     1      -0.017   1.385   0.010  0.00  0.00    +0.029 A 
ATOM     17  C   UNL     1       1.171   2.090   0.002  0.00  0.00    +0.040 A 
ATOM     18  C   UNL     1       2.379   1.414  -0.013  0.00  0.00    +0.124 A 
ATOM     19  C   UNL     1       2.400   0.030  -0.021  0.00  0.00    +0.040 A 
ATOM     20  C   UNL     1       1.215  -0.680  -0.014  0.00  0.00    +0.029 A 
ATOM     21  C   UNL     1       0.002  -0.004   0.002  0.00  0.00    +0.074 A 
ATOM     22  F   UNL     1       3.539   2.107  -0.020  0.00  0.00    -0.205 F 
ENDBRANCH  15  21
ENDBRANCH   1  15
TORSDOF 4
