REMARK  Name = ZINC63646852
REMARK  7 active torsions:
REMARK  status: ('A' for Active; 'I' for Inactive)
REMARK    1  A    between atoms: C_1  and  O_2
REMARK    2  A    between atoms: O_2  and  C_3
REMARK    3  A    between atoms: C_6  and  C_9
REMARK    4  A    between atoms: C_11  and  S_15
REMARK    5  A    between atoms: S_15  and  C_16
REMARK    6  A    between atoms: C_16  and  C_17
REMARK    7  A    between atoms: C_25  and  C_28
REMARK                            x       y       z     vdW  Elec       q    Type
REMARK                         _______ _______ _______ _____ _____    ______ ____
ROOT
ATOM      1  S   UNL     1       3.763  -5.713   6.195  0.00  0.00    -0.080 S 
ENDROOT
BRANCH   1   4
ATOM      2  C   UNL     1       2.578  -2.541   4.295  0.00  0.00    +0.182 A 
ATOM      3  N   UNL     1       2.702  -3.866   4.457  0.00  0.00    -0.201 NA
ATOM      4  C   UNL     1       3.360  -4.116   5.568  0.00  0.00    +0.185 A 
ATOM      5  H   UNL     1       4.159  -2.804   6.973  0.00  0.00    +0.191 HD
ATOM      6  N   UNL     1       3.673  -2.934   6.144  0.00  0.00    -0.253 N 
ATOM      7  N   UNL     1       3.164  -1.933   5.302  0.00  0.00    -0.152 NA
BRANCH   2  11
ATOM      8  C   UNL     1       0.626  -0.618   1.041  0.00  0.00    +0.120 A 
ATOM      9  C   UNL     1       1.202   0.142   2.050  0.00  0.00    +0.046 A 
ATOM     10  C   UNL     1       1.835  -0.479   3.107  0.00  0.00    +0.015 A 
ATOM     11  C   UNL     1       1.897  -1.870   3.160  0.00  0.00    +0.021 A 
ATOM     12  C   UNL     1       1.317  -2.631   2.146  0.00  0.00    +0.015 A 
ATOM     13  C   UNL     1       0.681  -2.004   1.095  0.00  0.00    +0.046 A 
BRANCH   8  15
ATOM     14  C   UNL     1      -0.017   1.425   0.010  0.00  0.00    +0.277 C 
ATOM     15  O   UNL     1       0.002  -0.004   0.002  0.00  0.00    -0.495 OA
ENDBRANCH   8  15
ENDBRANCH   2  11
ENDBRANCH   1   4
BRANCH   1  16
ATOM     16  C   UNL     1       3.067  -6.855   4.970  0.00  0.00    +0.133 C 
BRANCH  16  17
ATOM     17  C   UNL     1       3.344  -8.274   5.391  0.00  0.00    +0.060 A 
ATOM     18  C   UNL     1       2.348  -9.052   5.907  0.00  0.00    +0.096 A 
ATOM     19  C   UNL     1       2.620 -10.374   6.277  0.00  0.00    +0.272 A 
ATOM     20  O   UNL     1       1.735 -11.069   6.748  0.00  0.00    -0.266 OA
ATOM     21  N   UNL     1       3.878 -10.886   6.111  0.00  0.00    -0.206 N 
ATOM     22  C   UNL     1       4.824 -10.023   5.623  0.00  0.00    +0.191 A 
ATOM     23  N   UNL     1       4.565  -8.793   5.261  0.00  0.00    -0.226 NA
ATOM     24  S   UNL     1       6.338 -10.968   5.641  0.00  0.00    -0.062 S 
ATOM     25  C   UNL     1       5.690 -12.382   6.633  0.00  0.00    +0.156 C 
ATOM     26  N   UNL     1       4.241 -12.177   6.380  0.00  0.00    -0.266 N 
ATOM     27  H   UNL     1       3.684 -12.560   7.129  0.00  0.00    +0.168 HD
BRANCH  25  28
ATOM     28  C   UNL     1       6.175 -13.725   6.084  0.00  0.00    +0.021 C 
ATOM     29  C   UNL     1       6.686 -14.758   7.090  0.00  0.00    +0.006 C 
ATOM     30  C   UNL     1       7.672 -14.028   6.177  0.00  0.00    +0.006 C 
ENDBRANCH  25  28
ENDBRANCH  16  17
ENDBRANCH   1  16
TORSDOF 6
