REMARK  Name = ZINC25057900
REMARK  8 active torsions:
REMARK  status: ('A' for Active; 'I' for Inactive)
REMARK    1  A    between atoms: C_1  and  C_2
REMARK    2  A    between atoms: C_5  and  N_8
REMARK    3  A    between atoms: C_12  and  S_13
REMARK    4  A    between atoms: S_13  and  C_14
REMARK    5  A    between atoms: C_14  and  C_16
REMARK    6  A    between atoms: C_14  and  C_17
REMARK    7  A    between atoms: N_23  and  C_24
REMARK    8  A    between atoms: N_23  and  C_25
REMARK                            x       y       z     vdW  Elec       q    Type
REMARK                         _______ _______ _______ _____ _____    ______ ____
ROOT
ATOM      1  N   UNL     1       1.284  -0.402  -0.185  0.00  0.00    -0.259 N 
ATOM      2  C   UNL     1       2.089   0.704  -0.142  0.00  0.00    +0.225 A 
ATOM      3  N   UNL     1       1.330   1.748   0.083  0.00  0.00    -0.112 NA
ATOM      4  N   UNL     1       0.004   1.308   0.188  0.00  0.00    -0.120 NA
ATOM      5  C   UNL     1      -0.006   0.007   0.024  0.00  0.00    +0.198 A 
ATOM      6  N   UNL     1       3.468   0.717  -0.309  0.00  0.00    -0.299 N 
ATOM      7  C   UNL     1       4.137   1.250   0.885  0.00  0.00    +0.108 C 
ATOM      8  C   UNL     1       5.653   1.114   0.725  0.00  0.00    +0.019 C 
ATOM      9  C   UNL     1       6.100   1.884  -0.521  0.00  0.00    +0.003 C 
ATOM     10  C   UNL     1       5.353   1.342  -1.742  0.00  0.00    +0.019 C 
ATOM     11  C   UNL     1       3.845   1.471  -1.511  0.00  0.00    +0.108 C 
ENDROOT
BRANCH   1  16
ATOM     12  C   UNL     1       2.990  -5.743  -1.070  0.00  0.00    +0.044 C 
ATOM     13  C   UNL     1       2.537  -4.325  -0.835  0.00  0.00    -0.050 A 
ATOM     14  C   UNL     1       1.749  -3.688  -1.775  0.00  0.00    +0.005 A 
ATOM     15  C   UNL     1       1.332  -2.388  -1.563  0.00  0.00    +0.026 A 
ATOM     16  C   UNL     1       1.705  -1.722  -0.403  0.00  0.00    +0.052 A 
ATOM     17  C   UNL     1       2.501  -2.362   0.537  0.00  0.00    +0.026 A 
ATOM     18  C   UNL     1       2.909  -3.664   0.321  0.00  0.00    +0.005 A 
ENDBRANCH   1  16
BRANCH   5  19
ATOM     19  S   UNL     1      -1.429  -1.030   0.065  0.00  0.00    -0.075 S 
BRANCH  19  20
ATOM     20  C   UNL     1      -2.800   0.116   0.377  0.00  0.00    +0.119 C 
ATOM     21  C   UNL     1      -2.949   1.068  -0.811  0.00  0.00    +0.028 C 
BRANCH  20  22
ATOM     22  C   UNL     1      -4.076  -0.664   0.558  0.00  0.00    +0.149 A 
ATOM     23  N   UNL     1      -4.372  -1.646  -0.275  0.00  0.00    -0.198 NA
ATOM     24  C   UNL     1      -5.497  -2.341  -0.116  0.00  0.00    +0.217 A 
ATOM     25  N   UNL     1      -6.326  -2.039   0.877  0.00  0.00    -0.181 NA
ATOM     26  C   UNL     1      -6.028  -1.048   1.710  0.00  0.00    +0.222 A 
ATOM     27  N   UNL     1      -4.899  -0.362   1.547  0.00  0.00    -0.198 NA
ATOM     28  N   UNL     1      -6.886  -0.732   2.743  0.00  0.00    -0.306 N 
ATOM     29  C   UNL     1      -6.555   0.361   3.661  0.00  0.00    +0.132 C 
ATOM     30  C   UNL     1      -8.128  -1.488   2.922  0.00  0.00    +0.132 C 
ATOM     31  N   UNL     1      -5.802  -3.369  -0.983  0.00  0.00    -0.327 N 
ATOM     32  H   UNL     1      -6.731  -3.943  -0.851  0.00  0.00    +0.145 HD
ATOM     33  H   UNL     1      -5.117  -3.616  -1.808  0.00  0.00    +0.145 HD
ENDBRANCH  20  22
ENDBRANCH  19  20
ENDBRANCH   5  19
TORSDOF 4
