REMARK  Name = ZINC54822330
REMARK  6 active torsions:
REMARK  status: ('A' for Active; 'I' for Inactive)
REMARK    1  A    between atoms: C_1  and  C_2
REMARK    2  A    between atoms: C_6  and  C_8
REMARK    3  A    between atoms: C_8  and  N_9
REMARK    4  A    between atoms: N_9  and  C_10
REMARK    5  A    between atoms: C_13  and  O_17
REMARK    6  A    between atoms: O_17  and  C_18
REMARK                            x       y       z     vdW  Elec       q    Type
REMARK                         _______ _______ _______ _____ _____    ______ ____
ROOT
ATOM      1  C   UNL     1       1.706  -4.628   2.823  0.00  0.00    +0.030 A 
ATOM      2  C   UNL     1       0.667  -5.419   3.296  0.00  0.00    +0.046 A 
ATOM      3  C   UNL     1       0.936  -6.483   4.136  0.00  0.00    +0.086 A 
ATOM      4  C   UNL     1       2.244  -6.761   4.507  0.00  0.00    +0.163 A 
ATOM      5  C   UNL     1       3.283  -5.971   4.035  0.00  0.00    +0.086 A 
ATOM      6  C   UNL     1       3.015  -4.910   3.189  0.00  0.00    +0.046 A 
ATOM      7 CL   UNL     1       4.918  -6.318   4.500  0.00  0.00    -0.080 Cl
ATOM      8 CL   UNL     1      -0.362  -7.472   4.728  0.00  0.00    -0.080 Cl
ENDROOT
BRANCH   1   9
ATOM      9  N   UNL     1       1.433  -3.551   1.972  0.00  0.00    -0.338 N 
ATOM     10  H   UNL     1       2.159  -3.001   1.639  0.00  0.00    +0.146 HD
BRANCH   9  11
ATOM     11  C   UNL     1       0.052  -3.253   1.586  0.00  0.00    +0.156 C 
BRANCH  11  17
ATOM     12  C   UNL     1      -0.018   1.503   0.010  0.00  0.00    +0.084 C 
ATOM     13  C   UNL     1       0.002  -0.004   0.002  0.00  0.00    +0.081 A 
ATOM     14  N   UNL     1       0.008  -0.785  -1.100  0.00  0.00    -0.350 N 
ATOM     15  H   UNL     1       0.001  -0.481  -2.021  0.00  0.00    +0.166 HD
ATOM     16  C   UNL     1       0.028  -2.086  -0.674  0.00  0.00    +0.106 A 
ATOM     17  C   UNL     1       0.033  -2.055   0.673  0.00  0.00    +0.051 A 
ATOM     18  N   UNL     1       0.022  -0.770   1.058  0.00  0.00    -0.346 N 
ATOM     19  H   UNL     1       0.027  -0.460   1.977  0.00  0.00    +0.167 HD
ENDBRANCH  11  17
ENDBRANCH   9  11
ENDBRANCH   1   9
BRANCH   4  20
ATOM     20  O   UNL     1       2.509  -7.808   5.334  0.00  0.00    -0.431 OA
BRANCH  20  21
ATOM     21  C   UNL     1       2.759  -9.073   4.720  0.00  0.00    +0.541 C 
ATOM     22  F   UNL     1       1.640  -9.458   3.973  0.00  0.00    -0.166 F 
ATOM     23  F   UNL     1       3.870  -8.971   3.876  0.00  0.00    -0.166 F 
ENDBRANCH  20  21
ENDBRANCH   4  20
TORSDOF 5
