REMARK  Name = ZINC11073068
REMARK  6 active torsions:
REMARK  status: ('A' for Active; 'I' for Inactive)
REMARK    1  A    between atoms: C_1  and  C_2
REMARK    2  A    between atoms: C_15  and  C_17
REMARK    3  A    between atoms: C_17  and  N_49
REMARK    4  A    between atoms: C_18  and  N_49
REMARK    5  A    between atoms: C_19  and  C_20
REMARK    6  A    between atoms: C_19  and  N_49
REMARK                            x       y       z     vdW  Elec       q    Type
REMARK                         _______ _______ _______ _____ _____    ______ ____
ROOT
ATOM      1  C   UNL     1       0.427   3.506   2.315  0.00  0.00    +0.019 C 
ENDROOT
BRANCH   1  15
ATOM      2  C   UNL     1       0.404   4.094  -2.278  0.00  0.00    +0.029 C 
ATOM      3  C   UNL     1       1.567   4.152  -1.286  0.00  0.00    +0.087 C 
ATOM      4  C   UNL     1       2.785   3.453  -1.890  0.00  0.00    +0.118 C 
ATOM      5  C   UNL     1       3.793   3.146  -0.814  0.00  0.00    +0.219 C 
ATOM      6  O   UNL     1       4.796   3.821  -0.717  0.00  0.00    -0.275 OA
ATOM      7  N   UNL     1       3.586   2.124   0.044  0.00  0.00    -0.284 N 
ATOM      8  C   UNL     1       2.390   1.397   0.008  0.00  0.00    +0.055 A 
ATOM      9  C   UNL     1       2.400   0.012  -0.005  0.00  0.00    +0.025 A 
ATOM     10  C   UNL     1       1.206  -0.685  -0.011  0.00  0.00    +0.002 A 
ATOM     11  C   UNL     1       0.002  -0.004   0.002  0.00  0.00    +0.002 A 
ATOM     12  C   UNL     1      -0.017   1.379   0.010  0.00  0.00    +0.025 A 
ATOM     13  C   UNL     1       1.175   2.084   0.002  0.00  0.00    +0.058 A 
ATOM     14  N   UNL     1       1.177   3.486  -0.042  0.00  0.00    -0.268 N 
ATOM     15  C   UNL     1       0.826   4.206   1.041  0.00  0.00    +0.204 C 
ATOM     16  O   UNL     1       0.831   5.418   0.991  0.00  0.00    -0.277 OA
ATOM     17  H   UNL     1       4.271   1.891   0.690  0.00  0.00    +0.155 HD
ENDBRANCH   1  15
BRANCH   1  19
ATOM     18  C   UNL     1      -1.111   5.261   2.963  0.00  0.00    -0.095 C 
ATOM     19  N   UNL     1       0.114   4.524   3.340  0.00  0.00    +0.388 N 
ATOM     20  H   UNL     1       0.896   5.187   3.402  0.00  0.00    -0.081 HD
BRANCH  19  21
ATOM     21  C   UNL     1      -0.071   3.876   4.656  0.00  0.00    -0.001 C 
BRANCH  21  22
ATOM     22  C   UNL     1      -0.169   4.944   5.714  0.00  0.00    +0.120 A 
ATOM     23  N   UNL     1       0.926   5.383   6.311  0.00  0.00    -0.202 NA
ATOM     24  C   UNL     1       0.844   6.329   7.243  0.00  0.00    +0.217 A 
ATOM     25  N   UNL     1      -0.341   6.825   7.581  0.00  0.00    -0.181 NA
ATOM     26  C   UNL     1      -1.440   6.378   6.983  0.00  0.00    +0.217 A 
ATOM     27  N   UNL     1      -1.349   5.435   6.048  0.00  0.00    -0.202 NA
ATOM     28  N   UNL     1      -2.673   6.890   7.331  0.00  0.00    -0.327 N 
ATOM     29  N   UNL     1       1.988   6.790   7.862  0.00  0.00    -0.327 N 
ATOM     30  H   UNL     1      -3.475   6.563   6.894  0.00  0.00    +0.145 HD
ATOM     31  H   UNL     1      -2.738   7.577   8.012  0.00  0.00    +0.145 HD
ATOM     32  H   UNL     1       1.927   7.478   8.544  0.00  0.00    +0.145 HD
ATOM     33  H   UNL     1       2.853   6.428   7.614  0.00  0.00    +0.145 HD
ENDBRANCH  21  22
ENDBRANCH  19  21
ENDBRANCH   1  19
TORSDOF 4
