REMARK  Name = ZINC21078488
REMARK  7 active torsions:
REMARK  status: ('A' for Active; 'I' for Inactive)
REMARK    1  A    between atoms: C_3  and  C_9
REMARK    2  A    between atoms: N_10  and  N_11
REMARK    3  A    between atoms: C_14  and  S_17
REMARK    4  A    between atoms: S_17  and  C_18
REMARK    5  A    between atoms: C_18  and  C_19
REMARK    6  A    between atoms: C_19  and  C_20
REMARK    7  A    between atoms: N_22  and  C_23
REMARK                            x       y       z     vdW  Elec       q    Type
REMARK                         _______ _______ _______ _____ _____    ______ ____
ROOT
ATOM      1  N   UNL     1      -3.755   5.854   0.061  0.00  0.00    -0.205 N 
ATOM      2  C   UNL     1      -3.769   7.241   0.071  0.00  0.00    +0.232 A 
ATOM      3  N   UNL     1      -4.884   8.034   0.078  0.00  0.00    -0.186 NA
ATOM      4  C   UNL     1      -4.475   9.337   0.086  0.00  0.00    +0.210 A 
ATOM      5  N   UNL     1      -3.163   9.351   0.084  0.00  0.00    -0.144 NA
ATOM      6  N   UNL     1      -2.717   8.023   0.080  0.00  0.00    -0.245 N 
ATOM      7  H   UNL     1      -4.702   5.294   0.059  0.00  0.00    +0.177 HD
ATOM      8  H   UNL     1      -1.707   7.586   0.083  0.00  0.00    +0.192 HD
ENDROOT
BRANCH   1  10
ATOM      9  C   UNL     1      -2.522   3.868   0.046  0.00  0.00    +0.139 C 
ATOM     10  N   UNL     1      -2.535   5.166   0.054  0.00  0.00    -0.188 NA
BRANCH   9  13
ATOM     11  C   UNL     1      -0.014   1.075   0.022  0.00  0.00    +0.002 A 
ATOM     12  C   UNL     1      -1.219   1.747   0.024  0.00  0.00    +0.011 A 
ATOM     13  C   UNL     1      -1.237   3.143   0.038  0.00  0.00    +0.014 A 
ATOM     14  C   UNL     1      -0.032   3.852   0.041  0.00  0.00    +0.068 A 
ATOM     15  C   UNL     1       1.167   3.166   0.034  0.00  0.00    +0.060 A 
ATOM     16  C   UNL     1       1.176   1.781   0.024  0.00  0.00    +0.021 A 
ATOM     17 CL   UNL     1       2.666   4.041   0.037  0.00  0.00    -0.082 Cl
ATOM     18 CL   UNL     1      -0.042   5.588   0.053  0.00  0.00    -0.081 Cl
ENDBRANCH   9  13
ENDBRANCH   1  10
BRANCH   4  19
ATOM     19  S   UNL     1      -5.526  10.752   0.098  0.00  0.00    -0.084 S 
BRANCH  19  20
ATOM     20  C   UNL     1      -4.374  12.153   0.105  0.00  0.00    +0.086 C 
BRANCH  20  21
ATOM     21  C   UNL     1      -5.165  13.463   0.116  0.00  0.00    +0.107 C 
BRANCH  21  22
ATOM     22  C   UNL     1      -4.208  14.627   0.122  0.00  0.00    +0.218 C 
ATOM     23  O   UNL     1      -3.011  14.429   0.118  0.00  0.00    -0.275 OA
ATOM     24  N   UNL     1      -4.682  15.889   0.131  0.00  0.00    -0.285 N 
ATOM     25  H   UNL     1      -5.765  16.070   0.058  0.00  0.00    +0.155 HD
BRANCH  24  26
ATOM     26  C   UNL     1      -3.797  16.968   0.234  0.00  0.00    +0.033 A 
ATOM     27  C   UNL     1      -4.169  18.108   0.936  0.00  0.00    +0.025 A 
ATOM     28  C   UNL     1      -3.292  19.170   1.040  0.00  0.00    +0.022 A 
ATOM     29  C   UNL     1      -2.048  19.103   0.438  0.00  0.00    +0.041 A 
ATOM     30  C   UNL     1      -1.677  17.971  -0.266  0.00  0.00    +0.022 A 
ATOM     31  C   UNL     1      -2.548  16.904  -0.369  0.00  0.00    +0.025 A 
ATOM     32 CL   UNL     1      -0.950  20.442   0.566  0.00  0.00    -0.084 Cl
ENDBRANCH  24  26
ENDBRANCH  21  22
ENDBRANCH  20  21
ENDBRANCH  19  20
ENDBRANCH   4  19
TORSDOF 7
