REMARK  Name = ZINC52634441
REMARK  5 active torsions:
REMARK  status: ('A' for Active; 'I' for Inactive)
REMARK    1  A    between atoms: C_1  and  C_2
REMARK    2  A    between atoms: C_2  and  C_3
REMARK    3  A    between atoms: C_2  and  C_4
REMARK    4  A    between atoms: C_11  and  C_14
REMARK    5  A    between atoms: C_15  and  C_20
REMARK                            x       y       z     vdW  Elec       q    Type
REMARK                         _______ _______ _______ _____ _____    ______ ____
ROOT
ATOM      1  C   UNL     1       2.048  -5.085  -0.438  0.00  0.00    +0.075 A 
ATOM      2  C   UNL     1       1.424  -5.868  -1.393  0.00  0.00    +0.099 A 
ATOM      3  N   UNL     1       2.385  -6.535  -2.061  0.00  0.00    -0.235 NA
ATOM      4  C   UNL     1       3.554  -6.215  -1.581  0.00  0.00    +0.197 A 
ATOM      5  N   UNL     1       3.398  -5.314  -0.576  0.00  0.00    -0.344 N 
ATOM      6  H   UNL     1       4.107  -4.909  -0.052  0.00  0.00    +0.167 HD
ENDROOT
BRANCH   1  13
ATOM      7  C   UNL     1       0.746  -0.510   1.239  0.00  0.00    +0.183 C 
ATOM      8  N   UNL     1      -0.024  -0.219   2.460  0.00  0.00    -0.246 N 
ATOM      9  N   UNL     1      -0.315  -1.455   3.044  0.00  0.00    -0.170 NA
ATOM     10  C   UNL     1       0.173  -2.445   2.344  0.00  0.00    +0.144 C 
ATOM     11  N   UNL     1       0.844  -1.978   1.217  0.00  0.00    -0.269 N 
ATOM     12  C   UNL     1       1.439  -2.836   0.337  0.00  0.00    +0.088 C 
ATOM     13  C   UNL     1       1.397  -4.181   0.530  0.00  0.00    +0.015 C 
ATOM     14  C   UNL     1       0.706  -4.735   1.699  0.00  0.00    +0.014 C 
ATOM     15  C   UNL     1       0.107  -3.894   2.582  0.00  0.00    +0.046 C 
ATOM     16  H   UNL     1      -0.278   0.656   2.792  0.00  0.00    +0.170 HD
BRANCH   7  18
ATOM     17  C   UNL     1      -1.409  -0.594  -0.021  0.00  0.00    +0.011 C 
ATOM     18  C   UNL     1       0.002  -0.004   0.002  0.00  0.00    +0.023 C 
ATOM     19  C   UNL     1      -0.084   1.523   0.048  0.00  0.00    +0.011 C 
ENDBRANCH   7  18
ENDBRANCH   1  13
BRANCH   2  20
ATOM     20  C   UNL     1      -0.034  -5.957  -1.636  0.00  0.00    +0.040 A 
ATOM     21  C   UNL     1      -0.919  -5.201  -0.868  0.00  0.00    +0.051 A 
ATOM     22  C   UNL     1      -2.279  -5.288  -1.100  0.00  0.00    +0.124 A 
ATOM     23  C   UNL     1      -2.763  -6.124  -2.093  0.00  0.00    +0.041 A 
ATOM     24  C   UNL     1      -1.890  -6.877  -2.858  0.00  0.00    +0.042 A 
ATOM     25  C   UNL     1      -0.528  -6.793  -2.640  0.00  0.00    +0.133 A 
ATOM     26  F   UNL     1       0.324  -7.524  -3.392  0.00  0.00    -0.205 F 
ATOM     27  F   UNL     1      -3.137  -4.556  -0.357  0.00  0.00    -0.205 F 
ENDBRANCH   2  20
TORSDOF 3
