REMARK  Name = ZINC00910671
REMARK  5 active torsions:
REMARK  status: ('A' for Active; 'I' for Inactive)
REMARK    1  A    between atoms: C_4  and  C_7
REMARK    2  A    between atoms: C_10  and  C_12
REMARK    3  A    between atoms: C_10  and  O_16
REMARK    4  A    between atoms: C_17  and  C_19
REMARK    5  A    between atoms: C_24  and  O_25
REMARK                            x       y       z     vdW  Elec       q    Type
REMARK                         _______ _______ _______ _____ _____    ______ ____
ROOT
ATOM      1  C   UNL     1       3.693  -0.686  -0.105  0.00  0.00    +0.071 C 
ATOM      2  N   UNL     1       4.853  -0.126  -0.097  0.00  0.00    -0.178 NA
ATOM      3  N   UNL     1       5.919  -1.024  -0.075  0.00  0.00    -0.148 N 
ATOM      4  C   UNL     1       5.385  -2.395  -0.068  0.00  0.00    +0.257 C 
ATOM      5  C   UNL     1       3.857  -2.189  -0.082  0.00  0.00    +0.124 C 
ATOM      6  C   UNL     1       7.224  -0.691  -0.064  0.00  0.00    +0.272 C 
ATOM      7  O   UNL     1       8.072  -1.558   0.030  0.00  0.00    -0.268 OA
ENDROOT
BRANCH   1  11
ATOM      8  C   UNL     1      -0.018   1.372  -0.171  0.00  0.00    +0.000 A 
ATOM      9  C   UNL     1       1.166   2.087  -0.170  0.00  0.00    +0.001 A 
ATOM     10  C   UNL     1       2.376   1.425  -0.149  0.00  0.00    +0.010 A 
ATOM     11  C   UNL     1       2.404   0.029  -0.128  0.00  0.00    -0.002 A 
ATOM     12  C   UNL     1       1.204  -0.687  -0.129  0.00  0.00    +0.010 A 
ATOM     13  C   UNL     1       0.002  -0.012  -0.151  0.00  0.00    +0.001 A 
ENDBRANCH   1  11
BRANCH   6  14
ATOM     14  C   UNL     1       7.625   0.725  -0.164  0.00  0.00    +0.080 A 
ATOM     15  C   UNL     1       6.657   1.732  -0.147  0.00  0.00    +0.017 A 
ATOM     16  C   UNL     1       7.038   3.053  -0.241  0.00  0.00    +0.001 A 
ATOM     17  C   UNL     1       8.378   3.388  -0.352  0.00  0.00    +0.004 A 
ATOM     18  C   UNL     1       9.345   2.402  -0.370  0.00  0.00    +0.046 A 
ATOM     19  C   UNL     1       8.980   1.068  -0.271  0.00  0.00    +0.129 A 
BRANCH  19  20
ATOM     20  O   UNL     1       9.930   0.099  -0.282  0.00  0.00    -0.506 OA
ATOM     21  H   UNL     1      10.147  -0.228  -1.166  0.00  0.00    +0.292 HD
ENDBRANCH  19  20
ENDBRANCH   6  14
BRANCH   4  22
ATOM     22  C   UNL     1       5.812  -3.132   1.203  0.00  0.00    +0.438 C 
ATOM     23  F   UNL     1       5.353  -2.433   2.324  0.00  0.00    -0.166 F 
ATOM     24  F   UNL     1       5.265  -4.420   1.201  0.00  0.00    -0.166 F 
ATOM     25  F   UNL     1       7.207  -3.218   1.246  0.00  0.00    -0.166 F 
ENDBRANCH   4  22
BRANCH   4  26
ATOM     26  O   UNL     1       5.812  -3.107  -1.231  0.00  0.00    -0.363 OA
ATOM     27  H   UNL     1       6.771  -3.206  -1.302  0.00  0.00    +0.212 HD
ENDBRANCH   4  26
TORSDOF 5
