REMARK  Name = ZINC09031662
REMARK  6 active torsions:
REMARK  status: ('A' for Active; 'I' for Inactive)
REMARK    1  A    between atoms: C_1  and  C_2
REMARK    2  A    between atoms: C_5  and  N_8
REMARK    3  A    between atoms: C_14  and  C_16
REMARK    4  A    between atoms: C_14  and  C_17
REMARK    5  A    between atoms: C_28  and  C_31
REMARK    6  A    between atoms: C_29  and  N_30
REMARK                            x       y       z     vdW  Elec       q    Type
REMARK                         _______ _______ _______ _____ _____    ______ ____
ROOT
ATOM      1  N   UNL     1       4.821   3.203  -0.041  0.00  0.00    -0.260 N 
ATOM      2  C   UNL     1       3.950   3.229  -1.099  0.00  0.00    +0.026 C 
ATOM      3  C   UNL     1       2.701   3.719  -0.950  0.00  0.00    +0.037 C 
ATOM      4  C   UNL     1       1.799   3.745  -2.028  0.00  0.00    +0.163 C 
ATOM      5  O   UNL     1       0.686   4.203  -1.863  0.00  0.00    -0.292 OA
ATOM      6  C   UNL     1       2.187   3.218  -3.382  0.00  0.00    +0.086 C 
ATOM      7  C   UNL     1       3.242   2.121  -3.207  0.00  0.00    -0.023 C 
ATOM      8  C   UNL     1       4.425   2.705  -2.432  0.00  0.00    +0.058 C 
ATOM      9  C   UNL     1       2.642   0.952  -2.423  0.00  0.00    +0.011 C 
ATOM     10  C   UNL     1       3.711   1.634  -4.579  0.00  0.00    +0.011 C 
ATOM     11  C   UNL     1       2.236   4.250   0.381  0.00  0.00    +0.141 C 
ATOM     12  C   UNL     1       1.276   3.295   1.023  0.00  0.00    -0.002 A 
ATOM     13  C   UNL     1       1.433   1.994   1.450  0.00  0.00    +0.007 A 
ATOM     14  C   UNL     1       0.322   1.379   2.018  0.00  0.00    +0.000 A 
ATOM     15  C   UNL     1      -0.882   2.041   2.140  0.00  0.00    +0.002 A 
ATOM     16  C   UNL     1      -1.046   3.350   1.716  0.00  0.00    +0.023 A 
ATOM     17  C   UNL     1       0.061   3.980   1.145  0.00  0.00    +0.038 A 
ATOM     18  N   UNL     1       0.179   5.261   0.637  0.00  0.00    -0.284 N 
ATOM     19  C   UNL     1       1.418   5.508   0.167  0.00  0.00    +0.238 C 
ATOM     20  O   UNL     1       1.807   6.543  -0.332  0.00  0.00    -0.274 OA
ATOM     21  C   UNL     1       3.390   4.540   1.293  0.00  0.00    +0.089 C 
ATOM     22  C   UNL     1       4.619   4.011   1.054  0.00  0.00    +0.108 C 
ATOM     23  H   UNL     1      -0.546   5.906   0.621  0.00  0.00    +0.155 HD
ENDROOT
BRANCH   1  28
ATOM     24  C   UNL     1       9.302  -0.275  -0.175  0.00  0.00    +0.044 C 
ATOM     25  C   UNL     1       8.111   0.648  -0.140  0.00  0.00    -0.050 A 
ATOM     26  C   UNL     1       8.225   1.939  -0.625  0.00  0.00    +0.005 A 
ATOM     27  C   UNL     1       7.136   2.788  -0.594  0.00  0.00    +0.024 A 
ATOM     28  C   UNL     1       5.926   2.345  -0.075  0.00  0.00    +0.040 A 
ATOM     29  C   UNL     1       5.817   1.050   0.416  0.00  0.00    +0.024 A 
ATOM     30  C   UNL     1       6.908   0.204   0.377  0.00  0.00    +0.005 A 
ENDBRANCH   1  28
BRANCH  22  31
ATOM     31  N   UNL     1       5.661   4.285   1.907  0.00  0.00    -0.345 N 
ATOM     32  H   UNL     1       5.542   4.919   2.631  0.00  0.00    +0.144 HD
ATOM     33  H   UNL     1       6.516   3.843   1.785  0.00  0.00    +0.144 HD
ENDBRANCH  22  31
BRANCH  21  34
ATOM     34  C   UNL     1       3.195   5.386   2.432  0.00  0.00    +0.100 C 
ATOM     35  N   UNL     1       3.039   6.058   3.335  0.00  0.00    -0.191 NA
ENDBRANCH  21  34
TORSDOF 3
