REMARK  Name = ZINC39685914
REMARK  11 active torsions:
REMARK  status: ('A' for Active; 'I' for Inactive)
REMARK    1  A    between atoms: C_1  and  C_2
REMARK    2  A    between atoms: C_2  and  C_3
REMARK    3  A    between atoms: C_2  and  C_4
REMARK    4  A    between atoms: C_4  and  C_6
REMARK    5  A    between atoms: C_4  and  N_13
REMARK    6  A    between atoms: N_8  and  C_9
REMARK    7  A    between atoms: C_9  and  C_10
REMARK    8  A    between atoms: C_9  and  C_11
REMARK    9  A    between atoms: C_9  and  C_12
REMARK   10  A    between atoms: C_14  and  C_16
REMARK   11  A    between atoms: C_27  and  C_29
REMARK                            x       y       z     vdW  Elec       q    Type
REMARK                         _______ _______ _______ _____ _____    ______ ____
ROOT
ATOM      1  C   UNL     1      -2.896  -0.063  -3.415  0.00  0.00    +0.100 C 
ATOM      2  C   UNL     1      -4.373   0.207  -3.054  0.00  0.00    +0.121 C 
ATOM      3  N   UNL     1      -5.135  -0.213  -4.255  0.00  0.00    -0.296 N 
ATOM      4  C   UNL     1      -4.445  -1.441  -4.718  0.00  0.00    +0.115 C 
ATOM      5  C   UNL     1      -2.946  -1.145  -4.506  0.00  0.00    -0.004 C 
ATOM      6  C   UNL     1      -2.223  -2.404  -4.037  0.00  0.00    -0.010 C 
ATOM      7  C   UNL     1      -2.236  -3.444  -5.160  0.00  0.00    -0.082 C 
ATOM      8  N   UNL     1      -1.577  -2.891  -6.350  0.00  0.00    +0.379 N 
ATOM      9  C   UNL     1      -2.333  -1.736  -6.850  0.00  0.00    -0.082 C 
ATOM     10  C   UNL     1      -2.324  -0.624  -5.798  0.00  0.00    -0.010 C 
ATOM     11  C   UNL     1      -6.210   0.387  -4.802  0.00  0.00    +0.252 C 
ATOM     12  O   UNL     1      -6.728  -0.084  -5.797  0.00  0.00    -0.270 OA
ATOM     13  H   UNL     1      -0.641  -2.600  -6.110  0.00  0.00    -0.086 HD
ATOM     14  H   UNL     1      -1.533  -3.599  -7.068  0.00  0.00    -0.086 HD
ENDROOT
BRANCH  11  15
ATOM     15  C   UNL     1      -6.760   1.614  -4.195  0.00  0.00    +0.108 A 
ATOM     16  C   UNL     1      -6.298   2.870  -4.606  0.00  0.00    +0.138 A 
ATOM     17  C   UNL     1      -6.818   4.014  -4.032  0.00  0.00    +0.041 A 
ATOM     18  C   UNL     1      -7.792   3.922  -3.054  0.00  0.00    +0.026 A 
ATOM     19  C   UNL     1      -8.254   2.685  -2.642  0.00  0.00    +0.077 A 
ATOM     20  C   UNL     1      -7.749   1.529  -3.210  0.00  0.00    +0.156 A 
ATOM     21  F   UNL     1      -8.205   0.322  -2.810  0.00  0.00    -0.203 F 
ATOM     22 CL   UNL     1      -9.477   2.583  -1.413  0.00  0.00    -0.081 Cl
ATOM     23  F   UNL     1      -5.346   2.962  -5.560  0.00  0.00    -0.205 F 
ENDBRANCH  11  15
BRANCH   1  25
ATOM     24  N   UNL     1      -0.820  -0.348  -2.100  0.00  0.00    -0.303 N 
ATOM     25  C   UNL     1      -2.145  -0.568  -2.210  0.00  0.00    +0.219 C 
ATOM     26  O   UNL     1      -2.734  -1.172  -1.338  0.00  0.00    -0.275 OA
ATOM     27  H   UNL     1      -0.355   0.165  -2.780  0.00  0.00    +0.149 HD
BRANCH  24  28
ATOM     28  C   UNL     1      -0.081  -0.884  -0.954  0.00  0.00    +0.161 C 
BRANCH  28  29
ATOM     29  C   UNL     1       1.017   0.075  -0.572  0.00  0.00    +0.234 C 
ATOM     30  O   UNL     1       1.380   0.925  -1.357  0.00  0.00    -0.274 OA
ATOM     31  N   UNL     1       1.596  -0.012   0.642  0.00  0.00    -0.309 N 
ATOM     32  H   UNL     1       1.358  -0.737   1.241  0.00  0.00    +0.149 HD
BRANCH  31  33
ATOM     33  C   UNL     1       2.584   0.987   1.056  0.00  0.00    +0.026 C 
ATOM     34  C   UNL     1       1.939   2.374   1.053  0.00  0.00    +0.031 C 
ATOM     35  C   UNL     1       3.082   0.659   2.465  0.00  0.00    +0.031 C 
ATOM     36  C   UNL     1       3.764   0.971   0.082  0.00  0.00    +0.031 C 
ENDBRANCH  31  33
ENDBRANCH  28  29
BRANCH  28  38
ATOM     37  C   UNL     1      -0.588  -3.260  -1.537  0.00  0.00    +0.009 C 
ATOM     38  C   UNL     1       0.530  -2.236  -1.328  0.00  0.00    +0.012 C 
ATOM     39  C   UNL     1       1.338  -2.091  -2.619  0.00  0.00    +0.009 C 
ENDBRANCH  28  38
ENDBRANCH  24  28
ENDBRANCH   1  25
TORSDOF 6
