REMARK  Name = ZINC49149953
REMARK  4 active torsions:
REMARK  status: ('A' for Active; 'I' for Inactive)
REMARK    1  A    between atoms: C_3  and  N_9
REMARK    2  A    between atoms: N_9  and  S_10
REMARK    3  A    between atoms: S_10  and  C_13
REMARK    4  A    between atoms: C_18  and  N_19
REMARK                            x       y       z     vdW  Elec       q    Type
REMARK                         _______ _______ _______ _____ _____    ______ ____
ROOT
ATOM      1  S   UNL     1       3.697   3.678   0.715  0.00  0.00    +0.074 S 
ATOM      2  O   UNL     1       4.958   4.297   0.501  0.00  0.00    -0.150 OA
ATOM      3  O   UNL     1       2.474   4.281   0.315  0.00  0.00    -0.150 OA
ENDROOT
BRANCH   1   4
ATOM      4  C   UNL     1       3.569   3.381   2.447  0.00  0.00    +0.129 A 
ATOM      5  C   UNL     1       2.437   3.773   3.134  0.00  0.00    +0.032 A 
ATOM      6  C   UNL     1       2.335   3.540   4.493  0.00  0.00    +0.017 A 
ATOM      7  C   UNL     1       3.367   2.914   5.170  0.00  0.00    +0.020 A 
ATOM      8  C   UNL     1       4.503   2.520   4.489  0.00  0.00    +0.040 A 
ATOM      9  C   UNL     1       4.605   2.747   3.122  0.00  0.00    +0.053 A 
ATOM     10 BR   UNL     1       3.223   2.599   7.029  0.00  0.00    -0.050 Br
BRANCH   9  11
ATOM     11  N   UNL     1       5.749   2.345   2.429  0.00  0.00    -0.356 N 
ATOM     12  H   UNL     1       5.782   2.421   1.463  0.00  0.00    +0.142 HD
ATOM     13  H   UNL     1       6.510   1.989   2.915  0.00  0.00    +0.142 HD
ENDBRANCH   9  11
ENDBRANCH   1   4
BRANCH   1  14
ATOM     14  N   UNL     1       3.763   2.201  -0.031  0.00  0.00    -0.215 N 
ATOM     15  H   UNL     1       4.535   1.962  -0.568  0.00  0.00    +0.174 HD
BRANCH  14  18
ATOM     16  C   UNL     1       0.356   0.868   0.326  0.00  0.00    +0.017 A 
ATOM     17  C   UNL     1       1.399   1.762   0.185  0.00  0.00    +0.027 A 
ATOM     18  C   UNL     1       2.706   1.298   0.112  0.00  0.00    +0.062 A 
ATOM     19  C   UNL     1       2.960  -0.067   0.181  0.00  0.00    +0.041 A 
ATOM     20  C   UNL     1       1.913  -0.957   0.322  0.00  0.00    +0.032 A 
ATOM     21  C   UNL     1       0.612  -0.490   0.394  0.00  0.00    +0.019 A 
ATOM     22 BR   UNL     1      -0.819  -1.711   0.587  0.00  0.00    -0.050 Br
ATOM     23 BR   UNL     1       4.737  -0.705   0.081  0.00  0.00    -0.048 Br
ENDBRANCH  14  18
ENDBRANCH   1  14
TORSDOF 4
