REMARK  Name = ZINC33574711
REMARK  7 active torsions:
REMARK  status: ('A' for Active; 'I' for Inactive)
REMARK    1  A    between atoms: C_1  and  C_2
REMARK    2  A    between atoms: N_8  and  C_9
REMARK    3  A    between atoms: C_9  and  C_10
REMARK    4  A    between atoms: C_11  and  C_21
REMARK    5  A    between atoms: N_23  and  N_24
REMARK    6  A    between atoms: C_25  and  C_26
REMARK    7  A    between atoms: C_25  and  C_27
REMARK                            x       y       z     vdW  Elec       q    Type
REMARK                         _______ _______ _______ _____ _____    ______ ____
ROOT
ATOM      1  C   UNL     1       5.801  -0.657  -3.363  0.00  0.00    +0.063 A 
ATOM      2  C   UNL     1       6.215   0.627  -3.147  0.00  0.00    +0.170 A 
ATOM      3  N   UNL     1       7.287   0.598  -2.335  0.00  0.00    -0.124 NA
ATOM      4  N   UNL     1       7.567  -0.622  -2.033  0.00  0.00    -0.058 NA
ATOM      5  N   UNL     1       6.636  -1.459  -2.666  0.00  0.00    -0.194 N 
ATOM      6  C   UNL     1       6.584  -2.856  -2.592  0.00  0.00    +0.240 A 
ATOM      7  C   UNL     1       7.503  -3.709  -1.834  0.00  0.00    +0.206 A 
ATOM      8  N   UNL     1       7.140  -4.951  -1.999  0.00  0.00    -0.032 NA
ATOM      9  O   UNL     1       6.010  -4.963  -2.854  0.00  0.00    -0.239 OA
ATOM     10  N   UNL     1       5.713  -3.619  -3.189  0.00  0.00    -0.027 NA
ATOM     11  N   UNL     1       8.576  -3.270  -1.066  0.00  0.00    -0.337 N 
ATOM     12  H   UNL     1       9.206  -3.998  -0.534  0.00  0.00    +0.144 HD
ATOM     13  H   UNL     1       8.794  -2.195  -0.990  0.00  0.00    +0.144 HD
ENDROOT
BRANCH   2  14
ATOM     14  C   UNL     1       5.591   1.840  -3.707  0.00  0.00    +0.285 C 
ATOM     15  O   UNL     1       4.619   1.744  -4.432  0.00  0.00    -0.267 OA
ATOM     16  N   UNL     1       6.097   3.054  -3.415  0.00  0.00    -0.201 N 
ATOM     17  H   UNL     1       6.976   3.141  -2.759  0.00  0.00    +0.178 HD
BRANCH  16  18
ATOM     18  N   UNL     1       5.504   4.207  -3.947  0.00  0.00    -0.184 NA
ATOM     19  C   UNL     1       6.061   5.365  -3.768  0.00  0.00    +0.063 C 
ATOM     20  C   UNL     1       5.345   6.620  -4.198  0.00  0.00    +0.068 C 
BRANCH  19  21
ATOM     21  C   UNL     1       7.394   5.454  -3.143  0.00  0.00    -0.001 A 
ATOM     22  C   UNL     1       8.366   4.490  -3.425  0.00  0.00    +0.010 A 
ATOM     23  C   UNL     1       9.611   4.579  -2.838  0.00  0.00    +0.002 A 
ATOM     24  C   UNL     1       9.899   5.620  -1.972  0.00  0.00    +0.015 A 
ATOM     25  C   UNL     1       8.941   6.578  -1.689  0.00  0.00    +0.018 A 
ATOM     26  C   UNL     1       7.692   6.504  -2.273  0.00  0.00    +0.025 A 
ATOM     27 BR   UNL     1       9.346   7.996  -0.505  0.00  0.00    -0.050 Br
ENDBRANCH  19  21
ENDBRANCH  16  18
ENDBRANCH   2  14
BRANCH   1  28
ATOM     28  C   UNL     1       4.635  -1.094  -4.211  0.00  0.00    -0.019 C 
BRANCH  28  35
ATOM     29  C   UNL     1       2.643  -2.992  -4.800  0.00  0.00    -0.013 C 
ATOM     30  C   UNL     1       2.279  -1.650  -4.160  0.00  0.00    -0.071 C 
ATOM     31  C   UNL     1       1.075  -1.837  -3.234  0.00  0.00    -0.016 C 
ATOM     32  C   UNL     1       0.728  -0.497  -2.580  0.00  0.00    -0.003 C 
ATOM     33  C   UNL     1       1.951   0.022  -1.818  0.00  0.00    -0.019 C 
ATOM     34  C   UNL     1       3.130   0.155  -2.785  0.00  0.00    -0.078 C 
ATOM     35  N   UNL     1       3.423  -1.154  -3.384  0.00  0.00    +0.385 N 
ATOM     36  H   UNL     1       3.606  -1.864  -2.564  0.00  0.00    -0.081 HD
ENDBRANCH  28  35
ENDBRANCH   1  28
TORSDOF 5
