REMARK  Name = ZINC35694990
REMARK  12 active torsions:
REMARK  status: ('A' for Active; 'I' for Inactive)
REMARK    1  A    between atoms: C_1  and  C_2
REMARK    2  A    between atoms: C_5  and  C_8
REMARK    3  A    between atoms: N_10  and  C_29
REMARK    4  A    between atoms: C_14  and  C_16
REMARK    5  A    between atoms: C_16  and  N_17
REMARK    6  A    between atoms: N_17  and  C_18
REMARK    7  A    between atoms: C_18  and  C_19
REMARK    8  A    between atoms: N_24  and  C_25
REMARK    9  A    between atoms: C_25  and  C_26
REMARK   10  A    between atoms: C_25  and  C_27
REMARK   11  A    between atoms: C_25  and  C_28
REMARK   12  A    between atoms: C_32  and  C_35
REMARK                            x       y       z     vdW  Elec       q    Type
REMARK                         _______ _______ _______ _____ _____    ______ ____
ROOT
ATOM      1  C   UNL     1       0.059  -4.255  -0.021  0.00  0.00    +0.091 A 
ATOM      2  C   UNL     1       0.070  -5.059   1.072  0.00  0.00    +0.122 A 
ATOM      3  N   UNL     1       0.086  -6.354   0.614  0.00  0.00    -0.287 N 
ATOM      4  C   UNL     1       0.086  -6.299  -0.749  0.00  0.00    +0.207 A 
ATOM      5  N   UNL     1       0.064  -5.043  -1.118  0.00  0.00    -0.214 NA
ATOM      6  N   UNL     1       0.100  -7.394  -1.602  0.00  0.00    -0.254 N 
ATOM      7  C   UNL     1       0.097  -7.208  -2.937  0.00  0.00    +0.237 C 
ATOM      8  O   UNL     1       0.082  -6.084  -3.393  0.00  0.00    -0.274 OA
ATOM      9  H   UNL     1       0.111  -8.293  -1.238  0.00  0.00    +0.158 HD
ENDROOT
BRANCH   1  14
ATOM     10  C   UNL     1      -0.018   1.503   0.010  0.00  0.00    +0.044 C 
ATOM     11  C   UNL     1       0.002  -0.004   0.002  0.00  0.00    -0.050 A 
ATOM     12  C   UNL     1       0.006  -0.686  -1.201  0.00  0.00    +0.004 A 
ATOM     13  C   UNL     1       0.024  -2.066  -1.215  0.00  0.00    +0.010 A 
ATOM     14  C   UNL     1       0.040  -2.772  -0.013  0.00  0.00    +0.002 A 
ATOM     15  C   UNL     1       0.036  -2.079   1.196  0.00  0.00    +0.010 A 
ATOM     16  C   UNL     1       0.023  -0.700   1.198  0.00  0.00    +0.004 A 
ENDBRANCH   1  14
BRANCH   3  17
ATOM     17  C   UNL     1       0.102  -7.514   1.400  0.00  0.00    +0.049 A 
ATOM     18  C   UNL     1      -0.801  -8.538   1.147  0.00  0.00    +0.026 A 
ATOM     19  C   UNL     1      -0.783  -9.680   1.923  0.00  0.00    +0.005 A 
ATOM     20  C   UNL     1       0.133  -9.805   2.951  0.00  0.00    -0.050 A 
ATOM     21  C   UNL     1       1.034  -8.787   3.206  0.00  0.00    +0.005 A 
ATOM     22  C   UNL     1       1.024  -7.645   2.430  0.00  0.00    +0.026 A 
ATOM     23  C   UNL     1       0.150 -11.053   3.796  0.00  0.00    +0.044 C 
ENDBRANCH   3  17
BRANCH   7  24
ATOM     24  C   UNL     1       0.112  -8.396  -3.864  0.00  0.00    +0.205 C 
BRANCH  24  25
ATOM     25  N   UNL     1       0.106  -7.932  -5.253  0.00  0.00    -0.277 N 
ATOM     26  C   UNL     1      -1.064  -7.734  -5.892  0.00  0.00    +0.303 C 
ATOM     27  O   UNL     1      -2.114  -7.940  -5.315  0.00  0.00    -0.253 OA
ATOM     28  N   UNL     1      -1.070  -7.307  -7.170  0.00  0.00    -0.294 N 
ATOM     29  H   UNL     1      -0.232  -7.143  -7.631  0.00  0.00    +0.151 HD
BRANCH  28  30
ATOM     30  C   UNL     1      -2.341  -7.091  -7.865  0.00  0.00    +0.028 C 
ATOM     31  C   UNL     1      -3.157  -6.034  -7.119  0.00  0.00    +0.031 C 
ATOM     32  C   UNL     1      -2.068  -6.611  -9.292  0.00  0.00    +0.031 C 
ATOM     33  C   UNL     1      -3.127  -8.404  -7.910  0.00  0.00    +0.031 C 
ENDBRANCH  28  30
BRANCH  25  34
ATOM     34  C   UNL     1       1.371  -7.684  -5.948  0.00  0.00    +0.113 C 
BRANCH  34  35
ATOM     35  C   UNL     1       1.829  -8.966  -6.647  0.00  0.00    +0.006 C 
ATOM     36  C   UNL     1       3.142  -9.596  -6.177  0.00  0.00    +0.005 C 
ATOM     37  C   UNL     1       3.077  -8.882  -7.529  0.00  0.00    +0.005 C 
ENDBRANCH  34  35
ENDBRANCH  25  34
ENDBRANCH  24  25
ENDBRANCH   7  24
TORSDOF 7
