REMARK  Name = ZINC05864445
REMARK  5 active torsions:
REMARK  status: ('A' for Active; 'I' for Inactive)
REMARK    1  A    between atoms: C_1  and  C_2
REMARK    2  A    between atoms: C_2  and  C_29
REMARK    3  A    between atoms: C_6  and  C_19
REMARK    4  A    between atoms: C_13  and  S_17
REMARK    5  A    between atoms: S_17  and  C_18
REMARK                            x       y       z     vdW  Elec       q    Type
REMARK                         _______ _______ _______ _____ _____    ______ ____
ROOT
ATOM      1  C   UNL     1       0.551   5.609   3.527  0.00  0.00    +0.011 C 
ATOM      2  C   UNL     1       1.994   6.095   3.679  0.00  0.00    -0.023 C 
ATOM      3  C   UNL     1       2.382   6.943   2.466  0.00  0.00    +0.058 C 
ATOM      4  C   UNL     1       2.296   6.106   1.212  0.00  0.00    +0.017 C 
ATOM      5  C   UNL     1       2.533   4.777   1.247  0.00  0.00    +0.024 C 
ATOM      6  C   UNL     1       2.451   3.936  -0.001  0.00  0.00    +0.092 C 
ATOM      7  C   UNL     1       2.510   4.785  -1.236  0.00  0.00    +0.069 A 
ATOM      8  C   UNL     1       2.814   4.208  -2.476  0.00  0.00    +0.258 A 
ATOM      9  O   UNL     1       3.037   3.011  -2.568  0.00  0.00    -0.267 OA
ATOM     10  N   UNL     1       2.855   5.001  -3.568  0.00  0.00    -0.302 N 
ATOM     11  H   UNL     1       3.093   4.570  -4.552  0.00  0.00    +0.171 HD
ATOM     12  C   UNL     1       2.602   6.334  -3.454  0.00  0.00    +0.171 A 
ATOM     13  N   UNL     1       2.318   6.882  -2.290  0.00  0.00    -0.208 NA
ATOM     14  C   UNL     1       2.267   6.145  -1.175  0.00  0.00    +0.135 A 
ATOM     15  N   UNL     1       1.973   6.732   0.040  0.00  0.00    -0.302 N 
ATOM     16  C   UNL     1       2.861   4.132   2.453  0.00  0.00    +0.162 C 
ATOM     17  O   UNL     1       3.088   2.938   2.447  0.00  0.00    -0.292 OA
ATOM     18  C   UNL     1       2.939   4.891   3.749  0.00  0.00    +0.086 C 
ATOM     19  C   UNL     1       2.125   6.929   4.955  0.00  0.00    +0.011 C 
ATOM     20  H   UNL     1       1.474   7.713   0.059  0.00  0.00    +0.153 HD
ENDROOT
BRANCH   6  21
ATOM     21  C   UNL     1       1.156   3.166   0.007  0.00  0.00    -0.035 A 
ATOM     22  C   UNL     1       1.175   1.783   0.000  0.00  0.00    +0.007 A 
ATOM     23  C   UNL     1      -0.013   1.076   0.008  0.00  0.00    +0.038 A 
ATOM     24  C   UNL     1      -1.221   1.752   0.017  0.00  0.00    +0.123 A 
ATOM     25  C   UNL     1      -1.238   3.136   0.030  0.00  0.00    +0.038 A 
ATOM     26  C   UNL     1      -0.050   3.842   0.022  0.00  0.00    +0.007 A 
ATOM     27  F   UNL     1      -2.382   1.062   0.019  0.00  0.00    -0.205 F 
ENDBRANCH   6  21
BRANCH  12  28
ATOM     28  S   UNL     1       2.657   7.349  -4.894  0.00  0.00    -0.091 S 
ATOM     29  C   UNL     1       2.256   8.955  -4.162  0.00  0.00    +0.093 C 
ENDBRANCH  12  28
TORSDOF 2
