REMARK  Name = ZINC24758601
REMARK  7 active torsions:
REMARK  status: ('A' for Active; 'I' for Inactive)
REMARK    1  A    between atoms: C_1  and  C_2
REMARK    2  A    between atoms: C_5  and  C_9
REMARK    3  A    between atoms: C_6  and  C_8
REMARK    4  A    between atoms: C_11  and  C_14
REMARK    5  A    between atoms: C_14  and  N_15
REMARK    6  A    between atoms: C_18  and  C_22
REMARK    7  A    between atoms: C_18  and  C_23
REMARK                            x       y       z     vdW  Elec       q    Type
REMARK                         _______ _______ _______ _____ _____    ______ ____
ROOT
ATOM      1  N   UNL     1      -5.095  -1.764  -1.916  0.00  0.00    -0.218 N 
ATOM      2  C   UNL     1      -6.070  -1.419  -2.780  0.00  0.00    +0.251 C 
ATOM      3  O   UNL     1      -7.039  -0.728  -2.551  0.00  0.00    -0.272 OA
ATOM      4  C   UNL     1      -5.701  -2.073  -4.097  0.00  0.00    +0.135 C 
ATOM      5  N   UNL     1      -4.447  -2.783  -3.792  0.00  0.00    -0.281 N 
ATOM      6  C   UNL     1      -4.175  -2.544  -2.496  0.00  0.00    +0.310 C 
ATOM      7  O   UNL     1      -3.202  -2.986  -1.917  0.00  0.00    -0.252 OA
ATOM      8  C   UNL     1      -6.787  -3.059  -4.530  0.00  0.00    +0.047 C 
ATOM      9  H   UNL     1      -3.939  -3.363  -4.576  0.00  0.00    +0.152 HD
ENDROOT
BRANCH   4  10
ATOM     10  C   UNL     1      -5.475  -1.033  -5.164  0.00  0.00    -0.015 A 
ATOM     11  C   UNL     1      -6.229   0.126  -5.171  0.00  0.00    +0.007 A 
ATOM     12  C   UNL     1      -6.018   1.082  -6.147  0.00  0.00    +0.020 A 
ATOM     13  C   UNL     1      -5.060   0.874  -7.123  0.00  0.00    +0.041 A 
ATOM     14  C   UNL     1      -4.310  -0.289  -7.119  0.00  0.00    +0.020 A 
ATOM     15  C   UNL     1      -4.518  -1.242  -6.140  0.00  0.00    +0.007 A 
ATOM     16 CL   UNL     1      -4.800   2.071  -8.354  0.00  0.00    -0.084 Cl
ENDBRANCH   4  10
BRANCH   1  17
ATOM     17  C   UNL     1      -5.051  -1.344  -0.513  0.00  0.00    +0.176 C 
BRANCH  17  20
ATOM     18  C   UNL     1      -2.670   1.361  -0.223  0.00  0.00    +0.228 A 
ATOM     19  N   UNL     1      -2.961   0.084  -0.300  0.00  0.00    -0.212 NA
ATOM     20  C   UNL     1      -4.292  -0.047  -0.401  0.00  0.00    +0.098 A 
ATOM     21  C   UNL     1      -4.830   1.187  -0.385  0.00  0.00    +0.222 A 
ATOM     22  O   UNL     1      -3.814   2.065  -0.268  0.00  0.00    -0.443 OA
BRANCH  18  27
ATOM     23  C   UNL     1       2.616   3.587   0.246  0.00  0.00    +0.044 C 
ATOM     24  C   UNL     1       1.233   3.001   0.126  0.00  0.00    -0.050 A 
ATOM     25  C   UNL     1       0.981   2.016  -0.813  0.00  0.00    +0.004 A 
ATOM     26  C   UNL     1      -0.283   1.477  -0.929  0.00  0.00    +0.014 A 
ATOM     27  C   UNL     1      -1.311   1.930  -0.100  0.00  0.00    +0.040 A 
ATOM     28  C   UNL     1      -1.048   2.919   0.849  0.00  0.00    -0.038 A 
ATOM     29  C   UNL     1       0.221   3.451   0.954  0.00  0.00    +0.007 A 
ATOM     30  C   UNL     1      -2.150   3.410   1.752  0.00  0.00    +0.044 C 
ENDBRANCH  18  27
ENDBRANCH  17  20
ENDBRANCH   1  17
TORSDOF 4
