REMARK  Name = ZINC40388933
REMARK  3 active torsions:
REMARK  status: ('A' for Active; 'I' for Inactive)
REMARK    1  A    between atoms: C_1  and  C_2
REMARK    2  A    between atoms: C_21  and  C_23
REMARK    3  A    between atoms: N_25  and  C_26
REMARK                            x       y       z     vdW  Elec       q    Type
REMARK                         _______ _______ _______ _____ _____    ______ ____
ROOT
ATOM      1  C   UNL     1      -0.708   1.285   1.022  0.00  0.00    +0.009 C 
ATOM      2  C   UNL     1      -0.613  -0.241   0.963  0.00  0.00    +0.003 C 
ATOM      3  C   UNL     1      -2.003  -0.848   1.169  0.00  0.00    +0.006 C 
ATOM      4  C   UNL     1      -1.914  -2.373   1.078  0.00  0.00    +0.019 C 
ATOM      5  C   UNL     1      -0.990  -2.894   2.184  0.00  0.00    +0.108 C 
ATOM      6  N   UNL     1       0.304  -2.207   2.081  0.00  0.00    -0.301 N 
ATOM      7  C   UNL     1       0.326  -0.738   2.067  0.00  0.00    +0.111 C 
ATOM      8  C   UNL     1       1.469  -2.922   1.999  0.00  0.00    +0.200 A 
ATOM      9  N   UNL     1       1.428  -4.276   2.125  0.00  0.00    -0.295 N 
ATOM     10  H   UNL     1       0.579  -4.725   2.259  0.00  0.00    +0.172 HD
ATOM     11  C   UNL     1       2.569  -4.996   2.065  0.00  0.00    +0.258 A 
ATOM     12  O   UNL     1       2.548  -6.210   2.192  0.00  0.00    -0.267 OA
ATOM     13  C   UNL     1       3.776  -4.322   1.853  0.00  0.00    +0.069 A 
ATOM     14  C   UNL     1       3.763  -2.946   1.710  0.00  0.00    +0.138 A 
ATOM     15  N   UNL     1       2.603  -2.284   1.795  0.00  0.00    -0.200 NA
ATOM     16  N   UNL     1       4.938  -2.260   1.456  0.00  0.00    -0.270 N 
ATOM     17  C   UNL     1       6.053  -2.913   1.087  0.00  0.00    +0.219 C 
ATOM     18  O   UNL     1       7.095  -2.302   0.975  0.00  0.00    -0.275 OA
ATOM     19  C   UNL     1       6.025  -4.393   0.811  0.00  0.00    +0.114 C 
ATOM     20  C   UNL     1       5.074  -5.082   1.791  0.00  0.00    +0.122 C 
ATOM     21  H   UNL     1       4.956  -1.294   1.545  0.00  0.00    +0.156 HD
ENDROOT
BRANCH  20  22
ATOM     22  C   UNL     1       4.809  -6.491   1.327  0.00  0.00    +0.225 C 
ATOM     23  O   UNL     1       4.405  -6.692   0.201  0.00  0.00    -0.275 OA
ATOM     24  N   UNL     1       5.019  -7.527   2.163  0.00  0.00    -0.285 N 
ATOM     25  H   UNL     1       5.269  -7.363   3.085  0.00  0.00    +0.155 HD
BRANCH  24  26
ATOM     26  C   UNL     1       4.877  -8.840   1.699  0.00  0.00    +0.036 A 
ATOM     27  C   UNL     1       4.406  -9.831   2.550  0.00  0.00    +0.043 A 
ATOM     28  C   UNL     1       4.266 -11.126   2.090  0.00  0.00    +0.044 A 
ATOM     29  C   UNL     1       4.595 -11.437   0.782  0.00  0.00    +0.040 A 
ATOM     30  C   UNL     1       5.066 -10.451  -0.068  0.00  0.00    +0.044 A 
ATOM     31  C   UNL     1       5.202  -9.153   0.386  0.00  0.00    +0.043 A 
ATOM     32 CL   UNL     1       5.479 -10.845  -1.708  0.00  0.00    -0.083 Cl
ATOM     33 CL   UNL     1       3.677 -12.366   3.153  0.00  0.00    -0.083 Cl
ENDBRANCH  24  26
ENDBRANCH  20  22
TORSDOF 2
