REMARK  Name = ZINC14528562
REMARK  7 active torsions:
REMARK  status: ('A' for Active; 'I' for Inactive)
REMARK    1  A    between atoms: C_1  and  C_2
REMARK    2  A    between atoms: C_5  and  C_35
REMARK    3  A    between atoms: C_9  and  C_10
REMARK    4  A    between atoms: C_9  and  N_64
REMARK    5  A    between atoms: C_16  and  C_18
REMARK    6  A    between atoms: C_18  and  C_19
REMARK    7  A    between atoms: C_19  and  C_20
REMARK                            x       y       z     vdW  Elec       q    Type
REMARK                         _______ _______ _______ _____ _____    ______ ____
ROOT
ATOM      1  C   UNL     1       5.281  11.354   0.013  0.00  0.00    +0.034 A 
ATOM      2  C   UNL     1       6.597  11.032  -0.002  0.00  0.00    +0.070 A 
ATOM      3  S   UNL     1       6.502   9.248  -0.012  0.00  0.00    -0.060 S 
ATOM      4  C   UNL     1       4.771   9.114   0.006  0.00  0.00    +0.164 A 
ATOM      5  N   UNL     1       4.395  10.378   0.011  0.00  0.00    -0.231 NA
ATOM      6  N   UNL     1       3.984   7.968   0.007  0.00  0.00    -0.265 N 
ATOM      7  C   UNL     1       4.564   6.752  -0.005  0.00  0.00    +0.219 C 
ATOM      8  O   UNL     1       5.774   6.657  -0.018  0.00  0.00    -0.275 OA
ATOM      9  H   UNL     1       3.017   8.044   0.017  0.00  0.00    +0.157 HD
ENDROOT
BRANCH   1  10
ATOM     10  C   UNL     1       4.839  12.795   0.026  0.00  0.00    -0.022 C 
BRANCH  10  18
ATOM     11  C   UNL     1       6.736  13.606  -4.439  0.00  0.00    +0.005 C 
ATOM     12  C   UNL     1       5.453  13.571  -3.607  0.00  0.00    -0.031 C 
ATOM     13  C   UNL     1       4.763  14.936  -3.674  0.00  0.00    +0.003 C 
ATOM     14  C   UNL     1       3.512  14.911  -2.791  0.00  0.00    -0.031 C 
ATOM     15  C   UNL     1       3.911  14.550  -1.359  0.00  0.00    -0.075 C 
ATOM     16  C   UNL     1       5.796  13.249  -2.151  0.00  0.00    -0.075 C 
ATOM     17  C   UNL     1       2.530  13.867  -3.326  0.00  0.00    +0.005 C 
ATOM     18  N   UNL     1       4.548  13.216  -1.359  0.00  0.00    +0.384 N 
ATOM     19  H   UNL     1       3.902  12.540  -1.784  0.00  0.00    -0.081 HD
ENDBRANCH  10  18
ENDBRANCH   1  10
BRANCH   7  20
ATOM     20  C   UNL     1       3.711   5.510  -0.004  0.00  0.00    +0.104 C 
BRANCH  20  21
ATOM     21  C   UNL     1       4.611   4.272  -0.020  0.00  0.00    +0.083 C 
BRANCH  21  22
ATOM     22  C   UNL     1       3.758   3.030  -0.018  0.00  0.00    +0.111 A 
ATOM     23  N   UNL     1       4.373   1.823  -0.031  0.00  0.00    -0.310 N 
ATOM     24  H   UNL     1       5.343   1.799  -0.041  0.00  0.00    +0.170 HD
ATOM     25  C   UNL     1       3.698   0.650  -0.030  0.00  0.00    +0.260 A 
ATOM     26  O   UNL     1       4.269  -0.427  -0.041  0.00  0.00    -0.267 OA
ATOM     27  C   UNL     1       2.266   0.755  -0.015  0.00  0.00    +0.075 A 
ATOM     28  C   UNL     1       1.313  -0.341  -0.012  0.00  0.00    -0.023 A 
ATOM     29  C   UNL     1       0.002  -0.004   0.002  0.00  0.00    -0.004 A 
ATOM     30  S   UNL     1      -0.022   1.771   0.012  0.00  0.00    -0.073 S 
ATOM     31  C   UNL     1       1.719   2.057  -0.003  0.00  0.00    +0.116 A 
ATOM     32  N   UNL     1       2.450   3.167  -0.004  0.00  0.00    -0.227 NA
ATOM     33  C   UNL     1      -1.173  -0.933   0.007  0.00  0.00    +0.043 C 
ATOM     34  C   UNL     1      -0.685  -2.336  -0.379  0.00  0.00    +0.005 C 
ATOM     35  C   UNL     1       0.563  -2.666   0.447  0.00  0.00    +0.005 C 
ATOM     36  C   UNL     1       1.737  -1.807  -0.023  0.00  0.00    +0.037 C 
ENDBRANCH  21  22
ENDBRANCH  20  21
ENDBRANCH   7  20
TORSDOF 5
