REMARK  Name = ZINC13499503
REMARK  17 active torsions:
REMARK  status: ('A' for Active; 'I' for Inactive)
REMARK    1  A    between atoms: C_1  and  C_2
REMARK    2  A    between atoms: C_2  and  C_3
REMARK    3  A    between atoms: C_3  and  C_4
REMARK    4  A    between atoms: C_4  and  C_6
REMARK    5  A    between atoms: C_4  and  N_68
REMARK    6  A    between atoms: N_10  and  C_11
REMARK    7  A    between atoms: C_11  and  C_12
REMARK    8  A    between atoms: C_11  and  C_13
REMARK    9  A    between atoms: C_11  and  C_14
REMARK   10  A    between atoms: C_14  and  C_15
REMARK   11  A    between atoms: C_16  and  C_17
REMARK   12  A    between atoms: C_16  and  N_68
REMARK   13  A    between atoms: C_17  and  O_18
REMARK   14  A    between atoms: C_19  and  C_20
REMARK   15  A    between atoms: C_19  and  N_68
REMARK   16  A    between atoms: C_24  and  C_33
REMARK   17  A    between atoms: C_25  and  C_32
REMARK                            x       y       z     vdW  Elec       q    Type
REMARK                         _______ _______ _______ _____ _____    ______ ____
ROOT
ATOM      1  N   UNL     1      -5.762   4.171  -1.285  0.00  0.00    +0.391 N 
ATOM      2  H   UNL     1      -5.192   4.569  -2.041  0.00  0.00    -0.080 HD
ENDROOT
BRANCH   1   3
ATOM      3  C   UNL     1      -7.057   4.882  -1.236  0.00  0.00    +0.003 C 
BRANCH   3   4
ATOM      4  C   UNL     1      -7.793   4.550   0.036  0.00  0.00    +0.139 A 
ATOM      5  N   UNL     1      -7.290   4.517   1.246  0.00  0.00    -0.115 NA
ATOM      6  N   UNL     1      -8.234   4.196   2.062  0.00  0.00    -0.023 NA
ATOM      7  N   UNL     1      -9.325   4.017   1.403  0.00  0.00    -0.043 NA
ATOM      8  N   UNL     1      -9.095   4.226   0.151  0.00  0.00    -0.225 N 
BRANCH   8   9
ATOM      9  C   UNL     1     -10.066   4.129  -0.942  0.00  0.00    +0.061 C 
ATOM     10  C   UNL     1     -10.081   5.440  -1.730  0.00  0.00    +0.036 C 
ATOM     11  C   UNL     1      -9.675   2.979  -1.872  0.00  0.00    +0.036 C 
BRANCH   9  12
ATOM     12  C   UNL     1     -11.458   3.866  -0.364  0.00  0.00    +0.026 C 
ATOM     13  C   UNL     1     -12.473   3.764  -1.504  0.00  0.00    +0.006 C 
ENDBRANCH   9  12
ENDBRANCH   8   9
ENDBRANCH   3   4
BRANCH   3  14
ATOM     14  C   UNL     1      -6.794   6.388  -1.296  0.00  0.00    -0.008 C 
BRANCH  14  16
ATOM     15  C   UNL     1      -5.787   8.226  -2.656  0.00  0.00    +0.004 C 
ATOM     16  C   UNL     1      -6.159   6.742  -2.642  0.00  0.00    -0.005 C 
ENDBRANCH  14  16
ENDBRANCH   3  14
ENDBRANCH   1   3
BRANCH   1  17
ATOM     17  C   UNL     1      -5.984   2.735  -1.556  0.00  0.00    -0.049 C 
BRANCH  17  18
ATOM     18  C   UNL     1      -6.370   2.567  -3.028  0.00  0.00    +0.137 C 
BRANCH  18  19
ATOM     19  O   UNL     1      -5.265   2.936  -3.855  0.00  0.00    -0.397 OA
ATOM     20  H   UNL     1      -5.438   2.853  -4.803  0.00  0.00    +0.209 HD
ENDBRANCH  18  19
ENDBRANCH  17  18
ENDBRANCH   1  17
BRANCH   1  21
ATOM     21  C   UNL     1      -5.045   4.338  -0.003  0.00  0.00    -0.036 C 
BRANCH  21  22
ATOM     22  C   UNL     1      -3.582   4.061  -0.230  0.00  0.00    +0.001 A 
ATOM     23  C   UNL     1      -2.731   5.086  -0.482  0.00  0.00    +0.017 A 
ATOM     24  C   UNL     1      -1.316   4.783  -0.703  0.00  0.00    -0.001 A 
ATOM     25  C   UNL     1      -0.394   5.797  -0.983  0.00  0.00    +0.013 A 
ATOM     26  C   UNL     1       0.920   5.481  -1.185  0.00  0.00    -0.047 A 
ATOM     27  C   UNL     1       1.348   4.162  -1.113  0.00  0.00    -0.046 A 
ATOM     28  C   UNL     1       0.458   3.147  -0.838  0.00  0.00    +0.030 A 
ATOM     29  C   UNL     1      -0.886   3.444  -0.634  0.00  0.00    +0.049 A 
ATOM     30  N   UNL     1      -1.800   2.448  -0.363  0.00  0.00    -0.322 N 
ATOM     31  H   UNL     1      -1.502   1.527  -0.313  0.00  0.00    +0.169 HD
ATOM     32  C   UNL     1      -3.099   2.736  -0.168  0.00  0.00    +0.251 A 
ATOM     33  O   UNL     1      -3.879   1.830   0.069  0.00  0.00    -0.268 OA
ATOM     34  C   UNL     1       2.802   3.837  -1.340  0.00  0.00    +0.044 C 
ATOM     35  C   UNL     1       1.913   6.574  -1.487  0.00  0.00    +0.044 C 
ENDBRANCH  21  22
ENDBRANCH   1  21
TORSDOF 11
