REMARK  Name = ZINC35842950
REMARK  4 active torsions:
REMARK  status: ('A' for Active; 'I' for Inactive)
REMARK    1  A    between atoms: C_3  and  S_8
REMARK    2  A    between atoms: S_8  and  N_11
REMARK    3  A    between atoms: C_21  and  N_24
REMARK    4  A    between atoms: N_27  and  C_28
REMARK                            x       y       z     vdW  Elec       q    Type
REMARK                         _______ _______ _______ _____ _____    ______ ____
ROOT
ATOM      1  N   UNL     1       4.322   2.562   1.555  0.00  0.00    -0.175 NA
ATOM      2  C   UNL     1       3.858   3.738   2.233  0.00  0.00    +0.111 C 
ATOM      3  C   UNL     1       4.850   4.876   1.940  0.00  0.00    +0.036 C 
ATOM      4  C   UNL     1       6.066   4.768   2.761  0.00  0.00    +0.108 C 
ATOM      5  N   UNL     1       6.734   3.466   2.523  0.00  0.00    -0.315 N 
ATOM      6  C   UNL     1       6.217   2.271   3.127  0.00  0.00    +0.123 C 
ATOM      7  C   UNL     1       5.179   1.547   2.227  0.00  0.00    +0.128 C 
ATOM      8  C   UNL     1       7.865   3.404   1.712  0.00  0.00    +0.099 A 
ATOM      9  C   UNL     1       8.547   2.199   1.575  0.00  0.00    +0.043 A 
ATOM     10  C   UNL     1       9.667   2.147   0.767  0.00  0.00    +0.028 A 
ATOM     11  C   UNL     1      10.072   3.312   0.117  0.00  0.00    +0.051 A 
ATOM     12  C   UNL     1       9.343   4.477   0.301  0.00  0.00    +0.107 A 
ATOM     13  N   UNL     1       8.275   4.489   1.076  0.00  0.00    -0.348 N 
ATOM     14  H   UNL     1       7.780   5.316   1.185  0.00  0.00    +0.167 HD
ENDROOT
BRANCH  11  15
ATOM     15  N   UNL     1      11.203   3.307  -0.711  0.00  0.00    -0.268 N 
ATOM     16  C   UNL     1      11.498   2.213  -1.442  0.00  0.00    +0.308 C 
ATOM     17  O   UNL     1      10.731   1.270  -1.460  0.00  0.00    -0.252 OA
ATOM     18  N   UNL     1      12.642   2.165  -2.153  0.00  0.00    -0.267 N 
ATOM     19  H   UNL     1      11.774   4.090  -0.758  0.00  0.00    +0.156 HD
ATOM     20  H   UNL     1      13.222   2.942  -2.190  0.00  0.00    +0.156 HD
BRANCH  18  21
ATOM     21  C   UNL     1      12.993   0.994  -2.837  0.00  0.00    +0.070 A 
ATOM     22  C   UNL     1      12.008   0.199  -3.406  0.00  0.00    +0.029 A 
ATOM     23  C   UNL     1      12.357  -0.956  -4.080  0.00  0.00    +0.040 A 
ATOM     24  C   UNL     1      13.688  -1.321  -4.189  0.00  0.00    +0.126 A 
ATOM     25  C   UNL     1      14.674  -0.531  -3.623  0.00  0.00    +0.078 A 
ATOM     26  C   UNL     1      14.330   0.629  -2.952  0.00  0.00    +0.147 A 
ATOM     27  F   UNL     1      15.292   1.403  -2.404  0.00  0.00    -0.203 F 
ATOM     28  F   UNL     1      14.025  -2.451  -4.848  0.00  0.00    -0.205 F 
ENDBRANCH  18  21
ENDBRANCH  11  15
BRANCH   1  29
ATOM     29  S   UNL     1       3.883   2.321  -0.023  0.00  0.00    +0.061 S 
ATOM     30  O   UNL     1       4.863   1.463  -0.591  0.00  0.00    -0.153 OA
ATOM     31  O   UNL     1       3.588   3.602  -0.563  0.00  0.00    -0.153 OA
BRANCH  29  34
ATOM     32  C   UNL     1      -0.024   1.387   0.015  0.00  0.00    +0.040 A 
ATOM     33  C   UNL     1       1.163   2.094   0.006  0.00  0.00    +0.031 A 
ATOM     34  C   UNL     1       2.370   1.419  -0.012  0.00  0.00    +0.106 A 
ATOM     35  C   UNL     1       2.389   0.037  -0.021  0.00  0.00    +0.031 A 
ATOM     36  C   UNL     1       1.203  -0.672  -0.012  0.00  0.00    +0.040 A 
ATOM     37  C   UNL     1      -0.006   0.003   0.006  0.00  0.00    +0.124 A 
ATOM     38  F   UNL     1      -1.166  -0.689   0.015  0.00  0.00    -0.205 F 
ENDBRANCH  29  34
ENDBRANCH   1  29
TORSDOF 4
