REMARK  Name = ZINC09308399
REMARK  2 active torsions:
REMARK  status: ('A' for Active; 'I' for Inactive)
REMARK    1  A    between atoms: C_1  and  C_2
REMARK    2  A    between atoms: N_20  and  C_23
REMARK                            x       y       z     vdW  Elec       q    Type
REMARK                         _______ _______ _______ _____ _____    ______ ____
ROOT
ATOM      1  C   UNL     1       0.208   5.892  -4.568  0.00  0.00    +0.044 C 
ATOM      2  C   UNL     1       1.608   6.301  -4.191  0.00  0.00    -0.050 A 
ATOM      3  C   UNL     1       2.440   6.877  -5.133  0.00  0.00    +0.005 A 
ATOM      4  C   UNL     1       3.723   7.253  -4.793  0.00  0.00    +0.024 A 
ATOM      5  C   UNL     1       4.190   7.056  -3.496  0.00  0.00    +0.036 A 
ATOM      6  C   UNL     1       3.344   6.475  -2.556  0.00  0.00    -0.027 A 
ATOM      7  C   UNL     1       2.065   6.101  -2.900  0.00  0.00    +0.008 A 
ATOM      8  C   UNL     1       4.135   6.404  -1.279  0.00  0.00    +0.053 C 
ATOM      9  C   UNL     1       4.272   4.960  -0.785  0.00  0.00    +0.089 C 
ATOM     10  C   UNL     1       4.217   5.068   0.764  0.00  0.00    +0.074 C 
ATOM     11  C   UNL     1       4.046   6.569   1.058  0.00  0.00    -0.054 C 
ATOM     12  C   UNL     1       2.035   6.802  -0.148  0.00  0.00    -0.076 C 
ATOM     13  C   UNL     1       1.636   6.929   1.336  0.00  0.00    -0.020 C 
ATOM     14  C   UNL     1       2.950   6.758   2.123  0.00  0.00    -0.016 C 
ATOM     15  C   UNL     1       2.938   4.343   1.119  0.00  0.00    +0.228 C 
ATOM     16  O   UNL     1       2.506   4.194   2.241  0.00  0.00    -0.275 OA
ATOM     17  N   UNL     1       2.360   3.889   0.001  0.00  0.00    -0.209 N 
ATOM     18  C   UNL     1       3.021   4.181  -1.125  0.00  0.00    +0.229 C 
ATOM     19  O   UNL     1       2.672   3.871  -2.244  0.00  0.00    -0.275 OA
ATOM     20  C   UNL     1       5.476   6.997  -1.618  0.00  0.00    +0.212 C 
ATOM     21  O   UNL     1       6.418   7.133  -0.866  0.00  0.00    -0.277 OA
ATOM     22  N   UNL     1       5.427   7.348  -2.917  0.00  0.00    -0.286 N 
ATOM     23  H   UNL     1       6.165   7.757  -3.395  0.00  0.00    +0.155 HD
ATOM     24  N   UNL     1       3.483   7.097  -0.164  0.00  0.00    +0.395 N 
ATOM     25  H   UNL     1       3.639   8.109  -0.233  0.00  0.00    -0.079 HD
ENDROOT
BRANCH  17  26
ATOM     26  C   UNL     1       1.156   3.170   0.008  0.00  0.00    +0.062 A 
ATOM     27  C   UNL     1      -0.055   3.840  -0.105  0.00  0.00    +0.027 A 
ATOM     28  C   UNL     1      -1.239   3.130  -0.098  0.00  0.00    +0.022 A 
ATOM     29  C   UNL     1      -1.221   1.751   0.027  0.00  0.00    +0.042 A 
ATOM     30  C   UNL     1      -0.016   1.080   0.134  0.00  0.00    +0.042 A 
ATOM     31  C   UNL     1       1.172   1.786   0.128  0.00  0.00    +0.064 A 
ATOM     32 CL   UNL     1       2.684   0.944   0.269  0.00  0.00    -0.082 Cl
ATOM     33 CL   UNL     1      -2.713   0.863   0.042  0.00  0.00    -0.083 Cl
ENDBRANCH  17  26
TORSDOF 1
