REMARK  Name = ZINC61999378
REMARK  3 active torsions:
REMARK  status: ('A' for Active; 'I' for Inactive)
REMARK    1  A    between atoms: C_1  and  C_2
REMARK    2  A    between atoms: C_23  and  C_31
REMARK    3  A    between atoms: C_31  and  C_33
REMARK                            x       y       z     vdW  Elec       q    Type
REMARK                         _______ _______ _______ _____ _____    ______ ____
ROOT
ATOM      1  C   UNL     1       0.117   1.546  -0.050  0.00  0.00    +0.044 C 
ATOM      2  C   UNL     1       0.202   0.041  -0.058  0.00  0.00    -0.049 A 
ATOM      3  C   UNL     1       0.152  -0.650  -1.256  0.00  0.00    +0.011 A 
ATOM      4  C   UNL     1       0.231  -2.025  -1.261  0.00  0.00    +0.006 A 
ATOM      5  C   UNL     1       0.360  -2.734  -0.072  0.00  0.00    +0.057 A 
ATOM      6  C   UNL     1       0.408  -2.031   1.131  0.00  0.00    +0.063 A 
ATOM      7  C   UNL     1       0.335  -0.652   1.131  0.00  0.00    +0.025 A 
ATOM      8 CL   UNL     1       0.568  -2.890   2.630  0.00  0.00    -0.082 Cl
ATOM      9  N   UNL     1       0.420  -4.105  -0.331  0.00  0.00    -0.282 N 
ATOM     10  C   UNL     1       0.339  -4.377  -1.647  0.00  0.00    +0.244 C 
ATOM     11  O   UNL     1       0.364  -5.476  -2.160  0.00  0.00    -0.273 OA
ATOM     12  C   UNL     1       0.209  -3.055  -2.359  0.00  0.00    +0.145 C 
ATOM     13  C   UNL     1      -1.083  -2.983  -3.164  0.00  0.00    +0.116 C 
ATOM     14  C   UNL     1      -1.880  -4.254  -3.066  0.00  0.00    -0.008 A 
ATOM     15  C   UNL     1      -1.607  -5.569  -3.370  0.00  0.00    +0.006 A 
ATOM     16  C   UNL     1      -2.570  -6.541  -3.164  0.00  0.00    +0.000 A 
ATOM     17  C   UNL     1      -3.805  -6.189  -2.653  0.00  0.00    +0.002 A 
ATOM     18  C   UNL     1      -4.083  -4.873  -2.346  0.00  0.00    +0.023 A 
ATOM     19  C   UNL     1      -3.119  -3.888  -2.550  0.00  0.00    +0.038 A 
ATOM     20  N   UNL     1      -3.159  -2.511  -2.321  0.00  0.00    -0.284 N 
ATOM     21  C   UNL     1      -2.003  -1.906  -2.654  0.00  0.00    +0.231 C 
ATOM     22  O   UNL     1      -1.751  -0.724  -2.561  0.00  0.00    -0.274 OA
ATOM     23  C   UNL     1      -0.658  -2.704  -4.616  0.00  0.00    +0.099 C 
ATOM     24  C   UNL     1       0.758  -2.101  -4.453  0.00  0.00    +0.070 C 
ATOM     25  N   UNL     1       1.331  -2.850  -3.293  0.00  0.00    -0.281 NA
ATOM     26  C   UNL     1       1.749  -4.155  -3.859  0.00  0.00    +0.086 C 
ATOM     27  C   UNL     1       2.289  -3.834  -5.267  0.00  0.00    +0.017 C 
ATOM     28  C   UNL     1       1.616  -2.490  -5.669  0.00  0.00    +0.021 C 
ATOM     29  H   UNL     1       0.510  -4.782   0.357  0.00  0.00    +0.155 HD
ATOM     30  H   UNL     1      -3.930  -2.044  -1.963  0.00  0.00    +0.155 HD
ENDROOT
BRANCH  23  31
ATOM     31  C   UNL     1      -0.609  -3.982  -5.412  0.00  0.00    +0.169 C 
ATOM     32  O   UNL     1       0.419  -4.623  -5.468  0.00  0.00    -0.292 OA
BRANCH  31  33
ATOM     33  C   UNL     1      -1.809  -4.454  -6.123  0.00  0.00    +0.018 A 
ATOM     34  C   UNL     1      -2.995  -3.715  -6.066  0.00  0.00    +0.011 A 
ATOM     35  C   UNL     1      -4.114  -4.163  -6.734  0.00  0.00    +0.001 A 
ATOM     36  C   UNL     1      -4.067  -5.340  -7.460  0.00  0.00    +0.000 A 
ATOM     37  C   UNL     1      -2.897  -6.077  -7.521  0.00  0.00    +0.001 A 
ATOM     38  C   UNL     1      -1.767  -5.640  -6.863  0.00  0.00    +0.011 A 
ENDBRANCH  31  33
ENDBRANCH  23  31
TORSDOF 2
