REMARK  Name = ZINC09120037
REMARK  6 active torsions:
REMARK  status: ('A' for Active; 'I' for Inactive)
REMARK    1  A    between atoms: C_4  and  C_7
REMARK    2  A    between atoms: C_7  and  C_29
REMARK    3  A    between atoms: N_10  and  C_14
REMARK    4  A    between atoms: C_14  and  C_15
REMARK    5  A    between atoms: N_17  and  C_18
REMARK    6  A    between atoms: C_23  and  C_24
REMARK                            x       y       z     vdW  Elec       q    Type
REMARK                         _______ _______ _______ _____ _____    ______ ____
ROOT
ATOM      1  C   UNL     1      -1.167   2.057  -0.332  0.00  0.00    +0.164 C 
ATOM      2  C   UNL     1       0.007   1.110  -0.488  0.00  0.00    +0.256 C 
ATOM      3  O   UNL     1      -0.032  -0.100  -0.553  0.00  0.00    -0.272 OA
ATOM      4  N   UNL     1       1.102   1.894  -0.546  0.00  0.00    -0.215 N 
ATOM      5  C   UNL     1       0.786   3.190  -0.444  0.00  0.00    +0.310 C 
ATOM      6  O   UNL     1       1.605   4.088  -0.470  0.00  0.00    -0.252 OA
ATOM      7  N   UNL     1      -0.537   3.388  -0.310  0.00  0.00    -0.278 N 
ATOM      8  H   UNL     1      -0.990   4.242  -0.221  0.00  0.00    +0.152 HD
ENDROOT
BRANCH   1  12
ATOM      9  C   UNL     1      -3.835   1.702  -3.649  0.00  0.00    +0.000 A 
ATOM     10  C   UNL     1      -3.761   2.890  -2.945  0.00  0.00    +0.000 A 
ATOM     11  C   UNL     1      -2.897   3.005  -1.872  0.00  0.00    +0.006 A 
ATOM     12  C   UNL     1      -2.108   1.932  -1.502  0.00  0.00    -0.011 A 
ATOM     13  C   UNL     1      -2.179   0.746  -2.209  0.00  0.00    +0.006 A 
ATOM     14  C   UNL     1      -3.045   0.630  -3.279  0.00  0.00    +0.000 A 
ENDBRANCH   1  12
BRANCH   1  15
ATOM     15  C   UNL     1      -1.891   1.794   0.964  0.00  0.00    -0.011 A 
ATOM     16  C   UNL     1      -2.861   0.810   1.026  0.00  0.00    +0.006 A 
ATOM     17  C   UNL     1      -3.522   0.567   2.215  0.00  0.00    +0.000 A 
ATOM     18  C   UNL     1      -3.220   1.312   3.340  0.00  0.00    +0.000 A 
ATOM     19  C   UNL     1      -2.254   2.299   3.276  0.00  0.00    +0.000 A 
ATOM     20  C   UNL     1      -1.590   2.540   2.087  0.00  0.00    +0.006 A 
ENDBRANCH   1  15
BRANCH   4  21
ATOM     21  C   UNL     1       2.468   1.389  -0.700  0.00  0.00    +0.214 C 
BRANCH  21  22
ATOM     22  C   UNL     1       2.806   1.294  -2.166  0.00  0.00    +0.235 C 
ATOM     23  O   UNL     1       1.986   1.617  -2.999  0.00  0.00    -0.274 OA
ATOM     24  N   UNL     1       4.019   0.851  -2.550  0.00  0.00    -0.284 N 
ATOM     25  H   UNL     1       4.656   0.543  -1.886  0.00  0.00    +0.155 HD
BRANCH  24  26
ATOM     26  C   UNL     1       4.360   0.834  -3.908  0.00  0.00    +0.045 A 
ATOM     27  C   UNL     1       3.390   0.569  -4.865  0.00  0.00    +0.025 A 
ATOM     28  C   UNL     1       3.729   0.553  -6.204  0.00  0.00    +0.022 A 
ATOM     29  C   UNL     1       5.035   0.801  -6.591  0.00  0.00    +0.042 A 
ATOM     30  C   UNL     1       6.003   1.065  -5.639  0.00  0.00    +0.034 A 
ATOM     31  C   UNL     1       5.668   1.088  -4.299  0.00  0.00    +0.077 A 
ATOM     32 CL   UNL     1       5.458   0.780  -8.275  0.00  0.00    -0.084 Cl
BRANCH  31  33
ATOM     33  C   UNL     1       6.722   1.383  -3.263  0.00  0.00    +0.419 C 
ATOM     34  F   UNL     1       7.950   1.604  -3.896  0.00  0.00    -0.166 F 
ATOM     35  F   UNL     1       6.359   2.523  -2.539  0.00  0.00    -0.166 F 
ATOM     36  F   UNL     1       6.836   0.294  -2.392  0.00  0.00    -0.166 F 
ENDBRANCH  31  33
ENDBRANCH  24  26
ENDBRANCH  21  22
ENDBRANCH   4  21
TORSDOF 6
