REMARK  Name = ZINC04828904
REMARK  6 active torsions:
REMARK  status: ('A' for Active; 'I' for Inactive)
REMARK    1  A    between atoms: C_1  and  O_2
REMARK    2  A    between atoms: O_2  and  C_3
REMARK    3  A    between atoms: C_6  and  C_12
REMARK    4  A    between atoms: C_8  and  N_9
REMARK    5  A    between atoms: C_25  and  O_28
REMARK    6  A    between atoms: O_28  and  C_29
REMARK                            x       y       z     vdW  Elec       q    Type
REMARK                         _______ _______ _______ _____ _____    ______ ____
ROOT
ATOM      1  C   UNL     1      -1.803   4.263  -0.332  0.00  0.00    +0.105 C 
ATOM      2  C   UNL     1      -0.614   3.389  -0.671  0.00  0.00    +0.029 C 
ATOM      3  C   UNL     1       0.729   3.712  -0.008  0.00  0.00    +0.033 C 
ATOM      4  C   UNL     1       1.380   2.327   0.052  0.00  0.00    -0.030 C 
ATOM      5  C   UNL     1       0.442   1.387   0.078  0.00  0.00    -0.023 C 
ATOM      6  C   UNL     1      -0.887   2.046   0.070  0.00  0.00    +0.050 C 
ATOM      7  C   UNL     1      -2.074   1.440  -0.573  0.00  0.00    +0.002 A 
ATOM      8  C   UNL     1      -2.218   0.071  -0.686  0.00  0.00    +0.047 A 
ATOM      9  C   UNL     1      -3.344  -0.471  -1.278  0.00  0.00    +0.024 A 
ATOM     10  C   UNL     1      -4.333   0.367  -1.762  0.00  0.00    +0.049 A 
ATOM     11  C   UNL     1      -4.194   1.737  -1.659  0.00  0.00    +0.141 A 
ATOM     12  C   UNL     1      -3.055   2.299  -1.069  0.00  0.00    +0.075 A 
ATOM     13  N   UNL     1      -2.966   3.692  -1.035  0.00  0.00    -0.334 N 
ATOM     14 CL   UNL     1      -0.977  -0.979  -0.077  0.00  0.00    -0.083 Cl
ATOM     15  H   UNL     1      -3.825   4.101  -0.698  0.00  0.00    +0.147 HD
ENDROOT
BRANCH   1  19
ATOM     16  C   UNL     1      -2.455   4.261   3.891  0.00  0.00    +0.150 A 
ATOM     17  C   UNL     1      -1.561   5.160   3.326  0.00  0.00    +0.048 A 
ATOM     18  C   UNL     1      -1.352   5.159   1.961  0.00  0.00    +0.009 A 
ATOM     19  C   UNL     1      -2.033   4.263   1.157  0.00  0.00    -0.025 A 
ATOM     20  C   UNL     1      -2.928   3.370   1.717  0.00  0.00    +0.042 A 
ATOM     21  C   UNL     1      -3.136   3.364   3.083  0.00  0.00    +0.168 A 
BRANCH  21  22
ATOM     22  N   UNL     1      -4.090   2.404   3.682  0.00  0.00    +0.060 N 
ATOM     23  O   UNL     1      -4.688   1.616   2.972  0.00  0.00    -0.126 OA
ATOM     24  O   UNL     1      -4.277   2.402   4.886  0.00  0.00    -0.126 OA
ENDBRANCH  21  22
BRANCH  16  26
ATOM     25  C   UNL     1      -1.926   5.214   6.005  0.00  0.00    +0.277 C 
ATOM     26  O   UNL     1      -2.662   4.261   5.234  0.00  0.00    -0.493 OA
ENDBRANCH  16  26
ENDBRANCH   1  19
BRANCH  11  27
ATOM     27  O   UNL     1      -5.175   2.550  -2.137  0.00  0.00    -0.493 OA
ATOM     28  C   UNL     1      -6.311   1.917  -2.728  0.00  0.00    +0.277 C 
ENDBRANCH  11  27
TORSDOF 4
