REMARK  Name = ZINC39552553
REMARK  8 active torsions:
REMARK  status: ('A' for Active; 'I' for Inactive)
REMARK    1  A    between atoms: C_4  and  C_7
REMARK    2  A    between atoms: C_10  and  C_13
REMARK    3  A    between atoms: C_13  and  N_14
REMARK    4  A    between atoms: C_15  and  C_17
REMARK    5  A    between atoms: C_17  and  C_18
REMARK    6  A    between atoms: C_18  and  C_19
REMARK    7  A    between atoms: C_19  and  C_25
REMARK    8  A    between atoms: C_25  and  C_26
REMARK                            x       y       z     vdW  Elec       q    Type
REMARK                         _______ _______ _______ _____ _____    ______ ____
ROOT
ATOM      1  C   UNL     1       7.517  -5.950  -2.073  0.00  0.00    +0.098 C 
ENDROOT
BRANCH   1   3
ATOM      2  N   UNL     1       5.848  -4.431  -1.060  0.00  0.00    -0.310 N 
ATOM      3  C   UNL     1       6.180  -5.255  -2.074  0.00  0.00    +0.213 C 
ATOM      4  O   UNL     1       5.403  -5.437  -2.987  0.00  0.00    -0.276 OA
ATOM      5  H   UNL     1       6.470  -4.285  -0.330  0.00  0.00    +0.149 HD
BRANCH   2   6
ATOM      6  C   UNL     1       4.548  -3.755  -1.061  0.00  0.00    +0.161 C 
BRANCH   6   9
ATOM      7  C   UNL     1       4.238  -1.199   1.635  0.00  0.00    +0.153 C 
ATOM      8  C   UNL     1       4.341  -1.567   0.165  0.00  0.00    +0.030 C 
ATOM      9  C   UNL     1       4.426  -2.899   0.173  0.00  0.00    +0.076 C 
ATOM     10  N   UNL     1       4.389  -3.376   1.437  0.00  0.00    -0.181 NA
ATOM     11  N   UNL     1       4.288  -2.506   2.312  0.00  0.00    -0.297 N 
ATOM     12  H   UNL     1       4.248  -2.657   3.269  0.00  0.00    +0.183 HD
BRANCH   7  16
ATOM     13  C   UNL     1       0.538   0.779   2.440  0.00  0.00    +0.000 A 
ATOM     14  C   UNL     1       1.705   1.512   2.336  0.00  0.00    +0.000 A 
ATOM     15  C   UNL     1       2.903   0.872   2.075  0.00  0.00    +0.006 A 
ATOM     16  C   UNL     1       2.933  -0.502   1.920  0.00  0.00    -0.020 A 
ATOM     17  C   UNL     1       1.765  -1.235   2.025  0.00  0.00    +0.006 A 
ATOM     18  C   UNL     1       0.568  -0.595   2.283  0.00  0.00    +0.000 A 
ENDBRANCH   7  16
ENDBRANCH   6   9
ENDBRANCH   2   6
ENDBRANCH   1   3
BRANCH   1  19
ATOM     19  C   UNL     1       7.641  -6.819  -3.326  0.00  0.00    +0.035 C 
BRANCH  19  20
ATOM     20  C   UNL     1       9.031  -7.457  -3.369  0.00  0.00    +0.039 C 
ATOM     21  C   UNL     1       9.114  -8.481  -4.523  0.00  0.00    +0.035 C 
ATOM     22  C   UNL     1       8.749  -9.799  -3.802  0.00  0.00    +0.098 C 
ATOM     23  C   UNL     1       9.117  -9.546  -2.357  0.00  0.00    +0.214 C 
ATOM     24  O   UNL     1       9.251 -10.407  -1.513  0.00  0.00    -0.276 OA
ATOM     25  N   UNL     1       9.274  -8.228  -2.143  0.00  0.00    -0.309 N 
ATOM     26  H   UNL     1       9.516  -7.837  -1.290  0.00  0.00    +0.149 HD
BRANCH  20  27
ATOM     27  C   UNL     1      10.103  -6.379  -3.537  0.00  0.00    +0.061 C 
BRANCH  27  28
ATOM     28  C   UNL     1      11.469  -7.011  -3.458  0.00  0.00    -0.042 A 
ATOM     29  C   UNL     1      12.053  -7.240  -2.226  0.00  0.00    +0.007 A 
ATOM     30  C   UNL     1      13.305  -7.820  -2.148  0.00  0.00    +0.050 A 
ATOM     31  C   UNL     1      13.978  -8.174  -3.306  0.00  0.00    +0.166 A 
ATOM     32  C   UNL     1      13.390  -7.944  -4.547  0.00  0.00    +0.166 A 
ATOM     33  C   UNL     1      12.132  -7.367  -4.617  0.00  0.00    +0.053 A 
ATOM     34  O   UNL     1      14.243  -8.375  -5.521  0.00  0.00    -0.453 OA
ATOM     35  C   UNL     1      15.527  -8.495  -4.882  0.00  0.00    +0.466 C 
ATOM     36  O   UNL     1      15.200  -8.749  -3.503  0.00  0.00    -0.453 OA
ENDBRANCH  27  28
ENDBRANCH  20  27
ENDBRANCH  19  20
ENDBRANCH   1  19
TORSDOF 8
