REMARK  Name = ZINC39665694
REMARK  9 active torsions:
REMARK  status: ('A' for Active; 'I' for Inactive)
REMARK    1  A    between atoms: C_1  and  C_2
REMARK    2  A    between atoms: C_2  and  C_4
REMARK    3  A    between atoms: C_2  and  O_29
REMARK    4  A    between atoms: C_4  and  N_5
REMARK    5  A    between atoms: C_6  and  C_8
REMARK    6  A    between atoms: C_19  and  C_21
REMARK    7  A    between atoms: O_29  and  C_30
REMARK    8  A    between atoms: C_33  and  O_36
REMARK    9  A    between atoms: O_36  and  C_37
REMARK                            x       y       z     vdW  Elec       q    Type
REMARK                         _______ _______ _______ _____ _____    ______ ____
ROOT
ATOM      1  C   UNL     1       2.117  -4.372   3.110  0.00  0.00    +0.100 C 
ATOM      2  C   UNL     1       2.723  -4.982   1.826  0.00  0.00    +0.121 C 
ATOM      3  N   UNL     1       4.169  -5.117   2.122  0.00  0.00    -0.296 N 
ATOM      4  C   UNL     1       4.216  -5.559   3.536  0.00  0.00    +0.115 C 
ATOM      5  C   UNL     1       3.098  -4.756   4.230  0.00  0.00    -0.004 C 
ATOM      6  C   UNL     1       3.676  -3.502   4.879  0.00  0.00    -0.010 C 
ATOM      7  C   UNL     1       4.605  -3.908   6.027  0.00  0.00    -0.082 C 
ATOM      8  N   UNL     1       3.852  -4.692   7.014  0.00  0.00    +0.379 N 
ATOM      9  C   UNL     1       3.378  -5.941   6.406  0.00  0.00    -0.082 C 
ATOM     10  C   UNL     1       2.397  -5.620   5.274  0.00  0.00    -0.010 C 
ATOM     11  C   UNL     1       5.206  -4.889   1.292  0.00  0.00    +0.248 C 
ATOM     12  O   UNL     1       6.340  -5.131   1.657  0.00  0.00    -0.270 OA
ATOM     13  H   UNL     1       4.449  -4.907   7.798  0.00  0.00    -0.086 HD
ATOM     14  H   UNL     1       3.060  -4.154   7.335  0.00  0.00    -0.086 HD
ENDROOT
BRANCH  11  15
ATOM     15  C   UNL     1       4.965  -4.346  -0.061  0.00  0.00    +0.057 A 
ATOM     16  C   UNL     1       3.898  -4.819  -0.827  0.00  0.00    +0.014 A 
ATOM     17  C   UNL     1       3.678  -4.309  -2.089  0.00  0.00    +0.002 A 
ATOM     18  C   UNL     1       4.512  -3.328  -2.598  0.00  0.00    +0.021 A 
ATOM     19  C   UNL     1       5.571  -2.853  -1.845  0.00  0.00    +0.060 A 
ATOM     20  C   UNL     1       5.800  -3.352  -0.576  0.00  0.00    +0.071 A 
ATOM     21 CL   UNL     1       7.125  -2.750   0.370  0.00  0.00    -0.081 Cl
ATOM     22 CL   UNL     1       6.612  -1.623  -2.493  0.00  0.00    -0.082 Cl
ENDBRANCH  11  15
BRANCH   1  24
ATOM     23  N   UNL     1       1.140  -2.188   3.739  0.00  0.00    -0.312 N 
ATOM     24  C   UNL     1       2.023  -2.873   2.985  0.00  0.00    +0.218 C 
ATOM     25  O   UNL     1       2.742  -2.283   2.207  0.00  0.00    -0.275 OA
ATOM     26  H   UNL     1       0.565  -2.660   4.361  0.00  0.00    +0.149 HD
BRANCH  23  27
ATOM     27  C   UNL     1       1.049  -0.731   3.618  0.00  0.00    +0.148 C 
BRANCH  27  29
ATOM     28  C   UNL     1      -0.206   1.298   4.360  0.00  0.00    +0.053 C 
ATOM     29  C   UNL     1      -0.022  -0.206   4.575  0.00  0.00    +0.187 C 
BRANCH  29  30
ATOM     30  O   UNL     1       0.384  -0.449   5.924  0.00  0.00    -0.488 OA
BRANCH  30  31
ATOM     31  C   UNL     1      -0.599  -0.526   6.860  0.00  0.00    +0.121 A 
ATOM     32  C   UNL     1      -0.272  -0.715   8.195  0.00  0.00    +0.049 A 
ATOM     33  C   UNL     1      -1.270  -0.793   9.146  0.00  0.00    +0.049 A 
ATOM     34  C   UNL     1      -2.600  -0.684   8.767  0.00  0.00    +0.120 A 
ATOM     35  C   UNL     1      -2.927  -0.495   7.432  0.00  0.00    +0.049 A 
ATOM     36  C   UNL     1      -1.928  -0.412   6.481  0.00  0.00    +0.049 A 
BRANCH  34  37
ATOM     37  O   UNL     1      -3.583  -0.763   9.703  0.00  0.00    -0.495 OA
ATOM     38  C   UNL     1      -4.930  -0.642   9.241  0.00  0.00    +0.277 C 
ENDBRANCH  34  37
ENDBRANCH  30  31
ENDBRANCH  29  30
ENDBRANCH  27  29
ENDBRANCH  23  27
ENDBRANCH   1  24
TORSDOF 7
