REMARK  Name = ZINC40431667
REMARK  5 active torsions:
REMARK  status: ('A' for Active; 'I' for Inactive)
REMARK    1  A    between atoms: C_1  and  O_2
REMARK    2  A    between atoms: O_2  and  C_3
REMARK    3  A    between atoms: C_3  and  C_5
REMARK    4  A    between atoms: C_9  and  N_10
REMARK    5  A    between atoms: C_11  and  C_13
REMARK                            x       y       z     vdW  Elec       q    Type
REMARK                         _______ _______ _______ _____ _____    ______ ____
ROOT
ATOM      1  C   UNL     1      -1.248  -2.096   0.003  0.00  0.00    +0.091 A 
ATOM      2  C   UNL     1      -1.271  -2.859   1.239  0.00  0.00    -0.021 A 
ATOM      3  C   UNL     1      -1.323  -4.197   1.062  0.00  0.00    -0.004 A 
ATOM      4  S   UNL     1      -1.342  -4.417  -0.693  0.00  0.00    -0.077 S 
ATOM      5  C   UNL     1      -1.288  -2.812  -1.185  0.00  0.00    +0.086 A 
ATOM      6  C   UNL     1      -1.357  -5.245   2.130  0.00  0.00    +0.043 C 
ATOM      7  C   UNL     1      -0.943  -4.594   3.458  0.00  0.00    +0.005 C 
ATOM      8  C   UNL     1      -1.728  -3.292   3.638  0.00  0.00    +0.005 C 
ATOM      9  C   UNL     1      -1.241  -2.246   2.631  0.00  0.00    +0.037 C 
ENDROOT
BRANCH   5  10
ATOM     10  N   UNL     1      -1.283  -2.317  -2.479  0.00  0.00    -0.281 N 
ATOM     11  C   UNL     1      -1.326  -3.165  -3.525  0.00  0.00    +0.204 C 
ATOM     12  O   UNL     1      -1.370  -4.362  -3.334  0.00  0.00    -0.277 OA
ATOM     13  H   UNL     1      -1.248  -1.359  -2.632  0.00  0.00    +0.155 HD
BRANCH  11  14
ATOM     14  C   UNL     1      -1.320  -2.626  -4.933  0.00  0.00    +0.016 C 
ATOM     15  C   UNL     1      -2.568  -1.749  -5.164  0.00  0.00    -0.009 C 
ATOM     16  C   UNL     1      -2.975  -2.096  -6.620  0.00  0.00    -0.020 C 
ATOM     17  C   UNL     1      -2.624  -3.603  -6.692  0.00  0.00    -0.082 C 
ATOM     18  N   UNL     1      -1.381  -3.741  -5.896  0.00  0.00    +0.387 N 
ATOM     19  H   UNL     1      -0.579  -3.705  -6.507  0.00  0.00    -0.085 HD
ATOM     20  H   UNL     1      -1.390  -4.619  -5.400  0.00  0.00    -0.085 HD
ENDBRANCH  11  14
ENDBRANCH   5  10
BRANCH   1  21
ATOM     21  C   UNL     1      -1.191  -0.633   0.010  0.00  0.00    +0.342 C 
ATOM     22  O   UNL     1      -2.220   0.016   0.023  0.00  0.00    -0.245 OA
BRANCH  21  24
ATOM     23  C   UNL     1      -0.017   1.425   0.010  0.00  0.00    +0.280 C 
ATOM     24  O   UNL     1       0.002  -0.004   0.002  0.00  0.00    -0.464 OA
ENDBRANCH  21  24
ENDBRANCH   1  21
TORSDOF 4
