REMARK  Name = ZINC39686861
REMARK  7 active torsions:
REMARK  status: ('A' for Active; 'I' for Inactive)
REMARK    1  A    between atoms: C_1  and  C_2
REMARK    2  A    between atoms: C_2  and  C_4
REMARK    3  A    between atoms: C_2  and  N_12
REMARK    4  A    between atoms: C_4  and  C_5
REMARK    5  A    between atoms: C_13  and  C_15
REMARK    6  A    between atoms: C_26  and  C_28
REMARK    7  A    between atoms: C_33  and  C_34
REMARK                            x       y       z     vdW  Elec       q    Type
REMARK                         _______ _______ _______ _____ _____    ______ ____
ROOT
ATOM      1  C   UNL     1      -3.252  -3.653  -1.464  0.00  0.00    +0.100 C 
ATOM      2  C   UNL     1      -2.332  -4.684  -0.773  0.00  0.00    +0.121 C 
ATOM      3  N   UNL     1      -2.659  -4.571   0.668  0.00  0.00    -0.296 N 
ATOM      4  C   UNL     1      -4.130  -4.390   0.700  0.00  0.00    +0.115 C 
ATOM      5  C   UNL     1      -4.432  -3.465  -0.496  0.00  0.00    -0.004 C 
ATOM      6  C   UNL     1      -5.738  -3.880  -1.168  0.00  0.00    -0.010 C 
ATOM      7  C   UNL     1      -6.903  -3.630  -0.207  0.00  0.00    -0.082 C 
ATOM      8  N   UNL     1      -6.946  -2.207   0.154  0.00  0.00    +0.379 N 
ATOM      9  C   UNL     1      -5.726  -1.839   0.882  0.00  0.00    -0.082 C 
ATOM     10  C   UNL     1      -4.510  -2.013  -0.033  0.00  0.00    -0.010 C 
ATOM     11  C   UNL     1      -1.810  -4.621   1.714  0.00  0.00    +0.247 C 
ATOM     12  O   UNL     1      -2.233  -4.495   2.847  0.00  0.00    -0.270 OA
ATOM     13  H   UNL     1      -7.016  -1.651  -0.685  0.00  0.00    -0.086 HD
ATOM     14  H   UNL     1      -7.750  -2.034   0.738  0.00  0.00    -0.086 HD
ENDROOT
BRANCH  11  15
ATOM     15  C   UNL     1      -0.365  -4.830   1.484  0.00  0.00    +0.049 A 
ATOM     16  C   UNL     1       0.395  -3.842   0.853  0.00  0.00    +0.013 A 
ATOM     17  C   UNL     1       1.743  -4.043   0.642  0.00  0.00    +0.001 A 
ATOM     18  C   UNL     1       2.343  -5.221   1.052  0.00  0.00    +0.001 A 
ATOM     19  C   UNL     1       1.596  -6.203   1.678  0.00  0.00    +0.013 A 
ATOM     20  C   UNL     1       0.248  -6.012   1.901  0.00  0.00    +0.067 A 
BRANCH  20  21
ATOM     21  C   UNL     1      -0.563  -7.081   2.587  0.00  0.00    +0.418 C 
ATOM     22  F   UNL     1       0.266  -8.162   2.907  0.00  0.00    -0.166 F 
ATOM     23  F   UNL     1      -1.124  -6.561   3.758  0.00  0.00    -0.166 F 
ATOM     24  F   UNL     1      -1.583  -7.513   1.733  0.00  0.00    -0.166 F 
ENDBRANCH  20  21
ENDBRANCH  11  15
BRANCH   1  26
ATOM     25  N   UNL     1      -2.912  -1.499  -2.632  0.00  0.00    -0.312 N 
ATOM     26  C   UNL     1      -2.523  -2.349  -1.661  0.00  0.00    +0.218 C 
ATOM     27  O   UNL     1      -1.586  -2.064  -0.946  0.00  0.00    -0.275 OA
ATOM     28  H   UNL     1      -3.611  -1.759  -3.253  0.00  0.00    +0.149 HD
BRANCH  25  30
ATOM     29  C   UNL     1      -2.997   0.812  -1.836  0.00  0.00    +0.028 C 
ATOM     30  C   UNL     1      -2.280  -0.183  -2.751  0.00  0.00    +0.074 C 
BRANCH  30  31
ATOM     31  C   UNL     1      -2.373   0.299  -4.200  0.00  0.00    +0.060 C 
BRANCH  31  32
ATOM     32  C   UNL     1      -2.484  -0.890  -5.118  0.00  0.00    -0.010 A 
ATOM     33  C   UNL     1      -1.348  -1.427  -5.695  0.00  0.00    +0.006 A 
ATOM     34  C   UNL     1      -1.449  -2.518  -6.537  0.00  0.00    +0.000 A 
ATOM     35  C   UNL     1      -2.687  -3.074  -6.805  0.00  0.00    +0.003 A 
ATOM     36  C   UNL     1      -3.824  -2.539  -6.229  0.00  0.00    +0.038 A 
ATOM     37  C   UNL     1      -3.723  -1.450  -5.381  0.00  0.00    +0.127 A 
ATOM     38  F   UNL     1      -4.833  -0.929  -4.814  0.00  0.00    -0.205 F 
ENDBRANCH  31  32
ENDBRANCH  30  31
ENDBRANCH  25  30
ENDBRANCH   1  26
TORSDOF 6
