REMARK  Name = ZINC40242034
REMARK  5 active torsions:
REMARK  status: ('A' for Active; 'I' for Inactive)
REMARK    1  A    between atoms: C_1  and  O_2
REMARK    2  A    between atoms: O_2  and  C_3
REMARK    3  A    between atoms: C_4  and  C_11
REMARK    4  A    between atoms: C_11  and  C_13
REMARK    5  A    between atoms: C_11  and  O_21
REMARK                            x       y       z     vdW  Elec       q    Type
REMARK                         _______ _______ _______ _____ _____    ______ ____
ROOT
ATOM      1  C   UNL     1      -1.782  -0.567  -2.083  0.00  0.00    +0.181 C 
ENDROOT
BRANCH   1   3
ATOM      2  C   UNL     1       0.236  -1.651  -1.063  0.00  0.00    +0.140 A 
ATOM      3  C   UNL     1      -0.295  -0.806  -2.027  0.00  0.00    +0.029 A 
ATOM      4  C   UNL     1       0.539  -0.183  -2.934  0.00  0.00    +0.030 A 
ATOM      5  C   UNL     1       1.905  -0.402  -2.884  0.00  0.00    +0.043 A 
ATOM      6  C   UNL     1       2.437  -1.244  -1.924  0.00  0.00    +0.039 A 
ATOM      7  C   UNL     1       1.606  -1.865  -1.010  0.00  0.00    +0.061 A 
ATOM      8 BR   UNL     1       2.335  -3.010   0.306  0.00  0.00    -0.046 Br
ATOM      9 CL   UNL     1       2.951   0.382  -4.026  0.00  0.00    -0.083 Cl
BRANCH   2  11
ATOM     10  C   UNL     1      -0.805  -1.594   1.074  0.00  0.00    +0.277 C 
ATOM     11  O   UNL     1      -0.584  -2.264  -0.169  0.00  0.00    -0.494 OA
ENDBRANCH   2  11
ENDBRANCH   1   3
BRANCH   1  12
ATOM     12  C   UNL     1      -2.049   0.829  -2.584  0.00  0.00    +0.022 A 
ATOM     13  C   UNL     1      -2.309   1.044  -3.924  0.00  0.00    +0.024 A 
ATOM     14  C   UNL     1      -2.554   2.325  -4.384  0.00  0.00    +0.018 A 
ATOM     15  C   UNL     1      -2.538   3.392  -3.503  0.00  0.00    +0.018 A 
ATOM     16  C   UNL     1      -2.277   3.178  -2.163  0.00  0.00    +0.040 A 
ATOM     17  C   UNL     1      -2.038   1.895  -1.701  0.00  0.00    +0.129 A 
ATOM     18  F   UNL     1      -1.789   1.684  -0.390  0.00  0.00    -0.205 F 
ATOM     19 BR   UNL     1      -2.909   2.619  -6.218  0.00  0.00    -0.050 Br
ENDBRANCH   1  12
BRANCH   1  20
ATOM     20  O   UNL     1      -2.383  -1.514  -2.970  0.00  0.00    -0.382 OA
ATOM     21  H   UNL     1      -2.052  -1.469  -3.877  0.00  0.00    +0.211 HD
ENDBRANCH   1  20
TORSDOF 4
