REMARK  Name = ZINC07055647
REMARK  5 active torsions:
REMARK  status: ('A' for Active; 'I' for Inactive)
REMARK    1  A    between atoms: C_1  and  O_2
REMARK    2  A    between atoms: O_2  and  C_3
REMARK    3  A    between atoms: C_6  and  S_9
REMARK    4  A    between atoms: S_9  and  N_12
REMARK    5  A    between atoms: N_12  and  C_13
REMARK                            x       y       z     vdW  Elec       q    Type
REMARK                         _______ _______ _______ _____ _____    ______ ____
ROOT
ATOM      1  N   UNL     1       5.369   3.551   4.678  0.00  0.00    -0.216 N 
ATOM      2  H   UNL     1       5.718   3.078   5.449  0.00  0.00    +0.174 HD
ENDROOT
BRANCH   1   3
ATOM      3  C   UNL     1       4.841   2.836   3.597  0.00  0.00    +0.052 A 
ATOM      4  C   UNL     1       5.566   2.726   2.418  0.00  0.00    +0.028 A 
ATOM      5  C   UNL     1       5.046   2.020   1.349  0.00  0.00    +0.051 A 
ATOM      6  C   UNL     1       3.803   1.422   1.451  0.00  0.00    +0.167 A 
ATOM      7  C   UNL     1       3.073   1.530   2.635  0.00  0.00    +0.169 A 
ATOM      8  C   UNL     1       3.593   2.237   3.705  0.00  0.00    +0.074 A 
ATOM      9  O   UNL     1       1.890   0.855   2.476  0.00  0.00    -0.447 OA
ATOM     10  C   UNL     1       1.732   0.778   1.057  0.00  0.00    +0.254 C 
ATOM     11  O   UNL     1       3.069   0.682   0.558  0.00  0.00    -0.448 OA
ATOM     12  C   UNL     1       0.994   2.000   0.494  0.00  0.00    +0.093 C 
ATOM     13  C   UNL     1      -0.500   1.641   0.652  0.00  0.00    +0.008 C 
ATOM     14  C   UNL     1      -0.579   0.106   0.742  0.00  0.00    +0.008 C 
ATOM     15  C   UNL     1       0.871  -0.419   0.637  0.00  0.00    +0.093 C 
ENDBRANCH   1   3
BRANCH   1  16
ATOM     16  S   UNL     1       5.397   5.207   4.640  0.00  0.00    +0.072 S 
ATOM     17  O   UNL     1       5.932   5.632   5.886  0.00  0.00    -0.150 OA
ATOM     18  O   UNL     1       5.978   5.575   3.397  0.00  0.00    -0.150 OA
BRANCH  16  22
ATOM     19  C   UNL     1       1.096   6.617   4.529  0.00  0.00    +0.120 A 
ATOM     20  C   UNL     1       1.752   6.483   5.744  0.00  0.00    +0.047 A 
ATOM     21  C   UNL     1       3.064   6.053   5.775  0.00  0.00    +0.032 A 
ATOM     22  C   UNL     1       3.724   5.756   4.597  0.00  0.00    +0.109 A 
ATOM     23  C   UNL     1       3.074   5.894   3.384  0.00  0.00    +0.032 A 
ATOM     24  C   UNL     1       1.760   6.319   3.348  0.00  0.00    +0.047 A 
BRANCH  19  26
ATOM     25  C   UNL     1      -0.807   7.156   3.209  0.00  0.00    +0.277 C 
ATOM     26  O   UNL     1      -0.195   7.040   4.495  0.00  0.00    -0.495 OA
ENDBRANCH  19  26
ENDBRANCH  16  22
ENDBRANCH   1  16
TORSDOF 4
