REMARK  Name = ZINC32105561
REMARK  6 active torsions:
REMARK  status: ('A' for Active; 'I' for Inactive)
REMARK    1  A    between atoms: C_1  and  C_2
REMARK    2  A    between atoms: C_2  and  C_3
REMARK    3  A    between atoms: C_2  and  C_4
REMARK    4  A    between atoms: C_12  and  O_29
REMARK    5  A    between atoms: N_18  and  C_19
REMARK    6  A    between atoms: C_22  and  C_25
REMARK                            x       y       z     vdW  Elec       q    Type
REMARK                         _______ _______ _______ _____ _____    ______ ____
ROOT
ATOM      1  C   UNL     1      -1.412  -0.526   0.013  0.00  0.00    -0.044 A 
ATOM      2  C   UNL     1      -2.245  -0.196   1.062  0.00  0.00    +0.006 A 
ATOM      3  C   UNL     1      -3.555  -0.644   1.127  0.00  0.00    +0.024 A 
ATOM      4  C   UNL     1      -4.007  -1.452   0.082  0.00  0.00    +0.038 A 
ATOM      5  C   UNL     1      -3.150  -1.779  -0.977  0.00  0.00    -0.006 A 
ATOM      6  C   UNL     1      -1.851  -1.325  -1.038  0.00  0.00    +0.010 A 
ATOM      7  C   UNL     1      -3.945  -2.642  -1.903  0.00  0.00    +0.112 C 
ATOM      8  C   UNL     1      -4.072  -2.005  -3.286  0.00  0.00    +0.121 C 
ATOM      9  C   UNL     1      -2.855  -2.268  -4.127  0.00  0.00    +0.191 C 
ATOM     10  N   UNL     1      -2.140  -3.349  -4.037  0.00  0.00    -0.197 NA
ATOM     11  C   UNL     1      -2.461  -4.291  -3.105  0.00  0.00    +0.164 A 
ATOM     12  C   UNL     1      -3.325  -4.003  -2.054  0.00  0.00    +0.036 A 
ATOM     13  C   UNL     1      -3.450  -5.145  -1.284  0.00  0.00    +0.142 A 
ATOM     14  N   UNL     1      -2.702  -6.087  -1.812  0.00  0.00    -0.173 NA
ATOM     15  N   UNL     1      -2.062  -5.574  -2.952  0.00  0.00    -0.214 N 
ATOM     16  C   UNL     1      -5.304  -2.750  -1.249  0.00  0.00    +0.233 C 
ATOM     17  O   UNL     1      -6.260  -3.366  -1.669  0.00  0.00    -0.274 OA
ATOM     18  N   UNL     1      -5.249  -2.031  -0.108  0.00  0.00    -0.284 N 
ATOM     19  H   UNL     1      -5.993  -1.931   0.507  0.00  0.00    +0.155 HD
ENDROOT
BRANCH  15  20
ATOM     20  C   UNL     1      -1.171  -6.267  -3.782  0.00  0.00    +0.068 A 
ATOM     21  C   UNL     1      -1.155  -6.016  -5.147  0.00  0.00    +0.028 A 
ATOM     22  C   UNL     1      -0.275  -6.701  -5.963  0.00  0.00    +0.014 A 
ATOM     23  C   UNL     1       0.588  -7.635  -5.421  0.00  0.00    +0.055 A 
ATOM     24  C   UNL     1       0.574  -7.887  -4.061  0.00  0.00    +0.014 A 
ATOM     25  C   UNL     1      -0.299  -7.201  -3.240  0.00  0.00    +0.028 A 
BRANCH  23  26
ATOM     26  C   UNL     1       1.546  -8.381  -6.314  0.00  0.00    +0.417 C 
ATOM     27  F   UNL     1       2.747  -7.670  -6.407  0.00  0.00    -0.166 F 
ATOM     28  F   UNL     1       1.795  -9.648  -5.775  0.00  0.00    -0.166 F 
ATOM     29  F   UNL     1       0.986  -8.518  -7.588  0.00  0.00    -0.166 F 
ENDBRANCH  23  26
ENDBRANCH  15  20
BRANCH   1  31
ATOM     30  C   UNL     1      -0.019   1.526   0.010  0.00  0.00    +0.012 C 
ATOM     31  C   UNL     1       0.002  -0.004   0.002  0.00  0.00    +0.013 C 
ATOM     32  C   UNL     1       0.742  -0.511   1.242  0.00  0.00    +0.012 C 
ENDBRANCH   1  31
BRANCH   9  33
ATOM     33  O   UNL     1      -2.485  -1.331  -5.024  0.00  0.00    -0.495 OA
ATOM     34  H   UNL     1      -1.695  -1.562  -5.531  0.00  0.00    +0.293 HD
ENDBRANCH   9  33
TORSDOF 4
