REMARK  Name = ZINC43761875
REMARK  3 active torsions:
REMARK  status: ('A' for Active; 'I' for Inactive)
REMARK    1  A    between atoms: C_6  and  C_15
REMARK    2  A    between atoms: C_6  and  O_30
REMARK    3  A    between atoms: C_15  and  O_29
REMARK                            x       y       z     vdW  Elec       q    Type
REMARK                         _______ _______ _______ _____ _____    ______ ____
ROOT
ATOM      1  C   UNL     1       1.565  -4.984   1.304  0.00  0.00    +0.004 C 
ATOM      2  C   UNL     1       0.496  -3.979   0.700  0.00  0.00    +0.004 C 
ATOM      3  C   UNL     1       1.176  -3.398  -0.554  0.00  0.00    -0.004 C 
ATOM      4  C   UNL     1       1.149  -1.863  -0.689  0.00  0.00    +0.041 C 
ATOM      5  C   UNL     1       2.657  -1.462  -0.977  0.00  0.00    +0.098 C 
ATOM      6  C   UNL     1       3.345  -2.329   0.000  0.00  0.00    +0.027 C 
ATOM      7  C   UNL     1       2.643  -3.708  -0.323  0.00  0.00    +0.001 C 
ATOM      8  C   UNL     1       2.792  -4.179   1.162  0.00  0.00    -0.007 C 
ATOM      9  C   UNL     1       4.276  -4.197   1.238  0.00  0.00    +0.004 C 
ATOM     10  C   UNL     1       4.670  -2.875   0.402  0.00  0.00    +0.007 C 
ENDROOT
BRANCH   5  11
ATOM     11  C   UNL     1       3.062  -1.811  -2.411  0.00  0.00    +0.098 C 
ATOM     12  C   UNL     1       2.275  -0.929  -3.403  0.00  0.00    +0.041 C 
ATOM     13  C   UNL     1       3.219   0.230  -3.796  0.00  0.00    -0.004 C 
ATOM     14  C   UNL     1       3.048   0.549  -5.309  0.00  0.00    +0.004 C 
ATOM     15  C   UNL     1       3.912  -0.505  -6.075  0.00  0.00    +0.004 C 
ATOM     16  C   UNL     1       4.309  -1.445  -5.000  0.00  0.00    -0.007 C 
ATOM     17  C   UNL     1       4.585  -0.491  -3.746  0.00  0.00    +0.001 C 
ATOM     18  C   UNL     1       4.573  -1.536  -2.610  0.00  0.00    +0.027 C 
ATOM     19  C   UNL     1       5.226  -2.795  -3.260  0.00  0.00    +0.007 C 
ATOM     20  C   UNL     1       5.392  -2.451  -4.838  0.00  0.00    +0.004 C 
BRANCH  11  21
ATOM     21  O   UNL     1       2.785  -3.189  -2.668  0.00  0.00    -0.385 OA
ATOM     22  H   UNL     1       2.901  -3.448  -3.592  0.00  0.00    +0.210 HD
ENDBRANCH  11  21
ENDBRANCH   5  11
BRANCH   5  23
ATOM     23  O   UNL     1       2.889  -0.080  -0.698  0.00  0.00    -0.385 OA
ATOM     24  H   UNL     1       2.704   0.173   0.217  0.00  0.00    +0.210 HD
ENDBRANCH   5  23
TORSDOF 3
