REMARK  Name = ZINC06778348
REMARK  15 active torsions:
REMARK  status: ('A' for Active; 'I' for Inactive)
REMARK    1  A    between atoms: C_1  and  C_2
REMARK    2  A    between atoms: C_2  and  C_3
REMARK    3  A    between atoms: C_3  and  C_4
REMARK    4  A    between atoms: C_4  and  N_74
REMARK    5  A    between atoms: C_5  and  C_6
REMARK    6  A    between atoms: C_5  and  N_74
REMARK    7  A    between atoms: C_6  and  C_7
REMARK    8  A    between atoms: C_7  and  C_8
REMARK    9  A    between atoms: C_9  and  C_10
REMARK   10  A    between atoms: C_9  and  N_74
REMARK   11  A    between atoms: C_10  and  C_11
REMARK   12  A    between atoms: C_11  and  N_76
REMARK   13  A    between atoms: C_12  and  C_13
REMARK   14  A    between atoms: C_12  and  N_76
REMARK   15  A    between atoms: C_25  and  C_32
REMARK                            x       y       z     vdW  Elec       q    Type
REMARK                         _______ _______ _______ _____ _____    ______ ____
ROOT
ATOM      1  C   UNL     1      -1.297   6.184   5.926  0.00  0.00    -0.068 C 
ENDROOT
BRANCH   1   2
ATOM      2  C   UNL     1      -1.064   7.690   5.792  0.00  0.00    +0.087 C 
ATOM      3  C   UNL     1      -1.704   8.451   6.992  0.00  0.00    +0.042 C 
ATOM      4  C   UNL     1      -2.141   9.812   6.456  0.00  0.00    +0.016 C 
ATOM      5  C   UNL     1      -2.362  10.813   7.589  0.00  0.00    +0.021 C 
ATOM      6  C   UNL     1      -2.739  12.149   6.978  0.00  0.00    -0.073 C 
ATOM      7  C   UNL     1      -3.915  12.685   7.194  0.00  0.00    +0.008 C 
ATOM      8  C   UNL     1      -1.712  12.844   6.110  0.00  0.00    +0.030 C 
ATOM      9  C   UNL     1      -0.391  12.933   6.880  0.00  0.00    +0.005 C 
ATOM     10  C   UNL     1       0.010  11.531   7.351  0.00  0.00    +0.007 C 
ATOM     11  C   UNL     1      -1.034  11.007   8.334  0.00  0.00    -0.022 C 
ATOM     12  C   UNL     1      -0.595   9.678   8.934  0.00  0.00    +0.052 C 
ATOM     13  C   UNL     1      -0.455   8.599   7.891  0.00  0.00    +0.181 C 
ATOM     14  O   UNL     1       0.621   8.840   6.941  0.00  0.00    -0.461 OA
ATOM     15  C   UNL     1       0.416   8.009   5.893  0.00  0.00    +0.309 C 
ATOM     16  O   UNL     1       1.275   7.589   5.155  0.00  0.00    -0.251 OA
ATOM     17  C   UNL     1      -1.229  12.028   9.456  0.00  0.00    +0.012 C 
ENDBRANCH   1   2
BRANCH   1  18
ATOM     18  N   UNL     1      -0.747   5.502   4.740  0.00  0.00    +0.380 N 
ATOM     19  H   UNL     1      -1.217   5.854   3.898  0.00  0.00    -0.086 HD
ATOM     20  H   UNL     1       0.260   5.694   4.675  0.00  0.00    -0.086 HD
BRANCH  18  21
ATOM     21  C   UNL     1      -0.958   4.045   4.843  0.00  0.00    -0.084 C 
BRANCH  21  22
ATOM     22  C   UNL     1      -0.378   3.365   3.601  0.00  0.00    -0.038 C 
BRANCH  22  23
ATOM     23  C   UNL     1      -0.593   1.854   3.699  0.00  0.00    -0.081 C 
BRANCH  23  24
ATOM     24  N   UNL     1      -0.009   1.210   2.504  0.00  0.00    +0.380 N 
ATOM     25  H   UNL     1       0.959   1.533   2.391  0.00  0.00    -0.082 HD
BRANCH  24  26
ATOM     26  C   UNL     1      -0.783   1.583   1.301  0.00  0.00    -0.079 C 
BRANCH  26  27
ATOM     27  C   UNL     1      -2.247   1.167   1.454  0.00  0.00    -0.019 C 
BRANCH  27  29
ATOM     28  C   UNL     1      -4.491   1.155   0.355  0.00  0.00    +0.004 C 
ATOM     29  C   UNL     1      -3.027   1.571   0.202  0.00  0.00    -0.005 C 
ENDBRANCH  27  29
ENDBRANCH  26  27
ENDBRANCH  24  26
BRANCH  24  30
ATOM     30  C   UNL     1      -0.010  -0.258   2.670  0.00  0.00    -0.079 C 
BRANCH  30  31
ATOM     31  C   UNL     1       0.950  -0.868   1.646  0.00  0.00    -0.019 C 
BRANCH  31  32
ATOM     32  C   UNL     1       1.075  -2.372   1.897  0.00  0.00    -0.005 C 
ATOM     33  C   UNL     1       2.034  -2.982   0.873  0.00  0.00    +0.004 C 
ENDBRANCH  31  32
ENDBRANCH  30  31
ENDBRANCH  24  30
ENDBRANCH  23  24
ENDBRANCH  22  23
ENDBRANCH  21  22
ENDBRANCH  18  21
ENDBRANCH   1  18
TORSDOF 12
