REMARK  Name = ZINC23296888
REMARK  6 active torsions:
REMARK  status: ('A' for Active; 'I' for Inactive)
REMARK    1  A    between atoms: C_1  and  C_2
REMARK    2  A    between atoms: C_2  and  C_3
REMARK    3  A    between atoms: C_3  and  C_24
REMARK    4  A    between atoms: N_6  and  C_10
REMARK    5  A    between atoms: C_10  and  C_11
REMARK    6  A    between atoms: N_16  and  C_17
REMARK                            x       y       z     vdW  Elec       q    Type
REMARK                         _______ _______ _______ _____ _____    ______ ____
ROOT
ATOM      1  C   UNL     1       2.485   1.043  -0.018  0.00  0.00    +0.138 C 
ATOM      2  C   UNL     1       2.925   0.771  -1.443  0.00  0.00    +0.251 C 
ATOM      3  O   UNL     1       3.168   1.590  -2.303  0.00  0.00    -0.272 OA
ATOM      4  N   UNL     1       2.991  -0.570  -1.554  0.00  0.00    -0.215 N 
ATOM      5  C   UNL     1       2.657  -1.177  -0.409  0.00  0.00    +0.310 C 
ATOM      6  O   UNL     1       2.642  -2.384  -0.264  0.00  0.00    -0.252 OA
ATOM      7  N   UNL     1       2.341  -0.303   0.563  0.00  0.00    -0.281 N 
ATOM      8  H   UNL     1       2.025  -0.419   1.610  0.00  0.00    +0.152 HD
ENDROOT
BRANCH   1   9
ATOM      9  C   UNL     1       1.167   1.773  -0.001  0.00  0.00    -0.015 A 
ATOM     10  C   UNL     1      -0.018   1.060   0.014  0.00  0.00    +0.007 A 
ATOM     11  C   UNL     1      -1.227   1.728   0.024  0.00  0.00    +0.020 A 
ATOM     12  C   UNL     1      -1.253   3.111   0.031  0.00  0.00    +0.041 A 
ATOM     13  C   UNL     1      -0.068   3.825   0.017  0.00  0.00    +0.020 A 
ATOM     14  C   UNL     1       1.141   3.155   0.001  0.00  0.00    +0.007 A 
ATOM     15 CL   UNL     1      -2.772   3.951   0.050  0.00  0.00    -0.084 Cl
ENDBRANCH   1   9
BRANCH   1  17
ATOM     16  C   UNL     1       4.878   1.083   0.698  0.00  0.00    +0.007 C 
ATOM     17  C   UNL     1       3.552   1.845   0.731  0.00  0.00    +0.037 C 
ENDBRANCH   1  17
BRANCH   4  18
ATOM     18  C   UNL     1       3.380  -1.277  -2.777  0.00  0.00    +0.214 C 
BRANCH  18  19
ATOM     19  C   UNL     1       4.872  -1.486  -2.784  0.00  0.00    +0.238 C 
ATOM     20  O   UNL     1       5.545  -1.085  -1.859  0.00  0.00    -0.274 OA
ATOM     21  N   UNL     1       5.459  -2.120  -3.819  0.00  0.00    -0.239 N 
ATOM     22  C   UNL     1       6.793  -2.307  -3.825  0.00  0.00    +0.310 C 
ATOM     23  O   UNL     1       7.468  -1.905  -2.897  0.00  0.00    -0.252 OA
ATOM     24  N   UNL     1       7.380  -2.940  -4.860  0.00  0.00    -0.269 N 
ATOM     25  H   UNL     1       4.848  -2.483  -4.659  0.00  0.00    +0.159 HD
ATOM     26  H   UNL     1       6.763  -3.371  -5.662  0.00  0.00    +0.156 HD
BRANCH  24  27
ATOM     27  C   UNL     1       8.774  -3.050  -4.913  0.00  0.00    +0.035 A 
ATOM     28  C   UNL     1       9.429  -3.002  -6.137  0.00  0.00    +0.024 A 
ATOM     29  C   UNL     1      10.806  -3.105  -6.187  0.00  0.00    +0.017 A 
ATOM     30  C   UNL     1      11.531  -3.267  -5.019  0.00  0.00    +0.018 A 
ATOM     31  C   UNL     1      10.881  -3.321  -3.800  0.00  0.00    +0.017 A 
ATOM     32  C   UNL     1       9.505  -3.212  -3.744  0.00  0.00    +0.024 A 
ATOM     33 BR   UNL     1      13.415  -3.416  -5.092  0.00  0.00    -0.050 Br
ENDBRANCH  24  27
ENDBRANCH  18  19
ENDBRANCH   4  18
TORSDOF 5
