REMARK  Name = ZINC39534191
REMARK  11 active torsions:
REMARK  status: ('A' for Active; 'I' for Inactive)
REMARK    1  A    between atoms: C_1  and  S_2
REMARK    2  A    between atoms: S_2  and  N_3
REMARK    3  A    between atoms: N_3  and  C_4
REMARK    4  A    between atoms: C_4  and  C_5
REMARK    5  A    between atoms: C_5  and  C_7
REMARK    6  A    between atoms: C_5  and  N_20
REMARK    7  A    between atoms: C_10  and  C_13
REMARK    8  A    between atoms: C_18  and  O_19
REMARK    9  A    between atoms: C_24  and  S_27
REMARK   10  A    between atoms: S_27  and  O_30
REMARK   11  A    between atoms: O_30  and  C_31
REMARK                            x       y       z     vdW  Elec       q    Type
REMARK                         _______ _______ _______ _____ _____    ______ ____
ROOT
ATOM      1  C   UNL     1       1.348  -2.190  -3.099  0.00  0.00    +0.101 C 
ENDROOT
BRANCH   1   2
ATOM      2  N   UNL     1       0.013  -1.758  -3.533  0.00  0.00    -0.296 NA
ATOM      3  C   UNL     1       0.079  -0.469  -4.237  0.00  0.00    +0.066 C 
ATOM      4  C   UNL     1      -1.320  -0.084  -4.723  0.00  0.00    -0.064 C 
ATOM      5  N   UNL     1      -2.228   0.013  -3.572  0.00  0.00    +0.398 N 
ATOM      6  C   UNL     1      -2.304  -1.287  -2.894  0.00  0.00    +0.130 C 
ATOM      7  C   UNL     1      -0.913  -1.683  -2.393  0.00  0.00    +0.095 C 
ATOM      8  H   UNL     1      -1.882   0.709  -2.929  0.00  0.00    -0.083 HD
ATOM      9  H   UNL     1      -3.148   0.280  -3.892  0.00  0.00    -0.083 HD
BRANCH   6  10
ATOM     10  S   UNL     1      -3.442  -1.170  -1.487  0.00  0.00    +0.109 S 
ATOM     11  O   UNL     1      -3.665  -2.458  -0.929  0.00  0.00    -0.138 OA
ATOM     12  O   UNL     1      -3.085  -0.073  -0.658  0.00  0.00    -0.138 OA
BRANCH  10  13
ATOM     13  O   UNL     1      -4.779  -0.776  -2.098  0.00  0.00    -0.347 OA
BRANCH  13  14
ATOM     14  C   UNL     1      -5.413  -1.790  -2.744  0.00  0.00    +0.156 A 
ATOM     15  C   UNL     1      -5.177  -2.009  -4.093  0.00  0.00    +0.048 A 
ATOM     16  C   UNL     1      -5.822  -3.041  -4.747  0.00  0.00    +0.004 A 
ATOM     17  C   UNL     1      -6.702  -3.855  -4.058  0.00  0.00    +0.000 A 
ATOM     18  C   UNL     1      -6.939  -3.638  -2.713  0.00  0.00    +0.004 A 
ATOM     19  C   UNL     1      -6.292  -2.611  -2.053  0.00  0.00    +0.048 A 
ENDBRANCH  13  14
ENDBRANCH  10  13
ENDBRANCH   6  10
ENDBRANCH   1   2
BRANCH   1  20
ATOM     20  C   UNL     1       1.352  -3.684  -2.900  0.00  0.00    -0.029 A 
ATOM     21  C   UNL     1       0.157  -4.382  -2.895  0.00  0.00    +0.006 A 
ATOM     22  C   UNL     1       0.155  -5.750  -2.713  0.00  0.00    +0.009 A 
ATOM     23  C   UNL     1       1.359  -6.428  -2.534  0.00  0.00    -0.014 A 
ATOM     24  C   UNL     1       2.559  -5.721  -2.540  0.00  0.00    +0.009 A 
ATOM     25  C   UNL     1       2.550  -4.353  -2.729  0.00  0.00    +0.006 A 
BRANCH  23  26
ATOM     26  C   UNL     1       1.363  -7.899  -2.337  0.00  0.00    +0.024 A 
ATOM     27  C   UNL     1       0.521  -8.480  -1.391  0.00  0.00    +0.012 A 
ATOM     28  C   UNL     1       0.528  -9.848  -1.212  0.00  0.00    +0.001 A 
ATOM     29  C   UNL     1       1.369 -10.646  -1.968  0.00  0.00    +0.004 A 
ATOM     30  C   UNL     1       2.208 -10.080  -2.909  0.00  0.00    +0.046 A 
ATOM     31  C   UNL     1       2.207  -8.707  -3.104  0.00  0.00    +0.125 A 
BRANCH  31  32
ATOM     32  O   UNL     1       3.027  -8.150  -4.032  0.00  0.00    -0.506 OA
ATOM     33  H   UNL     1       3.898  -7.905  -3.692  0.00  0.00    +0.292 HD
ENDBRANCH  31  32
ENDBRANCH  23  26
ENDBRANCH   1  20
BRANCH   1  34
ATOM     34  C   UNL     1       1.705  -1.500  -1.782  0.00  0.00    +0.117 C 
BRANCH  34  35
ATOM     35  N   UNL     1       1.643  -0.043  -1.960  0.00  0.00    -0.262 NA
ATOM     36  H   UNL     1       2.407   0.284  -2.534  0.00  0.00    +0.135 HD
BRANCH  35  38
ATOM     37  C   UNL     1       1.547   2.544  -0.840  0.00  0.00    +0.102 C 
ATOM     38  S   UNL     1       1.624   0.785  -0.402  0.00  0.00    -0.084 S 
ENDBRANCH  35  38
ENDBRANCH  34  35
ENDBRANCH   1  34
TORSDOF 10
