REMARK  Name = ZINC63633166
REMARK  9 active torsions:
REMARK  status: ('A' for Active; 'I' for Inactive)
REMARK    1  A    between atoms: C_1  and  C_2
REMARK    2  A    between atoms: C_2  and  C_3
REMARK    3  A    between atoms: C_8  and  C_12
REMARK    4  A    between atoms: C_8  and  C_13
REMARK    5  A    between atoms: N_21  and  C_22
REMARK    6  A    between atoms: C_22  and  C_23
REMARK    7  A    between atoms: N_25  and  C_26
REMARK    8  A    between atoms: C_26  and  C_27
REMARK    9  A    between atoms: C_27  and  C_28
REMARK                            x       y       z     vdW  Elec       q    Type
REMARK                         _______ _______ _______ _____ _____    ______ ____
ROOT
ATOM      1  C   UNL     1      -1.431  -0.541   0.139  0.00  0.00    +0.109 C 
ATOM      2  C   UNL     1      -1.367  -2.022   0.428  0.00  0.00    +0.032 C 
ATOM      3  C   UNL     1      -1.719  -3.006  -0.417  0.00  0.00    +0.017 C 
ATOM      4  C   UNL     1      -1.611  -4.461   0.006  0.00  0.00    +0.058 C 
ATOM      5  C   UNL     1      -0.449  -4.638   0.981  0.00  0.00    -0.023 C 
ATOM      6  C   UNL     1      -0.719  -3.744   2.197  0.00  0.00    +0.086 C 
ATOM      7  C   UNL     1      -0.884  -2.332   1.722  0.00  0.00    +0.163 C 
ATOM      8  O   UNL     1      -0.592  -1.422   2.473  0.00  0.00    -0.292 OA
ATOM      9  C   UNL     1       0.860  -4.218   0.309  0.00  0.00    +0.011 C 
ATOM     10  C   UNL     1      -0.360  -6.101   1.423  0.00  0.00    +0.011 C 
ATOM     11  N   UNL     1      -2.198  -2.812  -1.672  0.00  0.00    -0.316 N 
ATOM     12  C   UNL     1      -1.650  -1.942  -2.607  0.00  0.00    +0.052 A 
ATOM     13  C   UNL     1      -1.082  -2.386  -3.789  0.00  0.00    +0.025 A 
ATOM     14  C   UNL     1      -0.598  -1.461  -4.698  0.00  0.00    +0.002 A 
ATOM     15  C   UNL     1      -0.683  -0.107  -4.429  0.00  0.00    +0.002 A 
ATOM     16  C   UNL     1      -1.235   0.337  -3.240  0.00  0.00    +0.025 A 
ATOM     17  C   UNL     1      -1.700  -0.587  -2.319  0.00  0.00    +0.052 A 
ATOM     18  N   UNL     1      -2.158  -0.197  -1.064  0.00  0.00    -0.312 N 
ATOM     19  H   UNL     1      -2.981  -3.320  -1.936  0.00  0.00    +0.152 HD
ENDROOT
BRANCH   1  21
ATOM     20  C   UNL     1      -0.026   1.518  -0.025  0.00  0.00    +0.006 C 
ATOM     21  C   UNL     1      -0.002  -0.011   0.010  0.00  0.00    +0.024 C 
ENDBRANCH   1  21
BRANCH  18  22
ATOM     22  C   UNL     1      -3.396   0.580  -0.962  0.00  0.00    +0.201 C 
BRANCH  22  23
ATOM     23  C   UNL     1      -4.550  -0.348  -0.688  0.00  0.00    +0.230 C 
ATOM     24  O   UNL     1      -4.374  -1.548  -0.679  0.00  0.00    -0.274 OA
ATOM     25  N   UNL     1      -5.779   0.154  -0.455  0.00  0.00    -0.314 N 
ATOM     26  H   UNL     1      -5.920   1.114  -0.462  0.00  0.00    +0.149 HD
BRANCH  25  27
ATOM     27  C   UNL     1      -6.902  -0.749  -0.189  0.00  0.00    +0.108 C 
BRANCH  27  28
ATOM     28  C   UNL     1      -8.172   0.071   0.042  0.00  0.00    +0.052 C 
BRANCH  28  29
ATOM     29  C   UNL     1      -9.327  -0.857   0.315  0.00  0.00    -0.040 C 
ATOM     30  C   UNL     1      -9.794  -1.240   1.525  0.00  0.00    -0.001 A 
ATOM     31  C   UNL     1      -9.382  -0.920   2.897  0.00  0.00    +0.010 A 
ATOM     32  C   UNL     1     -10.058  -1.470   3.931  0.00  0.00    +0.001 A 
ATOM     33  C   UNL     1     -11.140  -2.337   3.725  0.00  0.00    +0.002 A 
ATOM     34  C   UNL     1     -11.577  -2.679   2.495  0.00  0.00    +0.026 A 
ATOM     35  C   UNL     1     -10.940  -2.158   1.335  0.00  0.00    +0.043 A 
ATOM     36  N   UNL     1     -11.172  -2.336   0.057  0.00  0.00    -0.380 N 
ATOM     37  C   UNL     1     -10.203  -1.545  -0.709  0.00  0.00    +0.144 C 
ATOM     38  H   UNL     1     -11.871  -2.894  -0.319  0.00  0.00    +0.160 HD
ENDBRANCH  28  29
ENDBRANCH  27  28
ENDBRANCH  25  27
ENDBRANCH  22  23
ENDBRANCH  18  22
TORSDOF 6
