REMARK  Name = ZINC39677285
REMARK  8 active torsions:
REMARK  status: ('A' for Active; 'I' for Inactive)
REMARK    1  A    between atoms: C_1  and  C_2
REMARK    2  A    between atoms: C_2  and  N_3
REMARK    3  A    between atoms: C_4  and  C_10
REMARK    4  A    between atoms: C_6  and  C_8
REMARK    5  A    between atoms: C_14  and  C_23
REMARK    6  A    between atoms: N_25  and  C_26
REMARK    7  A    between atoms: C_26  and  C_27
REMARK    8  A    between atoms: C_28  and  C_32
REMARK                            x       y       z     vdW  Elec       q    Type
REMARK                         _______ _______ _______ _____ _____    ______ ____
ROOT
ATOM      1  C   UNL     1      -1.612  -0.641  -2.623  0.00  0.00    +0.266 C 
ATOM      2  O   UNL     1      -2.113  -0.982  -3.678  0.00  0.00    -0.268 OA
ATOM      3  N   UNL     1      -2.393  -0.190  -1.622  0.00  0.00    -0.295 N 
ATOM      4  C   UNL     1      -1.981   0.195  -0.251  0.00  0.00    +0.121 C 
ATOM      5  C   UNL     1      -2.830   1.444   0.076  0.00  0.00    +0.100 C 
ATOM      6  C   UNL     1      -4.061   1.333  -0.839  0.00  0.00    -0.004 C 
ATOM      7  C   UNL     1      -3.858   0.042  -1.645  0.00  0.00    +0.115 C 
ATOM      8  C   UNL     1      -4.129   2.530  -1.782  0.00  0.00    -0.010 C 
ATOM      9  C   UNL     1      -5.391   2.426  -2.642  0.00  0.00    -0.082 C 
ATOM     10  N   UNL     1      -6.575   2.393  -1.774  0.00  0.00    +0.379 N 
ATOM     11  C   UNL     1      -6.548   1.189  -0.936  0.00  0.00    -0.082 C 
ATOM     12  C   UNL     1      -5.334   1.240  -0.004  0.00  0.00    -0.010 C 
ATOM     13  H   UNL     1      -6.581   3.212  -1.185  0.00  0.00    -0.086 HD
ATOM     14  H   UNL     1      -7.408   2.386  -2.344  0.00  0.00    -0.086 HD
ENDROOT
BRANCH   1  16
ATOM     15  N   UNL     1       0.551  -1.778  -1.935  0.00  0.00    -0.258 N 
ATOM     16  C   UNL     1      -0.155  -0.722  -2.440  0.00  0.00    +0.138 A 
ATOM     17  C   UNL     1       0.776   0.256  -2.745  0.00  0.00    +0.071 A 
ATOM     18  C   UNL     1       2.014  -0.290  -2.394  0.00  0.00    +0.075 A 
ATOM     19  N   UNL     1       1.803  -1.491  -1.919  0.00  0.00    -0.175 NA
ATOM     20  C   UNL     1       3.354   0.386  -2.534  0.00  0.00    +0.069 C 
ATOM     21 BR   UNL     1       0.445   1.967  -3.480  0.00  0.00    -0.046 Br
BRANCH  15  23
ATOM     22  C   UNL     1      -0.454  -2.906  -0.012  0.00  0.00    +0.029 C 
ATOM     23  C   UNL     1      -0.031  -3.041  -1.476  0.00  0.00    +0.141 C 
ENDBRANCH  15  23
ENDBRANCH   1  16
BRANCH   5  24
ATOM     24  C   UNL     1      -2.055   2.700  -0.233  0.00  0.00    +0.218 C 
ATOM     25  O   UNL     1      -1.283   2.721  -1.167  0.00  0.00    -0.275 OA
ATOM     26  N   UNL     1      -2.222   3.798   0.530  0.00  0.00    -0.310 N 
ATOM     27  H   UNL     1      -2.783   3.760   1.320  0.00  0.00    +0.149 HD
BRANCH  26  28
ATOM     28  C   UNL     1      -1.555   5.051   0.165  0.00  0.00    +0.147 C 
BRANCH  28  29
ATOM     29  C   UNL     1      -1.802   6.082   1.236  0.00  0.00    +0.010 A 
ATOM     30  C   UNL     1      -1.026   6.414   2.297  0.00  0.00    -0.039 A 
ATOM     31  C   UNL     1      -1.459   7.403   3.160  0.00  0.00    +0.011 A 
ATOM     32  C   UNL     1      -2.646   8.012   2.920  0.00  0.00    +0.046 A 
ATOM     33  S   UNL     1      -3.189   7.189   1.433  0.00  0.00    -0.100 S 
ATOM     34  C   UNL     1       0.287   5.714   2.532  0.00  0.00    +0.044 C 
ENDBRANCH  28  29
ENDBRANCH  26  28
ENDBRANCH   5  24
TORSDOF 5
