REMARK  Name = ZINC57352312
REMARK  4 active torsions:
REMARK  status: ('A' for Active; 'I' for Inactive)
REMARK    1  A    between atoms: C_1  and  C_2
REMARK    2  A    between atoms: C_5  and  S_9
REMARK    3  A    between atoms: C_6  and  C_8
REMARK    4  A    between atoms: S_9  and  C_10
REMARK                            x       y       z     vdW  Elec       q    Type
REMARK                         _______ _______ _______ _____ _____    ______ ____
ROOT
ATOM      1  C   UNL     1       1.755  -4.938   0.263  0.00  0.00    +0.146 A 
ATOM      2  C   UNL     1       2.208  -6.334   0.212  0.00  0.00    +0.194 A 
ATOM      3  N   UNL     1       1.597  -7.465  -0.019  0.00  0.00    -0.149 NA
ATOM      4  N   UNL     1       2.548  -8.493   0.063  0.00  0.00    -0.226 N 
ATOM      5  H   UNL     1       2.381  -9.440  -0.064  0.00  0.00    +0.194 HD
ATOM      6  C   UNL     1       3.738  -7.925   0.349  0.00  0.00    +0.349 A 
ATOM      7  O   UNL     1       4.797  -8.511   0.495  0.00  0.00    -0.245 OA
ATOM      8  N   UNL     1       3.548  -6.597   0.444  0.00  0.00    -0.247 N 
ATOM      9  C   UNL     1       4.394  -5.539   0.713  0.00  0.00    +0.117 A 
ATOM     10  C   UNL     1       3.925  -4.283   0.748  0.00  0.00    +0.130 A 
ATOM     11  N   UNL     1       2.636  -3.993   0.521  0.00  0.00    -0.243 NA
ENDROOT
BRANCH   1  12
ATOM     12  S   UNL     1       0.064  -4.533  -0.023  0.00  0.00    -0.066 S 
BRANCH  12  17
ATOM     13  C   UNL     1      -0.212   1.406   1.021  0.00  0.00    +0.044 C 
ATOM     14  C   UNL     1      -0.143  -0.077   0.760  0.00  0.00    -0.050 A 
ATOM     15  C   UNL     1      -0.154  -0.550  -0.540  0.00  0.00    +0.004 A 
ATOM     16  C   UNL     1      -0.091  -1.908  -0.782  0.00  0.00    +0.015 A 
ATOM     17  C   UNL     1      -0.016  -2.799   0.282  0.00  0.00    +0.017 A 
ATOM     18  C   UNL     1      -0.005  -2.320   1.586  0.00  0.00    -0.036 A 
ATOM     19  C   UNL     1      -0.064  -0.960   1.821  0.00  0.00    +0.007 A 
ATOM     20  C   UNL     1       0.075  -3.283   2.743  0.00  0.00    +0.045 C 
ENDBRANCH  12  17
ENDBRANCH   1  12
TORSDOF 2
