REMARK  Name = ZINC67202563
REMARK  8 active torsions:
REMARK  status: ('A' for Active; 'I' for Inactive)
REMARK    1  A    between atoms: C_1  and  C_2
REMARK    2  A    between atoms: C_3  and  C_14
REMARK    3  A    between atoms: C_4  and  C_13
REMARK    4  A    between atoms: C_14  and  C_15
REMARK    5  A    between atoms: N_17  and  C_18
REMARK    6  A    between atoms: C_18  and  C_19
REMARK    7  A    between atoms: N_24  and  C_25
REMARK    8  A    between atoms: C_25  and  C_26
REMARK                            x       y       z     vdW  Elec       q    Type
REMARK                         _______ _______ _______ _____ _____    ______ ____
ROOT
ATOM      1  C   UNL     1      -2.821   0.441   0.976  0.00  0.00    +0.217 C 
ATOM      2  O   UNL     1      -2.022   0.077   1.812  0.00  0.00    -0.275 OA
ATOM      3  N   UNL     1      -3.962   1.051   1.355  0.00  0.00    -0.317 N 
ATOM      4  H   UNL     1      -4.602   1.342   0.686  0.00  0.00    +0.149 HD
ENDROOT
BRANCH   1   5
ATOM      5  C   UNL     1      -2.540   0.211  -0.486  0.00  0.00    +0.134 C 
BRANCH   5   8
ATOM      6  C   UNL     1      -0.077   1.761  -0.547  0.00  0.00    +0.066 C 
ATOM      7  C   UNL     1      -0.025   0.260  -0.668  0.00  0.00    +0.046 A 
ATOM      8  C   UNL     1      -1.211  -0.483  -0.639  0.00  0.00    +0.003 A 
ATOM      9  C   UNL     1      -1.152  -1.837  -0.749  0.00  0.00    +0.045 A 
ATOM     10  N   UNL     1       0.059  -2.439  -0.885  0.00  0.00    -0.238 N 
ATOM     11  C   UNL     1       1.201  -1.680  -0.910  0.00  0.00    +0.158 A 
ATOM     12  N   UNL     1       1.133  -0.347  -0.805  0.00  0.00    -0.233 NA
ATOM     13  C   UNL     1       2.279  -2.550  -1.057  0.00  0.00    +0.119 A 
ATOM     14  C   UNL     1       1.771  -3.847  -1.121  0.00  0.00    +0.267 A 
ATOM     15  O   UNL     1       2.429  -4.867  -1.249  0.00  0.00    -0.266 OA
ATOM     16  N   UNL     1       0.430  -3.783  -1.018  0.00  0.00    -0.258 N 
ATOM     17  H   UNL     1      -0.177  -4.540  -1.032  0.00  0.00    +0.191 HD
ATOM     18  C   UNL     1      -2.415  -2.659  -0.720  0.00  0.00    +0.066 C 
ENDBRANCH   5   8
ENDBRANCH   1   5
BRANCH   3  19
ATOM     19  C   UNL     1      -4.236   1.275   2.776  0.00  0.00    +0.089 C 
BRANCH  19  20
ATOM     20  C   UNL     1      -5.585   1.979   2.931  0.00  0.00    -0.051 C 
ATOM     21  C   UNL     1      -5.807   2.371   4.407  0.00  0.00    -0.016 C 
ATOM     22  C   UNL     1      -5.361   3.856   4.445  0.00  0.00    -0.020 C 
ATOM     23  C   UNL     1      -5.834   4.360   3.059  0.00  0.00    -0.078 C 
ATOM     24  N   UNL     1      -5.595   3.223   2.139  0.00  0.00    +0.383 N 
ATOM     25  H   UNL     1      -4.705   3.339   1.678  0.00  0.00    -0.081 HD
BRANCH  24  26
ATOM     26  C   UNL     1      -6.666   3.162   1.136  0.00  0.00    -0.075 C 
BRANCH  26  27
ATOM     27  C   UNL     1      -6.585   4.390   0.227  0.00  0.00    -0.028 C 
ATOM     28  C   UNL     1      -7.781   4.398  -0.727  0.00  0.00    +0.002 C 
ATOM     29  C   UNL     1      -7.699   5.627  -1.636  0.00  0.00    +0.000 C 
ATOM     30  C   UNL     1      -6.402   5.578  -2.445  0.00  0.00    +0.000 C 
ATOM     31  C   UNL     1      -5.206   5.569  -1.490  0.00  0.00    +0.000 C 
ATOM     32  C   UNL     1      -5.287   4.341  -0.582  0.00  0.00    +0.002 C 
ENDBRANCH  26  27
ENDBRANCH  24  26
ENDBRANCH  19  20
ENDBRANCH   3  19
TORSDOF 6
