REMARK  Name = ZINC39549785
REMARK  10 active torsions:
REMARK  status: ('A' for Active; 'I' for Inactive)
REMARK    1  A    between atoms: C_1  and  C_2
REMARK    2  A    between atoms: C_5  and  O_8
REMARK    3  A    between atoms: O_8  and  C_9
REMARK    4  A    between atoms: C_9  and  C_10
REMARK    5  A    between atoms: C_12  and  S_15
REMARK    6  A    between atoms: S_15  and  C_16
REMARK    7  A    between atoms: C_16  and  C_17
REMARK    8  A    between atoms: N_19  and  C_20
REMARK    9  A    between atoms: C_23  and  C_32
REMARK   10  A    between atoms: N_25  and  C_26
REMARK                            x       y       z     vdW  Elec       q    Type
REMARK                         _______ _______ _______ _____ _____    ______ ____
ROOT
ATOM      1  C   UNL     1       0.931 -12.405   0.244  0.00  0.00    +0.225 C 
ATOM      2  O   UNL     1       2.131 -12.395   0.420  0.00  0.00    -0.275 OA
ATOM      3  N   UNL     1       0.303 -13.562  -0.046  0.00  0.00    -0.292 N 
ATOM      4  H   UNL     1      -0.665 -13.585  -0.112  0.00  0.00    +0.151 HD
ENDROOT
BRANCH   3   5
ATOM      5  C   UNL     1       1.081 -14.784  -0.263  0.00  0.00    +0.205 C 
ATOM      6  C   UNL     1       0.421 -15.958   0.425  0.00  0.00    +0.041 C 
ATOM      7  C   UNL     1       0.107 -16.845  -0.516  0.00  0.00    +0.051 C 
ATOM      8  N   UNL     1       0.482 -16.403  -1.777  0.00  0.00    -0.262 N 
ATOM      9  N   UNL     1       1.089 -15.140  -1.692  0.00  0.00    -0.229 N 
ATOM     10  H   UNL     1       0.344 -16.896  -2.601  0.00  0.00    +0.170 HD
BRANCH   9  11
ATOM     11  C   UNL     1       1.597 -14.376  -2.745  0.00  0.00    +0.050 A 
ATOM     12  C   UNL     1       2.356 -13.243  -2.480  0.00  0.00    +0.025 A 
ATOM     13  C   UNL     1       2.857 -12.490  -3.524  0.00  0.00    +0.002 A 
ATOM     14  C   UNL     1       2.603 -12.863  -4.832  0.00  0.00    +0.000 A 
ATOM     15  C   UNL     1       1.848 -13.990  -5.098  0.00  0.00    +0.002 A 
ATOM     16  C   UNL     1       1.349 -14.751  -4.059  0.00  0.00    +0.025 A 
ENDBRANCH   9  11
BRANCH   7  17
ATOM     17  C   UNL     1      -0.559 -18.141  -0.250  0.00  0.00    -0.003 A 
ATOM     18  C   UNL     1      -0.904 -18.497   1.053  0.00  0.00    +0.010 A 
ATOM     19  C   UNL     1      -1.524 -19.706   1.294  0.00  0.00    +0.001 A 
ATOM     20  C   UNL     1      -1.804 -20.564   0.246  0.00  0.00    +0.000 A 
ATOM     21  C   UNL     1      -1.464 -20.216  -1.049  0.00  0.00    +0.001 A 
ATOM     22  C   UNL     1      -0.850 -19.007  -1.304  0.00  0.00    +0.010 A 
ENDBRANCH   7  17
ENDBRANCH   3   5
BRANCH   1  23
ATOM     23  C   UNL     1       0.143 -11.125   0.350  0.00  0.00    +0.173 C 
BRANCH  23  24
ATOM     24  S   UNL     1       1.264  -9.756   0.749  0.00  0.00    -0.075 S 
BRANCH  24  27
ATOM     25  C   UNL     1      -0.569  -6.328   1.073  0.00  0.00    +0.191 A 
ATOM     26  N   UNL     1       0.581  -7.067   1.113  0.00  0.00    -0.200 NA
ATOM     27  C   UNL     1       0.205  -8.350   0.837  0.00  0.00    +0.212 A 
ATOM     28  N   UNL     1      -1.094  -8.339   0.650  0.00  0.00    -0.121 NA
ATOM     29  N   UNL     1      -1.546  -7.144   0.796  0.00  0.00    -0.128 NA
BRANCH  25  30
ATOM     30  C   UNL     1      -0.685  -4.844   1.311  0.00  0.00    +0.307 C 
BRANCH  30  31
ATOM     31  O   UNL     1      -0.531  -4.149   0.072  0.00  0.00    -0.484 OA
BRANCH  31  36
ATOM     32  C   UNL     1      -0.860   1.471   0.235  0.00  0.00    +0.044 C 
ATOM     33  C   UNL     1      -0.772  -0.032   0.191  0.00  0.00    -0.050 A 
ATOM     34  C   UNL     1      -0.550  -0.676  -1.012  0.00  0.00    +0.007 A 
ATOM     35  C   UNL     1      -0.469  -2.055  -1.055  0.00  0.00    +0.046 A 
ATOM     36  C   UNL     1      -0.610  -2.793   0.111  0.00  0.00    +0.121 A 
ATOM     37  C   UNL     1      -0.832  -2.145   1.317  0.00  0.00    +0.046 A 
ATOM     38  C   UNL     1      -0.907  -0.766   1.355  0.00  0.00    +0.007 A 
ENDBRANCH  31  36
ENDBRANCH  30  31
ENDBRANCH  25  30
ENDBRANCH  24  27
ENDBRANCH  23  24
ENDBRANCH   1  23
TORSDOF 9
