REMARK  Name = ZINC32516109
REMARK  10 active torsions:
REMARK  status: ('A' for Active; 'I' for Inactive)
REMARK    1  A    between atoms: C_1  and  C_2
REMARK    2  A    between atoms: C_2  and  C_3
REMARK    3  A    between atoms: C_2  and  N_4
REMARK    4  A    between atoms: C_6  and  N_25
REMARK    5  A    between atoms: C_9  and  C_11
REMARK    6  A    between atoms: N_13  and  C_14
REMARK    7  A    between atoms: C_14  and  C_15
REMARK    8  A    between atoms: C_15  and  C_16
REMARK    9  A    between atoms: N_25  and  C_26
REMARK   10  A    between atoms: C_26  and  C_27
REMARK                            x       y       z     vdW  Elec       q    Type
REMARK                         _______ _______ _______ _____ _____    ______ ____
ROOT
ATOM      1  N   UNL     1      -1.376  -0.512   0.012  0.00  0.00    -0.291 NA
ATOM      2  C   UNL     1      -2.068  -0.139   1.260  0.00  0.00    +0.070 C 
ATOM      3  C   UNL     1      -2.560  -1.445   1.918  0.00  0.00    -0.055 C 
ATOM      4  C   UNL     1      -2.617  -2.437   0.727  0.00  0.00    +0.014 C 
ATOM      5  C   UNL     1      -1.398  -1.985  -0.116  0.00  0.00    +0.142 C 
ENDROOT
BRANCH   5   6
ATOM      6  C   UNL     1      -1.581  -2.384  -1.557  0.00  0.00    +0.230 C 
ATOM      7  O   UNL     1      -1.684  -1.531  -2.414  0.00  0.00    -0.274 OA
ATOM      8  N   UNL     1      -1.628  -3.688  -1.895  0.00  0.00    -0.314 N 
ATOM      9  H   UNL     1      -1.546  -4.370  -1.210  0.00  0.00    +0.149 HD
BRANCH   8  10
ATOM     10  C   UNL     1      -1.805  -4.075  -3.297  0.00  0.00    +0.109 C 
BRANCH  10  11
ATOM     11  C   UNL     1      -1.825  -5.601  -3.406  0.00  0.00    +0.054 C 
BRANCH  11  12
ATOM     12  C   UNL     1      -2.008  -6.000  -4.848  0.00  0.00    -0.042 A 
ATOM     13  C   UNL     1      -3.280  -6.172  -5.360  0.00  0.00    +0.007 A 
ATOM     14  C   UNL     1      -3.452  -6.537  -6.682  0.00  0.00    +0.050 A 
ATOM     15  C   UNL     1      -2.349  -6.732  -7.497  0.00  0.00    +0.166 A 
ATOM     16  C   UNL     1      -1.067  -6.559  -6.981  0.00  0.00    +0.166 A 
ATOM     17  C   UNL     1      -0.902  -6.187  -5.656  0.00  0.00    +0.053 A 
ATOM     18  O   UNL     1      -0.161  -6.807  -7.971  0.00  0.00    -0.453 OA
ATOM     19  C   UNL     1      -0.885  -7.529  -8.983  0.00  0.00    +0.466 C 
ATOM     20  O   UNL     1      -2.245  -7.088  -8.811  0.00  0.00    -0.453 OA
ENDBRANCH  11  12
ENDBRANCH  10  11
ENDBRANCH   8  10
ENDBRANCH   5   6
BRANCH   1  22
ATOM     21  C   UNL     1      -0.019   1.526   0.010  0.00  0.00    +0.024 C 
ATOM     22  C   UNL     1       0.002  -0.004   0.002  0.00  0.00    +0.051 C 
ATOM     23  C   UNL     1       0.742  -0.511   1.242  0.00  0.00    +0.024 C 
ENDBRANCH   1  22
BRANCH   3  24
ATOM     24  N   UNL     1      -3.892  -1.259   2.509  0.00  0.00    +0.384 N 
ATOM     25  H   UNL     1      -4.521  -0.890   1.811  0.00  0.00    -0.085 HD
ATOM     26  H   UNL     1      -4.240  -2.147   2.839  0.00  0.00    -0.085 HD
BRANCH  24  27
ATOM     27  C   UNL     1      -3.802  -0.319   3.634  0.00  0.00    -0.046 C 
BRANCH  27  28
ATOM     28  C   UNL     1      -5.169  -0.128   4.240  0.00  0.00    -0.064 A 
ATOM     29  C   UNL     1      -6.001   0.869   3.766  0.00  0.00    +0.004 A 
ATOM     30  C   UNL     1      -7.254   1.045   4.321  0.00  0.00    +0.038 A 
ATOM     31  C   UNL     1      -7.677   0.221   5.351  0.00  0.00    +0.123 A 
ATOM     32  C   UNL     1      -6.843  -0.777   5.824  0.00  0.00    +0.038 A 
ATOM     33  C   UNL     1      -5.591  -0.954   5.264  0.00  0.00    +0.004 A 
ATOM     34  F   UNL     1      -8.902   0.393   5.894  0.00  0.00    -0.205 F 
ENDBRANCH  27  28
ENDBRANCH  24  27
ENDBRANCH   3  24
TORSDOF 8
