REMARK  Name = ZINC60374446
REMARK  7 active torsions:
REMARK  status: ('A' for Active; 'I' for Inactive)
REMARK    1  A    between atoms: C_6  and  S_7
REMARK    2  A    between atoms: S_7  and  N_10
REMARK    3  A    between atoms: C_16  and  C_18
REMARK    4  A    between atoms: C_18  and  N_19
REMARK    5  A    between atoms: C_23  and  C_26
REMARK    6  A    between atoms: C_26  and  C_27
REMARK    7  A    between atoms: C_27  and  C_28
REMARK                            x       y       z     vdW  Elec       q    Type
REMARK                         _______ _______ _______ _____ _____    ______ ____
ROOT
ATOM      1  N   UNL     1      -1.942  -1.152  -1.571  0.00  0.00    -0.174 NA
ATOM      2  C   UNL     1      -2.782  -0.173  -2.276  0.00  0.00    +0.128 C 
ATOM      3  C   UNL     1      -2.054   0.269  -3.552  0.00  0.00    +0.125 C 
ATOM      4  N   UNL     1      -1.605  -0.929  -4.274  0.00  0.00    -0.300 N 
ATOM      5  C   UNL     1      -0.765  -1.908  -3.570  0.00  0.00    +0.125 C 
ATOM      6  C   UNL     1      -1.488  -2.347  -2.296  0.00  0.00    +0.128 C 
ATOM      7  C   UNL     1      -1.956  -1.127  -5.561  0.00  0.00    +0.199 C 
ATOM      8  O   UNL     1      -2.650  -0.312  -6.131  0.00  0.00    -0.278 OA
ENDROOT
BRANCH   1   9
ATOM      9  S   UNL     1      -1.510  -0.909   0.009  0.00  0.00    +0.061 S 
ATOM     10  O   UNL     1      -1.215  -2.189   0.550  0.00  0.00    -0.153 OA
ATOM     11  O   UNL     1      -2.494  -0.051   0.572  0.00  0.00    -0.153 OA
BRANCH   9  17
ATOM     12  C   UNL     1      -0.017   1.378   0.010  0.00  0.00    +0.029 A 
ATOM     13  C   UNL     1       1.171   2.079   0.002  0.00  0.00    +0.006 A 
ATOM     14  C   UNL     1       2.387   1.408  -0.012  0.00  0.00    -0.044 A 
ATOM     15  C   UNL     1       2.406   0.031  -0.014  0.00  0.00    -0.042 A 
ATOM     16  C   UNL     1       1.209  -0.673  -0.010  0.00  0.00    +0.032 A 
ATOM     17  C   UNL     1       0.002  -0.004   0.002  0.00  0.00    +0.106 A 
ATOM     18  C   UNL     1       3.686  -0.762  -0.012  0.00  0.00    +0.035 C 
ATOM     19  C   UNL     1       4.861   0.113  -0.446  0.00  0.00    +0.005 C 
ATOM     20  C   UNL     1       4.847   1.394   0.396  0.00  0.00    +0.005 C 
ATOM     21  C   UNL     1       3.645   2.236  -0.027  0.00  0.00    +0.035 C 
ENDBRANCH   9  17
ENDBRANCH   1   9
BRANCH   7  22
ATOM     22  C   UNL     1      -1.488  -2.360  -6.289  0.00  0.00    +0.019 C 
BRANCH  22  23
ATOM     23  N   UNL     1      -2.002  -2.341  -7.665  0.00  0.00    +0.386 N 
ATOM     24  C   UNL     1      -1.416  -1.206  -8.389  0.00  0.00    -0.078 C 
ATOM     25  C   UNL     1      -2.009  -1.134  -9.797  0.00  0.00    -0.018 C 
ATOM     26  C   UNL     1      -1.697  -2.433 -10.544  0.00  0.00    -0.000 C 
ATOM     27  C   UNL     1      -2.248  -3.616  -9.743  0.00  0.00    -0.027 C 
ATOM     28  C   UNL     1      -1.646  -3.597  -8.336  0.00  0.00    -0.075 C 
ATOM     29  H   UNL     1      -3.006  -2.243  -7.647  0.00  0.00    -0.081 HD
BRANCH  27  30
ATOM     30  C   UNL     1      -1.875  -4.925 -10.441  0.00  0.00    +0.011 C 
BRANCH  30  31
ATOM     31  C   UNL     1      -2.575  -4.996 -11.800  0.00  0.00    +0.096 C 
BRANCH  31  32
ATOM     32  C   UNL     1      -2.207  -6.285 -12.488  0.00  0.00    +0.210 C 
ATOM     33  O   UNL     1      -1.458  -7.070 -11.945  0.00  0.00    -0.276 OA
ATOM     34  N   UNL     1      -2.710  -6.566 -13.706  0.00  0.00    -0.329 N 
ATOM     35  H   UNL     1      -3.308  -5.939 -14.140  0.00  0.00    +0.145 HD
ATOM     36  H   UNL     1      -2.473  -7.396 -14.149  0.00  0.00    +0.145 HD
ENDBRANCH  31  32
ENDBRANCH  30  31
ENDBRANCH  27  30
ENDBRANCH  22  23
ENDBRANCH   7  22
TORSDOF 7
