REMARK  Name = ZINC30782220
REMARK  3 active torsions:
REMARK  status: ('A' for Active; 'I' for Inactive)
REMARK    1  A    between atoms: C_1  and  C_2
REMARK    2  A    between atoms: C_5  and  C_8
REMARK    3  A    between atoms: C_14  and  C_17
REMARK                            x       y       z     vdW  Elec       q    Type
REMARK                         _______ _______ _______ _____ _____    ______ ____
ROOT
ATOM      1  C   UNL     1       0.058  -4.251  -0.021  0.00  0.00    +0.186 A 
ATOM      2  N   UNL     1      -0.206  -5.033  -1.050  0.00  0.00    -0.126 NA
ATOM      3  N   UNL     1      -0.091  -6.273  -0.707  0.00  0.00    -0.120 NA
ATOM      4  C   UNL     1       0.249  -6.348   0.541  0.00  0.00    +0.213 A 
ATOM      5  N   UNL     1       0.358  -5.064   1.032  0.00  0.00    -0.186 N 
ATOM      6  N   UNL     1       0.699  -4.784   2.351  0.00  0.00    -0.166 NA
ATOM      7  C   UNL     1       1.269  -5.622   3.146  0.00  0.00    +0.090 C 
ATOM      8  C   UNL     1       1.708  -7.016   2.804  0.00  0.00    +0.136 C 
ATOM      9  S   UNL     1       0.565  -7.741   1.579  0.00  0.00    -0.078 S 
ENDROOT
BRANCH   7  10
ATOM     10  C   UNL     1       1.514  -5.171   4.516  0.00  0.00    +0.084 A 
ATOM     11  C   UNL     1       1.209  -3.965   5.076  0.00  0.00    +0.203 A 
ATOM     12  C   UNL     1       1.548  -3.735   6.471  0.00  0.00    +0.037 A 
ATOM     13  C   UNL     1       1.330  -2.573   7.253  0.00  0.00    +0.013 A 
ATOM     14  C   UNL     1       1.716  -2.530   8.555  0.00  0.00    +0.001 A 
ATOM     15  C   UNL     1       2.334  -3.615   9.165  0.00  0.00    +0.001 A 
ATOM     16  C   UNL     1       2.564  -4.765   8.438  0.00  0.00    +0.016 A 
ATOM     17  C   UNL     1       2.178  -4.823   7.116  0.00  0.00    +0.024 A 
ATOM     18  S   UNL     1       2.273  -6.068   5.856  0.00  0.00    -0.083 S 
ATOM     19  O   UNL     1       0.600  -2.996   4.343  0.00  0.00    -0.286 OA
ENDBRANCH   7  10
BRANCH   1  24
ATOM     20  C   UNL     1      -0.018   1.503   0.010  0.00  0.00    +0.044 C 
ATOM     21  C   UNL     1       0.002  -0.004   0.002  0.00  0.00    -0.050 A 
ATOM     22  C   UNL     1       0.006  -0.686  -1.202  0.00  0.00    +0.004 A 
ATOM     23  C   UNL     1       0.024  -2.066  -1.216  0.00  0.00    +0.012 A 
ATOM     24  C   UNL     1       0.039  -2.773  -0.013  0.00  0.00    +0.021 A 
ATOM     25  C   UNL     1       0.036  -2.079   1.198  0.00  0.00    +0.012 A 
ATOM     26  C   UNL     1       0.023  -0.699   1.198  0.00  0.00    +0.004 A 
ENDBRANCH   1  24
TORSDOF 2
