REMARK  Name = ZINC01110002
REMARK  12 active torsions:
REMARK  status: ('A' for Active; 'I' for Inactive)
REMARK    1  A    between atoms: C_1  and  C_2
REMARK    2  A    between atoms: C_5  and  C_7
REMARK    3  A    between atoms: C_9  and  C_19
REMARK    4  A    between atoms: C_10  and  O_18
REMARK    5  A    between atoms: N_13  and  C_14
REMARK    6  A    between atoms: C_14  and  C_15
REMARK    7  A    between atoms: C_15  and  N_57
REMARK    8  A    between atoms: C_16  and  N_57
REMARK    9  A    between atoms: C_17  and  N_57
REMARK   10  A    between atoms: C_19  and  C_21
REMARK   11  A    between atoms: C_22  and  C_32
REMARK   12  A    between atoms: C_24  and  C_26
REMARK                            x       y       z     vdW  Elec       q    Type
REMARK                         _______ _______ _______ _____ _____    ______ ____
ROOT
ATOM      1  C   UNL     1       4.154  -1.440  -0.085  0.00  0.00    +0.180 C 
ATOM      2  C   UNL     1       2.953  -2.357  -0.055  0.00  0.00    +0.075 C 
ATOM      3  C   UNL     1       3.424  -3.621  -0.153  0.00  0.00    +0.188 C 
ATOM      4  C   UNL     1       4.896  -3.584  -0.257  0.00  0.00    +0.282 C 
ATOM      5  O   UNL     1       5.612  -4.560  -0.361  0.00  0.00    -0.267 OA
ATOM      6  N   UNL     1       5.329  -2.311  -0.214  0.00  0.00    -0.282 N 
ENDROOT
BRANCH   1  11
ATOM      7  C   UNL     1       4.329   0.293  -4.818  0.00  0.00    +0.086 C 
ATOM      8  C   UNL     1       4.141   0.246  -3.324  0.00  0.00    +0.102 A 
ATOM      9  C   UNL     1       3.763   1.275  -2.545  0.00  0.00    +0.045 A 
ATOM     10  C   UNL     1       3.714   0.789  -1.219  0.00  0.00    +0.047 A 
ATOM     11  C   UNL     1       4.065  -0.508  -1.266  0.00  0.00    +0.130 A 
ATOM     12  O   UNL     1       4.328  -0.831  -2.542  0.00  0.00    -0.463 OA
ENDBRANCH   1  11
BRANCH   3  13
ATOM     13  O   UNL     1       2.665  -4.742  -0.159  0.00  0.00    -0.502 OA
ATOM     14  H   UNL     1       3.257  -5.544  -0.242  0.00  0.00    +0.292 HD
ENDBRANCH   3  13
BRANCH   2  15
ATOM     15  C   UNL     1       1.547  -1.954   0.065  0.00  0.00    +0.203 C 
ATOM     16  O   UNL     1       0.775  -2.152  -0.857  0.00  0.00    -0.286 OA
BRANCH  15  17
ATOM     17  C   UNL     1       1.071  -1.312   1.293  0.00  0.00    +0.082 A 
ATOM     18  C   UNL     1      -0.177  -0.766   1.586  0.00  0.00    +0.057 A 
ATOM     19  N   UNL     1      -0.349  -0.248   2.770  0.00  0.00    -0.244 NA
ATOM     20  C   UNL     1       0.624  -0.235   3.673  0.00  0.00    +0.109 A 
ATOM     21  S   UNL     1       1.929  -1.014   2.832  0.00  0.00    -0.064 S 
ATOM     22  C   UNL     1      -1.289  -0.774   0.569  0.00  0.00    +0.067 C 
BRANCH  20  23
ATOM     23  C   UNL     1       0.602   0.305   5.047  0.00  0.00    +0.007 A 
ATOM     24  C   UNL     1       1.738   0.217   5.854  0.00  0.00    +0.010 A 
ATOM     25  C   UNL     1       1.713   0.729   7.134  0.00  0.00    +0.001 A 
ATOM     26  C   UNL     1       0.561   1.318   7.624  0.00  0.00    +0.000 A 
ATOM     27  C   UNL     1      -0.571   1.404   6.833  0.00  0.00    +0.001 A 
ATOM     28  C   UNL     1      -0.557   0.901   5.548  0.00  0.00    +0.010 A 
ENDBRANCH  20  23
ENDBRANCH  15  17
ENDBRANCH   2  15
BRANCH   6  29
ATOM     29  C   UNL     1       6.724  -1.871  -0.285  0.00  0.00    +0.091 C 
BRANCH  29  30
ATOM     30  C   UNL     1       7.308  -1.799   1.127  0.00  0.00    -0.060 C 
BRANCH  30  33
ATOM     31  C   UNL     1       9.231  -1.048   2.393  0.00  0.00    -0.097 C 
ATOM     32  C   UNL     1       9.543  -2.361   0.383  0.00  0.00    -0.097 C 
ATOM     33  N   UNL     1       8.709  -1.333   1.040  0.00  0.00    +0.377 N 
ATOM     34  H   UNL     1       8.740  -0.472   0.482  0.00  0.00    -0.083 HD
ENDBRANCH  30  33
ENDBRANCH  29  30
ENDBRANCH   6  29
TORSDOF 8
