REMARK  Name = ZINC21237337
REMARK  6 active torsions:
REMARK  status: ('A' for Active; 'I' for Inactive)
REMARK    1  A    between atoms: C_1  and  C_2
REMARK    2  A    between atoms: C_2  and  C_3
REMARK    3  A    between atoms: C_3  and  O_4
REMARK    4  A    between atoms: O_4  and  C_5
REMARK    5  A    between atoms: C_8  and  C_11
REMARK    6  A    between atoms: C_16  and  C_21
REMARK                            x       y       z     vdW  Elec       q    Type
REMARK                         _______ _______ _______ _____ _____    ______ ____
ROOT
ATOM      1  C   UNL     1      -1.293  -0.774   0.010  0.00  0.00    +0.136 C 
ATOM      2  C   UNL     1      -1.718  -1.010  -1.419  0.00  0.00    +0.036 C 
ATOM      3  C   UNL     1      -1.716  -2.193  -2.058  0.00  0.00    +0.017 C 
ATOM      4  C   UNL     1      -2.184  -2.292  -3.499  0.00  0.00    +0.059 C 
ATOM      5  C   UNL     1      -1.862  -0.998  -4.244  0.00  0.00    +0.032 C 
ATOM      6  C   UNL     1      -2.584   0.147  -3.524  0.00  0.00    +0.088 C 
ATOM      7  C   UNL     1      -2.144   0.161  -2.090  0.00  0.00    +0.163 C 
ATOM      8  O   UNL     1      -2.154   1.214  -1.484  0.00  0.00    -0.292 OA
ATOM      9  N   UNL     1      -1.330  -3.369  -1.501  0.00  0.00    -0.316 N 
ATOM     10  C   UNL     1      -0.176  -3.554  -0.748  0.00  0.00    +0.052 A 
ATOM     11  C   UNL     1       0.833  -4.415  -1.141  0.00  0.00    +0.025 A 
ATOM     12  C   UNL     1       1.901  -4.642  -0.288  0.00  0.00    +0.002 A 
ATOM     13  C   UNL     1       1.957  -4.012   0.942  0.00  0.00    +0.002 A 
ATOM     14  C   UNL     1       0.959  -3.134   1.326  0.00  0.00    +0.025 A 
ATOM     15  C   UNL     1      -0.101  -2.891   0.468  0.00  0.00    +0.049 A 
ATOM     16  N   UNL     1      -1.105  -1.979   0.790  0.00  0.00    -0.331 N 
ATOM     17  H   UNL     1      -1.949  -4.269  -1.633  0.00  0.00    +0.152 HD
ATOM     18  H   UNL     1      -1.759  -2.186   1.649  0.00  0.00    +0.147 HD
ENDROOT
BRANCH   5  19
ATOM     19  C   UNL     1      -2.349  -1.093  -5.667  0.00  0.00    -0.043 A 
ATOM     20  C   UNL     1      -3.690  -1.302  -5.926  0.00  0.00    +0.005 A 
ATOM     21  C   UNL     1      -4.138  -1.384  -7.231  0.00  0.00    +0.020 A 
ATOM     22  C   UNL     1      -3.241  -1.268  -8.278  0.00  0.00    +0.041 A 
ATOM     23  C   UNL     1      -1.897  -1.064  -8.018  0.00  0.00    +0.020 A 
ATOM     24  C   UNL     1      -1.452  -0.977  -6.713  0.00  0.00    +0.005 A 
ATOM     25 CL   UNL     1      -3.801  -1.377  -9.918  0.00  0.00    -0.084 Cl
ENDBRANCH   5  19
BRANCH   1  29
ATOM     26  C   UNL     1       2.380   1.409  -0.013  0.00  0.00    +0.121 A 
ATOM     27  C   UNL     1       1.232   1.986   0.510  0.00  0.00    +0.046 A 
ATOM     28  C   UNL     1       0.046   1.278   0.517  0.00  0.00    +0.009 A 
ATOM     29  C   UNL     1       0.002  -0.004   0.002  0.00  0.00    -0.023 A 
ATOM     30  C   UNL     1       1.145  -0.582  -0.520  0.00  0.00    +0.009 A 
ATOM     31  C   UNL     1       2.334   0.122  -0.528  0.00  0.00    +0.046 A 
BRANCH  26  32
ATOM     32  O   UNL     1       3.549   2.103  -0.020  0.00  0.00    -0.492 OA
BRANCH  32  33
ATOM     33  C   UNL     1       3.522   3.423   0.527  0.00  0.00    +0.229 C 
BRANCH  33  35
ATOM     34  C   UNL     1       4.890   5.456   1.018  0.00  0.00    +0.007 C 
ATOM     35  C   UNL     1       4.918   4.043   0.432  0.00  0.00    +0.038 C 
ENDBRANCH  33  35
ENDBRANCH  32  33
ENDBRANCH  26  32
ENDBRANCH   1  29
TORSDOF 5
