REMARK  Name = ZINC03358657
REMARK  7 active torsions:
REMARK  status: ('A' for Active; 'I' for Inactive)
REMARK    1  A    between atoms: C_1  and  C_2
REMARK    2  A    between atoms: C_2  and  N_3
REMARK    3  A    between atoms: N_3  and  C_4
REMARK    4  A    between atoms: N_3  and  C_6
REMARK    5  A    between atoms: C_4  and  C_5
REMARK    6  A    between atoms: C_7  and  C_33
REMARK    7  A    between atoms: C_24  and  C_27
REMARK                            x       y       z     vdW  Elec       q    Type
REMARK                         _______ _______ _______ _____ _____    ______ ____
ROOT
ATOM      1  C   UNL     1       5.386   2.131   2.609  0.00  0.00    +0.118 A 
ATOM      2  C   UNL     1       5.711   3.443   2.223  0.00  0.00    +0.098 A 
ATOM      3  C   UNL     1       4.726   4.178   1.431  0.00  0.00    +0.018 A 
ATOM      4  C   UNL     1       4.902   5.480   0.974  0.00  0.00    +0.027 A 
ATOM      5  C   UNL     1       3.903   6.087   0.232  0.00  0.00    +0.221 A 
ATOM      6  N   UNL     1       2.774   5.424  -0.056  0.00  0.00    -0.197 NA
ATOM      7  C   UNL     1       2.549   4.192   0.347  0.00  0.00    +0.135 A 
ATOM      8  C   UNL     1       3.517   3.514   1.112  0.00  0.00    +0.062 A 
ATOM      9  C   UNL     1       3.307   2.193   1.561  0.00  0.00    +0.110 A 
ATOM     10  N   UNL     1       2.109   1.579   1.234  0.00  0.00    -0.309 N 
ATOM     11  C   UNL     1       1.393   2.052   0.040  0.00  0.00    +0.099 C 
ATOM     12  N   UNL     1       1.371   3.523   0.045  0.00  0.00    -0.308 N 
ATOM     13  C   UNL     1      -0.040   1.522   0.061  0.00  0.00    +0.045 C 
ATOM     14  C   UNL     1      -0.018  -0.008   0.053  0.00  0.00    +0.004 C 
ATOM     15  C   UNL     1       0.693  -0.501  -1.209  0.00  0.00    +0.000 C 
ATOM     16  C   UNL     1       2.129   0.027  -1.224  0.00  0.00    +0.004 C 
ATOM     17  C   UNL     1       2.110   1.557  -1.216  0.00  0.00    +0.045 C 
ATOM     18  O   UNL     1       4.252   7.358  -0.108  0.00  0.00    -0.468 OA
ATOM     19  C   UNL     1       5.676   7.511   0.013  0.00  0.00    +0.210 C 
ATOM     20  C   UNL     1       6.036   6.476   1.105  0.00  0.00    +0.090 C 
ATOM     21  H   UNL     1       1.753   0.859   1.777  0.00  0.00    +0.149 HD
ATOM     22  H   UNL     1       0.556   4.011  -0.156  0.00  0.00    +0.150 HD
ATOM     23  N   UNL     1       4.213   1.489   2.298  0.00  0.00    -0.330 N 
ATOM     24  H   UNL     1       4.027   0.527   2.606  0.00  0.00    +0.168 HD
ENDROOT
BRANCH  19  25
ATOM     25  C   UNL     1       6.031   8.906   0.461  0.00  0.00    -0.007 A 
ATOM     26  C   UNL     1       5.188   9.594   1.313  0.00  0.00    +0.007 A 
ATOM     27  C   UNL     1       5.516  10.872   1.727  0.00  0.00    +0.000 A 
ATOM     28  C   UNL     1       6.683  11.464   1.282  0.00  0.00    +0.000 A 
ATOM     29  C   UNL     1       7.524  10.777   0.426  0.00  0.00    +0.000 A 
ATOM     30  C   UNL     1       7.198   9.498   0.016  0.00  0.00    +0.007 A 
ENDBRANCH  19  25
BRANCH   2  31
ATOM     31  C   UNL     1       6.960   4.038   2.592  0.00  0.00    +0.103 C 
ATOM     32  N   UNL     1       7.952   4.510   2.885  0.00  0.00    -0.191 NA
ENDBRANCH   2  31
BRANCH   1  33
ATOM     33  N   UNL     1       6.293   1.405   3.357  0.00  0.00    -0.316 N 
BRANCH  33  35
ATOM     34  C   UNL     1       6.867   0.532   5.572  0.00  0.00    +0.024 C 
ATOM     35  C   UNL     1       5.757   1.113   4.693  0.00  0.00    +0.103 C 
ENDBRANCH  33  35
BRANCH  33  36
ATOM     36  C   UNL     1       6.678   0.169   2.663  0.00  0.00    +0.103 C 
ATOM     37  C   UNL     1       7.647   0.504   1.527  0.00  0.00    +0.024 C 
ENDBRANCH  33  36
ENDBRANCH   1  33
TORSDOF 5
