REMARK  Name = ZINC39639477
REMARK  6 active torsions:
REMARK  status: ('A' for Active; 'I' for Inactive)
REMARK    1  A    between atoms: C_4  and  C_7
REMARK    2  A    between atoms: C_7  and  C_8
REMARK    3  A    between atoms: C_8  and  C_9
REMARK    4  A    between atoms: C_13  and  C_22
REMARK    5  A    between atoms: N_24  and  C_25
REMARK    6  A    between atoms: C_25  and  C_26
REMARK                            x       y       z     vdW  Elec       q    Type
REMARK                         _______ _______ _______ _____ _____    ______ ____
ROOT
ATOM      1  C   UNL     1       5.639  -1.745   1.345  0.00  0.00    +0.216 C 
ATOM      2  O   UNL     1       6.153  -2.095   0.304  0.00  0.00    -0.276 OA
ATOM      3  N   UNL     1       6.195  -2.094   2.522  0.00  0.00    -0.300 N 
ATOM      4  C   UNL     1       5.714  -1.769   3.885  0.00  0.00    +0.121 C 
ATOM      5  C   UNL     1       5.966  -3.055   4.705  0.00  0.00    +0.100 C 
ATOM      6  C   UNL     1       7.091  -3.785   3.953  0.00  0.00    -0.004 C 
ATOM      7  C   UNL     1       7.422  -2.897   2.745  0.00  0.00    +0.115 C 
ATOM      8  C   UNL     1       8.315  -3.937   4.850  0.00  0.00    -0.010 C 
ATOM      9  C   UNL     1       9.399  -4.717   4.100  0.00  0.00    -0.082 C 
ATOM     10  N   UNL     1       8.880  -6.036   3.721  0.00  0.00    +0.379 N 
ATOM     11  C   UNL     1       7.760  -5.883   2.784  0.00  0.00    -0.082 C 
ATOM     12  C   UNL     1       6.607  -5.153   3.478  0.00  0.00    -0.010 C 
ATOM     13  H   UNL     1       9.614  -6.571   3.281  0.00  0.00    -0.086 HD
ATOM     14  H   UNL     1       8.562  -6.522   4.546  0.00  0.00    -0.086 HD
ENDROOT
BRANCH   5  15
ATOM     15  C   UNL     1       6.406  -2.707   6.104  0.00  0.00    +0.218 C 
ATOM     16  O   UNL     1       7.035  -1.690   6.306  0.00  0.00    -0.275 OA
ATOM     17  N   UNL     1       6.101  -3.527   7.129  0.00  0.00    -0.311 N 
ATOM     18  H   UNL     1       5.598  -4.340   6.967  0.00  0.00    +0.149 HD
BRANCH  17  19
ATOM     19  C   UNL     1       6.529  -3.189   8.489  0.00  0.00    +0.142 C 
BRANCH  19  20
ATOM     20  C   UNL     1       6.065  -4.260   9.442  0.00  0.00    +0.005 A 
ATOM     21  C   UNL     1       4.929  -4.062  10.204  0.00  0.00    +0.009 A 
ATOM     22  C   UNL     1       4.503  -5.043  11.079  0.00  0.00    +0.016 A 
ATOM     23  C   UNL     1       5.212  -6.226  11.192  0.00  0.00    +0.021 A 
ATOM     24  C   UNL     1       6.349  -6.426  10.431  0.00  0.00    +0.054 A 
ATOM     25  C   UNL     1       6.773  -5.445   9.551  0.00  0.00    +0.129 A 
ATOM     26  F   UNL     1       7.881  -5.641   8.802  0.00  0.00    -0.205 F 
ATOM     27 BR   UNL     1       4.628  -7.568  12.389  0.00  0.00    -0.050 Br
ENDBRANCH  19  20
ENDBRANCH  17  19
ENDBRANCH   5  15
BRANCH   1  28
ATOM     28  C   UNL     1       4.379  -0.918   1.322  0.00  0.00    +0.100 C 
BRANCH  28  29
ATOM     29  C   UNL     1       3.962  -0.663  -0.128  0.00  0.00    +0.044 C 
BRANCH  29  33
ATOM     30  C   UNL     1       0.391   1.680  -0.194  0.00  0.00    +0.000 A 
ATOM     31  C   UNL     1       1.626   2.301  -0.195  0.00  0.00    +0.000 A 
ATOM     32  C   UNL     1       2.781   1.543  -0.173  0.00  0.00    +0.003 A 
ATOM     33  C   UNL     1       2.703   0.163  -0.150  0.00  0.00    -0.047 A 
ATOM     34  C   UNL     1       1.468  -0.458  -0.148  0.00  0.00    +0.003 A 
ATOM     35  C   UNL     1       0.312   0.300  -0.171  0.00  0.00    +0.000 A 
ENDBRANCH  29  33
ENDBRANCH  28  29
ENDBRANCH   1  28
TORSDOF 6
