REMARK  Name = ZINC15962881
REMARK  9 active torsions:
REMARK  status: ('A' for Active; 'I' for Inactive)
REMARK    1  A    between atoms: C_1  and  C_2
REMARK    2  A    between atoms: C_4  and  C_43
REMARK    3  A    between atoms: C_6  and  N_8
REMARK    4  A    between atoms: C_9  and  C_11
REMARK    5  A    between atoms: N_22  and  C_34
REMARK    6  A    between atoms: C_23  and  C_25
REMARK    7  A    between atoms: N_27  and  C_28
REMARK    8  A    between atoms: C_34  and  C_35
REMARK    9  A    between atoms: C_35  and  N_36
REMARK                            x       y       z     vdW  Elec       q    Type
REMARK                         _______ _______ _______ _____ _____    ______ ____
ROOT
ATOM      1  C   UNL     1       0.280  -2.900   4.854  0.00  0.00    +0.123 C 
ATOM      2  C   UNL     1       1.618  -3.707   4.893  0.00  0.00    +0.155 C 
ATOM      3  C   UNL     1       2.745  -2.716   4.580  0.00  0.00    +0.004 C 
ATOM      4  C   UNL     1       2.898  -1.934   5.656  0.00  0.00    +0.009 C 
ATOM      5  C   UNL     1       1.850  -2.417   6.594  0.00  0.00    +0.127 C 
ATOM      6  C   UNL     1       0.453  -1.942   6.046  0.00  0.00    +0.128 C 
ATOM      7  C   UNL     1      -0.447  -2.220   7.217  0.00  0.00    +0.223 C 
ATOM      8  O   UNL     1      -1.641  -2.424   7.151  0.00  0.00    -0.275 OA
ATOM      9  N   UNL     1       0.286  -2.208   8.359  0.00  0.00    -0.288 N 
ATOM     10  C   UNL     1       1.754  -2.028   8.036  0.00  0.00    +0.198 C 
ATOM     11  O   UNL     1       1.777  -3.864   6.350  0.00  0.00    -0.358 OA
ENDROOT
BRANCH   1  13
ATOM     12  N   UNL     1       0.052  -2.797   2.393  0.00  0.00    -0.285 N 
ATOM     13  C   UNL     1       0.150  -2.134   3.562  0.00  0.00    +0.224 C 
ATOM     14  O   UNL     1       0.134  -0.922   3.575  0.00  0.00    -0.275 OA
ATOM     15  H   UNL     1      -0.003  -3.766   2.387  0.00  0.00    +0.155 HD
BRANCH  12  21
ATOM     16  C   UNL     1       1.265  -2.495  -2.362  0.00  0.00    +0.044 C 
ATOM     17  C   UNL     1       0.609  -1.918  -1.134  0.00  0.00    -0.048 A 
ATOM     18  C   UNL     1      -0.016  -0.686  -1.198  0.00  0.00    +0.006 A 
ATOM     19  C   UNL     1      -0.618  -0.154  -0.073  0.00  0.00    -0.048 A 
ATOM     20  C   UNL     1      -0.598  -0.851   1.119  0.00  0.00    +0.026 A 
ATOM     21  C   UNL     1       0.029  -2.088   1.187  0.00  0.00    +0.034 A 
ATOM     22  C   UNL     1       0.629  -2.623   0.054  0.00  0.00    +0.026 A 
ATOM     23  C   UNL     1      -1.298   1.189  -0.148  0.00  0.00    +0.044 C 
ENDBRANCH  12  21
ENDBRANCH   1  13
BRANCH  10  24
ATOM     24  C   UNL     1       2.201  -0.602   8.230  0.00  0.00    +0.237 C 
ATOM     25  O   UNL     1       1.378   0.282   8.335  0.00  0.00    -0.274 OA
ATOM     26  N   UNL     1       3.516  -0.310   8.287  0.00  0.00    -0.311 N 
ATOM     27  H   UNL     1       4.174  -1.017   8.203  0.00  0.00    +0.149 HD
BRANCH  26  28
ATOM     28  C   UNL     1       3.950   1.077   8.476  0.00  0.00    +0.073 C 
ATOM     29  C   UNL     1       4.001   1.784   7.120  0.00  0.00    +0.022 C 
ATOM     30  C   UNL     1       4.455   3.232   7.317  0.00  0.00    +0.002 C 
ATOM     31  C   UNL     1       5.846   3.248   7.953  0.00  0.00    +0.000 C 
ATOM     32  C   UNL     1       5.795   2.541   9.309  0.00  0.00    +0.002 C 
ATOM     33  C   UNL     1       5.341   1.093   9.112  0.00  0.00    +0.022 C 
ENDBRANCH  26  28
ENDBRANCH  10  24
BRANCH   9  34
ATOM     34  C   UNL     1      -0.274  -2.323   9.708  0.00  0.00    +0.090 C 
BRANCH  34  35
ATOM     35  C   UNL     1      -0.339  -3.797  10.110  0.00  0.00    -0.060 C 
BRANCH  35  36
ATOM     36  N   UNL     1      -0.900  -3.912  11.462  0.00  0.00    +0.381 N 
ATOM     37  C   UNL     1       0.010  -3.279  12.424  0.00  0.00    -0.079 C 
ATOM     38  C   UNL     1      -0.608  -3.324  13.823  0.00  0.00    -0.019 C 
ATOM     39  C   UNL     1      -0.843  -4.783  14.225  0.00  0.00    -0.004 C 
ATOM     40  C   UNL     1      -1.733  -5.454  13.175  0.00  0.00    -0.019 C 
ATOM     41  C   UNL     1      -1.074  -5.330  11.800  0.00  0.00    -0.079 C 
ATOM     42  H   UNL     1      -1.796  -3.448  11.494  0.00  0.00    -0.082 HD
ENDBRANCH  35  36
ENDBRANCH  34  35
ENDBRANCH   9  34
TORSDOF 7
