REMARK  Name = ZINC08791049
REMARK  5 active torsions:
REMARK  status: ('A' for Active; 'I' for Inactive)
REMARK    1  A    between atoms: C_2  and  C_3
REMARK    2  A    between atoms: C_3  and  N_4
REMARK    3  A    between atoms: C_5  and  C_7
REMARK    4  A    between atoms: C_12  and  N_13
REMARK    5  A    between atoms: C_29  and  C_34
REMARK                            x       y       z     vdW  Elec       q    Type
REMARK                         _______ _______ _______ _____ _____    ______ ____
ROOT
ATOM      1  N   UNL     1       6.161   5.859   0.861  0.00  0.00    -0.192 N 
ATOM      2  C   UNL     1       5.166   6.345   0.091  0.00  0.00    +0.248 C 
ATOM      3  O   UNL     1       4.895   7.511  -0.102  0.00  0.00    -0.273 OA
ATOM      4  C   UNL     1       4.457   5.135  -0.483  0.00  0.00    +0.170 C 
ATOM      5  C   UNL     1       3.006   5.106   0.011  0.00  0.00    +0.069 C 
ATOM      6  C   UNL     1       2.503   3.685   0.000  0.00  0.00    -0.015 A 
ATOM      7  C   UNL     1       1.122   3.238   0.009  0.00  0.00    +0.003 A 
ATOM      8  C   UNL     1      -0.094   3.928   0.024  0.00  0.00    +0.010 A 
ATOM      9  C   UNL     1      -1.238   3.169   0.031  0.00  0.00    +0.001 A 
ATOM     10  C   UNL     1      -1.202   1.784   0.017  0.00  0.00    +0.002 A 
ATOM     11  C   UNL     1      -0.013   1.076   0.008  0.00  0.00    +0.026 A 
ATOM     12  C   UNL     1       1.165   1.821   0.001  0.00  0.00    +0.047 A 
ATOM     13  N   UNL     1       2.480   1.456  -0.014  0.00  0.00    -0.356 N 
ATOM     14  H   UNL     1       2.806   0.542  -0.022  0.00  0.00    +0.166 HD
ATOM     15  C   UNL     1       3.270   2.574  -0.017  0.00  0.00    +0.046 A 
ATOM     16  C   UNL     1       4.785   2.601  -0.043  0.00  0.00    +0.156 C 
ATOM     17  N   UNL     1       5.176   4.004   0.144  0.00  0.00    -0.260 N 
ATOM     18  C   UNL     1       6.171   4.518   0.869  0.00  0.00    +0.317 C 
ATOM     19  O   UNL     1       6.990   3.849   1.468  0.00  0.00    -0.252 OA
ENDROOT
BRANCH  16  20
ATOM     20  C   UNL     1       5.338   1.754   1.074  0.00  0.00    -0.020 A 
ATOM     21  C   UNL     1       5.399   2.260   2.360  0.00  0.00    +0.006 A 
ATOM     22  C   UNL     1       5.901   1.482   3.386  0.00  0.00    +0.002 A 
ATOM     23  C   UNL     1       6.352   0.201   3.126  0.00  0.00    +0.020 A 
ATOM     24  C   UNL     1       6.296  -0.304   1.839  0.00  0.00    +0.041 A 
ATOM     25  C   UNL     1       5.788   0.474   0.813  0.00  0.00    +0.025 A 
ATOM     26 CL   UNL     1       6.862  -1.912   1.511  0.00  0.00    -0.084 Cl
ENDBRANCH  16  20
BRANCH   1  32
ATOM     27  C   UNL     1       6.784   7.060   2.874  0.00  0.00    +0.059 A 
ATOM     28  C   UNL     1       7.702   7.852   3.567  0.00  0.00    +0.015 A 
ATOM     29  C   UNL     1       8.877   8.236   2.957  0.00  0.00    +0.001 A 
ATOM     30  C   UNL     1       9.154   7.837   1.659  0.00  0.00    +0.002 A 
ATOM     31  C   UNL     1       8.257   7.050   0.964  0.00  0.00    +0.025 A 
ATOM     32  C   UNL     1       7.070   6.654   1.563  0.00  0.00    +0.058 A 
BRANCH  27  34
ATOM     33  N   UNL     1       5.251   7.043   4.780  0.00  0.00    -0.308 N 
ATOM     34  C   UNL     1       5.522   6.650   3.519  0.00  0.00    +0.246 C 
ATOM     35  O   UNL     1       4.726   5.958   2.914  0.00  0.00    -0.270 OA
ATOM     36  H   UNL     1       5.886   7.595   5.263  0.00  0.00    +0.149 HD
BRANCH  33  37
ATOM     37  C   UNL     1       3.998   6.636   5.421  0.00  0.00    +0.131 C 
BRANCH  37  39
ATOM     38  C   UNL     1       2.918   7.934   7.184  0.00  0.00    +0.005 C 
ATOM     39  C   UNL     1       3.940   7.202   6.816  0.00  0.00    -0.016 C 
ENDBRANCH  37  39
ENDBRANCH  33  37
ENDBRANCH  27  34
ENDBRANCH   1  32
TORSDOF 5
