REMARK  Name = ZINC44714627
REMARK  7 active torsions:
REMARK  status: ('A' for Active; 'I' for Inactive)
REMARK    1  A    between atoms: C_1  and  C_2
REMARK    2  A    between atoms: C_3  and  C_14
REMARK    3  A    between atoms: C_6  and  C_12
REMARK    4  A    between atoms: C_14  and  C_15
REMARK    5  A    between atoms: C_15  and  N_16
REMARK    6  A    between atoms: C_17  and  C_19
REMARK    7  A    between atoms: C_30  and  C_32
REMARK                            x       y       z     vdW  Elec       q    Type
REMARK                         _______ _______ _______ _____ _____    ______ ____
ROOT
ATOM      1  C   UNL     1       2.119   1.872  -6.848  0.00  0.00    +0.100 C 
ATOM      2  C   UNL     1       1.927   0.476  -7.483  0.00  0.00    +0.121 C 
ATOM      3  N   UNL     1       2.741   0.512  -8.721  0.00  0.00    -0.300 N 
ATOM      4  C   UNL     1       3.964   1.257  -8.336  0.00  0.00    +0.115 C 
ATOM      5  C   UNL     1       3.457   2.381  -7.410  0.00  0.00    -0.004 C 
ATOM      6  C   UNL     1       4.450   2.618  -6.277  0.00  0.00    -0.010 C 
ATOM      7  C   UNL     1       5.753   3.179  -6.855  0.00  0.00    -0.082 C 
ATOM      8  N   UNL     1       5.476   4.435  -7.561  0.00  0.00    +0.379 N 
ATOM      9  C   UNL     1       4.594   4.182  -8.706  0.00  0.00    -0.082 C 
ATOM     10  C   UNL     1       3.242   3.664  -8.207  0.00  0.00    -0.010 C 
ATOM     11  C   UNL     1       2.437  -0.013  -9.924  0.00  0.00    +0.219 C 
ATOM     12  O   UNL     1       1.355  -0.529 -10.105  0.00  0.00    -0.275 OA
ATOM     13  H   UNL     1       5.029   5.083  -6.930  0.00  0.00    -0.086 HD
ATOM     14  H   UNL     1       6.344   4.834  -7.888  0.00  0.00    -0.086 HD
ENDROOT
BRANCH  11  15
ATOM     15  C   UNL     1       3.443   0.041 -11.045  0.00  0.00    +0.079 C 
ATOM     16  C   UNL     1       2.715  -0.009 -12.394  0.00  0.00    +0.017 C 
ATOM     17  C   UNL     1       3.740   0.226 -13.506  0.00  0.00    +0.027 C 
ATOM     18  C   UNL     1       4.928  -0.669 -13.312  0.00  0.00    -0.031 C 
ATOM     19  C   UNL     1       5.208  -1.272 -12.201  0.00  0.00    -0.030 C 
ATOM     20  C   UNL     1       4.382  -1.164 -10.952  0.00  0.00    +0.039 C 
ENDBRANCH  11  15
BRANCH   1  22
ATOM     21  N   UNL     1       1.798   2.795  -4.576  0.00  0.00    -0.315 N 
ATOM     22  C   UNL     1       2.188   1.761  -5.347  0.00  0.00    +0.218 C 
ATOM     23  O   UNL     1       2.596   0.741  -4.833  0.00  0.00    -0.275 OA
ATOM     24  H   UNL     1       1.472   3.611  -4.988  0.00  0.00    +0.149 HD
BRANCH  21  25
ATOM     25  C   UNL     1       1.865   2.688  -3.117  0.00  0.00    +0.109 C 
BRANCH  25  26
ATOM     26  C   UNL     1       1.368   3.990  -2.486  0.00  0.00    +0.056 C 
BRANCH  26  29
ATOM     27  C   UNL     1       3.788   4.768  -0.705  0.00  0.00    +0.063 C 
ATOM     28  C   UNL     1       2.478   4.213  -0.206  0.00  0.00    +0.017 A 
ATOM     29  C   UNL     1       1.437   3.879  -0.985  0.00  0.00    -0.018 A 
ATOM     30  C   UNL     1       0.381   3.386  -0.096  0.00  0.00    +0.004 A 
ATOM     31  C   UNL     1      -0.909   2.903  -0.303  0.00  0.00    +0.029 A 
ATOM     32  C   UNL     1      -1.673   2.506   0.790  0.00  0.00    +0.052 A 
ATOM     33  C   UNL     1      -1.144   2.594   2.086  0.00  0.00    +0.021 A 
ATOM     34  C   UNL     1       0.118   3.067   2.291  0.00  0.00    +0.027 A 
ATOM     35  C   UNL     1       0.900   3.470   1.210  0.00  0.00    +0.047 A 
ATOM     36  N   UNL     1       2.177   3.970   1.106  0.00  0.00    -0.358 N 
ATOM     37  H   UNL     1       2.775   4.130   1.853  0.00  0.00    +0.166 HD
BRANCH  32  38
ATOM     38  C   UNL     1      -3.001   2.007   0.592  0.00  0.00    +0.099 C 
ATOM     39  N   UNL     1      -4.055   1.612   0.435  0.00  0.00    -0.191 NA
ENDBRANCH  32  38
ENDBRANCH  26  29
ENDBRANCH  25  26
ENDBRANCH  21  25
ENDBRANCH   1  22
TORSDOF 6
