REMARK  Name = ZINC04222694
REMARK  8 active torsions:
REMARK  status: ('A' for Active; 'I' for Inactive)
REMARK    1  A    between atoms: C_1  and  C_2
REMARK    2  A    between atoms: C_2  and  C_4
REMARK    3  A    between atoms: C_2  and  C_5
REMARK    4  A    between atoms: C_5  and  C_7
REMARK    5  A    between atoms: C_5  and  N_60
REMARK    6  A    between atoms: C_22  and  C_27
REMARK    7  A    between atoms: C_30  and  S_33
REMARK    8  A    between atoms: S_33  and  C_34
REMARK                            x       y       z     vdW  Elec       q    Type
REMARK                         _______ _______ _______ _____ _____    ______ ____
ROOT
ATOM      1  C   UNL     1      -2.361  -5.179   2.813  0.00  0.00    +0.201 C 
ATOM      2  O   UNL     1      -1.558  -5.669   3.579  0.00  0.00    -0.277 OA
ATOM      3  N   UNL     1      -2.138  -3.954   2.297  0.00  0.00    -0.299 N 
ATOM      4  C   UNL     1      -3.066  -3.425   1.310  0.00  0.00    +0.126 C 
ATOM      5  C   UNL     1      -2.334  -2.832   0.122  0.00  0.00    +0.128 C 
ATOM      6  N   UNL     1      -1.126  -2.107   0.495  0.00  0.00    -0.283 N 
ATOM      7  C   UNL     1      -0.297  -2.451   1.633  0.00  0.00    +0.180 C 
ATOM      8  C   UNL     1      -0.978  -3.201   2.745  0.00  0.00    +0.139 C 
ATOM      9  C   UNL     1       0.963  -3.114   1.165  0.00  0.00    +0.239 C 
ATOM     10  O   UNL     1       1.188  -4.266   1.470  0.00  0.00    -0.273 OA
ATOM     11  N   UNL     1       1.840  -2.443   0.415  0.00  0.00    -0.283 N 
ATOM     12  C   UNL     1       1.757  -1.088   0.138  0.00  0.00    +0.046 A 
ATOM     13  C   UNL     1       2.958  -0.369   0.189  0.00  0.00    +0.024 A 
ATOM     14  C   UNL     1       2.979   0.989  -0.019  0.00  0.00    +0.010 A 
ATOM     15  C   UNL     1       1.791   1.673  -0.285  0.00  0.00    -0.017 A 
ATOM     16  C   UNL     1       0.597   0.973  -0.353  0.00  0.00    +0.023 A 
ATOM     17  C   UNL     1       0.571  -0.417  -0.155  0.00  0.00    +0.059 A 
ATOM     18  C   UNL     1      -0.729  -1.085  -0.295  0.00  0.00    +0.249 C 
ATOM     19  O   UNL     1      -1.486  -0.699  -1.165  0.00  0.00    -0.270 OA
ATOM     20  H   UNL     1       2.585  -2.937   0.038  0.00  0.00    +0.155 HD
ENDROOT
BRANCH  15  21
ATOM     21  C   UNL     1       1.807   3.141  -0.495  0.00  0.00    -0.018 A 
ATOM     22  C   UNL     1       0.621   3.821  -0.767  0.00  0.00    +0.009 A 
ATOM     23  C   UNL     1       0.637   5.186  -0.957  0.00  0.00    +0.015 A 
ATOM     24  C   UNL     1       1.839   5.884  -0.888  0.00  0.00    +0.008 A 
ATOM     25  C   UNL     1       3.024   5.207  -0.622  0.00  0.00    +0.015 A 
ATOM     26  C   UNL     1       3.010   3.842  -0.426  0.00  0.00    +0.009 A 
BRANCH  24  27
ATOM     27  S   UNL     1       1.858   7.628  -1.138  0.00  0.00    -0.129 S 
ATOM     28  C   UNL     1       0.120   8.047  -1.445  0.00  0.00    +0.090 C 
ENDBRANCH  24  27
ENDBRANCH  15  21
BRANCH   1  29
ATOM     29  C   UNL     1      -3.606  -5.939   2.437  0.00  0.00    +0.016 C 
BRANCH  29  32
ATOM     30  H   UNL     1      -3.122  -7.608   3.542  0.00  0.00    -0.089 HD
ATOM     31  H   UNL     1      -4.163  -7.915   2.282  0.00  0.00    -0.089 HD
ATOM     32  N   UNL     1      -3.345  -7.383   2.574  0.00  0.00    +0.386 N 
ATOM     33  H   UNL     1      -2.549  -7.640   1.978  0.00  0.00    -0.089 HD
ENDBRANCH  29  32
BRANCH  29  35
ATOM     34  C   UNL     1      -5.995  -6.359   3.038  0.00  0.00    +0.006 C 
ATOM     35  C   UNL     1      -4.757  -5.516   3.352  0.00  0.00    -0.023 C 
ATOM     36  C   UNL     1      -5.075  -4.037   3.120  0.00  0.00    +0.006 C 
ENDBRANCH  29  35
ENDBRANCH   1  29
TORSDOF 5
