REMARK  Name = ZINC02962958
REMARK  6 active torsions:
REMARK  status: ('A' for Active; 'I' for Inactive)
REMARK    1  A    between atoms: C_1  and  C_2
REMARK    2  A    between atoms: C_5  and  N_9
REMARK    3  A    between atoms: C_6  and  C_8
REMARK    4  A    between atoms: C_10  and  C_12
REMARK    5  A    between atoms: C_23  and  C_35
REMARK    6  A    between atoms: N_24  and  C_28
REMARK                            x       y       z     vdW  Elec       q    Type
REMARK                         _______ _______ _______ _____ _____    ______ ____
ROOT
ATOM      1  C   UNL     1       1.912   1.497   1.079  0.00  0.00    +0.163 C 
ATOM      2  C   UNL     1       1.116   1.495  -0.236  0.00  0.00    +0.123 C 
ATOM      3  C   UNL     1       2.072   1.188  -1.367  0.00  0.00    +0.017 A 
ATOM      4  C   UNL     1       1.746   1.594  -2.648  0.00  0.00    +0.029 A 
ATOM      5  C   UNL     1       2.594   1.312  -3.704  0.00  0.00    +0.042 A 
ATOM      6  C   UNL     1       3.772   0.622  -3.477  0.00  0.00    +0.023 A 
ATOM      7  C   UNL     1       4.101   0.219  -2.199  0.00  0.00    +0.047 A 
ATOM      8  C   UNL     1       3.252   0.503  -1.134  0.00  0.00    +0.128 A 
ATOM      9  O   UNL     1       3.613   0.097   0.110  0.00  0.00    -0.467 OA
ATOM     10  C   UNL     1       2.647   0.151   1.157  0.00  0.00    +0.194 C 
ATOM     11  N   UNL     1       1.681  -0.936   1.029  0.00  0.00    -0.243 N 
ATOM     12  C   UNL     1       0.494  -0.765   0.426  0.00  0.00    +0.141 C 
ATOM     13  S   UNL     1      -0.619  -2.066   0.414  0.00  0.00    -0.018 S 
ATOM     14  N   UNL     1       0.147   0.389  -0.167  0.00  0.00    -0.318 N 
ATOM     15  C   UNL     1       3.357   0.044   2.508  0.00  0.00    +0.079 C 
ATOM     16 CL   UNL     1       2.182   1.823  -5.311  0.00  0.00    -0.084 Cl
ATOM     17  H   UNL     1      -0.856   0.509  -0.601  0.00  0.00    +0.148 HD
ENDROOT
BRANCH  11  18
ATOM     18  C   UNL     1       2.002  -2.194   1.552  0.00  0.00    +0.039 A 
ATOM     19  C   UNL     1       2.893  -3.020   0.879  0.00  0.00    +0.026 A 
ATOM     20  C   UNL     1       3.212  -4.259   1.399  0.00  0.00    +0.040 A 
ATOM     21  C   UNL     1       2.636  -4.683   2.585  0.00  0.00    +0.124 A 
ATOM     22  C   UNL     1       1.743  -3.863   3.255  0.00  0.00    +0.040 A 
ATOM     23  C   UNL     1       1.425  -2.621   2.741  0.00  0.00    +0.026 A 
ATOM     24  F   UNL     1       2.945  -5.897   3.089  0.00  0.00    -0.205 F 
ENDBRANCH  11  18
BRANCH   1  26
ATOM     25  N   UNL     1       0.639   2.863   2.701  0.00  0.00    -0.285 N 
ATOM     26  C   UNL     1       0.973   1.638   2.249  0.00  0.00    +0.228 C 
ATOM     27  O   UNL     1       0.517   0.649   2.784  0.00  0.00    -0.275 OA
ATOM     28  H   UNL     1       1.117   3.756   2.273  0.00  0.00    +0.155 HD
BRANCH  25  33
ATOM     29  C   UNL     1      -3.228   3.412   6.816  0.00  0.00    +0.044 C 
ATOM     30  C   UNL     1      -2.201   3.266   5.723  0.00  0.00    -0.050 A 
ATOM     31  C   UNL     1      -2.163   2.112   4.961  0.00  0.00    +0.005 A 
ATOM     32  C   UNL     1      -1.223   1.976   3.959  0.00  0.00    +0.024 A 
ATOM     33  C   UNL     1      -0.315   2.998   3.716  0.00  0.00    +0.036 A 
ATOM     34  C   UNL     1      -0.352   4.153   4.487  0.00  0.00    -0.029 A 
ATOM     35  C   UNL     1      -1.298   4.286   5.484  0.00  0.00    +0.008 A 
ATOM     36  C   UNL     1       0.635   5.262   4.231  0.00  0.00    +0.045 C 
ENDBRANCH  25  33
ENDBRANCH   1  26
TORSDOF 3
