REMARK  Name = ZINC00843005
REMARK  2 active torsions:
REMARK  status: ('A' for Active; 'I' for Inactive)
REMARK    1  A    between atoms: C_4  and  N_7
REMARK    2  A    between atoms: C_16  and  C_19
REMARK                            x       y       z     vdW  Elec       q    Type
REMARK                         _______ _______ _______ _____ _____    ______ ____
ROOT
ATOM      1  N   UNL     1       2.554   3.810  -0.092  0.00  0.00    -0.285 N 
ATOM      2  C   UNL     1       2.797   4.655  -1.125  0.00  0.00    +0.125 A 
ATOM      3  C   UNL     1       3.929   5.437  -1.001  0.00  0.00    +0.115 A 
ATOM      4  S   UNL     1       4.609   4.931   0.547  0.00  0.00    -0.055 S 
ATOM      5  C   UNL     1       3.396   3.757   0.964  0.00  0.00    +0.132 A 
ATOM      6  S   UNL     1       3.295   2.776   2.363  0.00  0.00    -0.024 S 
ATOM      7  C   UNL     1       4.345   6.383  -1.940  0.00  0.00    +0.256 C 
ATOM      8  O   UNL     1       5.438   6.921  -1.888  0.00  0.00    -0.269 OA
ATOM      9  N   UNL     1       3.440   6.660  -2.919  0.00  0.00    -0.289 N 
ATOM     10  C   UNL     1       2.076   6.145  -2.807  0.00  0.00    +0.192 C 
ATOM     11  N   UNL     1       2.023   4.782  -2.276  0.00  0.00    -0.307 N 
ATOM     12  H   UNL     1       3.698   7.196  -3.685  0.00  0.00    +0.151 HD
ATOM     13  H   UNL     1       2.302   4.111  -2.975  0.00  0.00    +0.150 HD
ENDROOT
BRANCH  10  14
ATOM     14  C   UNL     1       1.438   6.159  -4.172  0.00  0.00    +0.009 A 
ATOM     15  C   UNL     1       2.222   6.023  -5.303  0.00  0.00    +0.008 A 
ATOM     16  C   UNL     1       1.637   6.031  -6.555  0.00  0.00    +0.000 A 
ATOM     17  C   UNL     1       0.268   6.186  -6.678  0.00  0.00    +0.001 A 
ATOM     18  C   UNL     1      -0.516   6.328  -5.549  0.00  0.00    +0.020 A 
ATOM     19  C   UNL     1       0.069   6.315  -4.295  0.00  0.00    +0.047 A 
ATOM     20 CL   UNL     1      -0.914   6.492  -2.875  0.00  0.00    -0.083 Cl
ENDBRANCH  10  14
BRANCH   1  24
ATOM     21  C   UNL     1      -0.824   1.370  -0.172  0.00  0.00    +0.000 A 
ATOM     22  C   UNL     1       0.437   0.804  -0.205  0.00  0.00    +0.002 A 
ATOM     23  C   UNL     1       1.558   1.610  -0.181  0.00  0.00    +0.026 A 
ATOM     24  C   UNL     1       1.419   2.990  -0.117  0.00  0.00    +0.049 A 
ATOM     25  C   UNL     1       0.151   3.555  -0.078  0.00  0.00    +0.026 A 
ATOM     26  C   UNL     1      -0.967   2.744  -0.102  0.00  0.00    +0.002 A 
ENDBRANCH   1  24
TORSDOF 2
