REMARK  Name = ZINC38564688
REMARK  10 active torsions:
REMARK  status: ('A' for Active; 'I' for Inactive)
REMARK    1  A    between atoms: C_1  and  C_2
REMARK    2  A    between atoms: C_2  and  N_14
REMARK    3  A    between atoms: C_11  and  C_12
REMARK    4  A    between atoms: C_11  and  C_13
REMARK    5  A    between atoms: C_15  and  C_17
REMARK    6  A    between atoms: C_20  and  C_23
REMARK    7  A    between atoms: N_25  and  C_26
REMARK    8  A    between atoms: C_26  and  C_38
REMARK    9  A    between atoms: C_35  and  C_36
REMARK   10  A    between atoms: C_35  and  C_37
REMARK                            x       y       z     vdW  Elec       q    Type
REMARK                         _______ _______ _______ _____ _____    ______ ____
ROOT
ATOM      1  C   UNL     1      -0.359  -0.961  -3.563  0.00  0.00    +0.037 A 
ATOM      2  C   UNL     1      -0.676  -2.318  -3.481  0.00  0.00    +0.014 A 
ATOM      3  C   UNL     1      -0.840  -3.058  -4.632  0.00  0.00    +0.014 A 
ATOM      4  C   UNL     1      -0.689  -2.449  -5.880  0.00  0.00    +0.037 A 
ATOM      5  C   UNL     1      -0.374  -1.092  -5.961  0.00  0.00    +0.014 A 
ATOM      6  C   UNL     1      -0.214  -0.351  -4.810  0.00  0.00    +0.014 A 
ENDROOT
BRANCH   1   8
ATOM      7  N   UNL     1      -0.324  -0.755  -1.122  0.00  0.00    -0.285 N 
ATOM      8  C   UNL     1      -0.184  -0.167  -2.327  0.00  0.00    +0.248 C 
ATOM      9  O   UNL     1       0.087   1.016  -2.398  0.00  0.00    -0.270 OA
ATOM     10  H   UNL     1      -0.466  -1.713  -1.064  0.00  0.00    +0.155 HD
BRANCH   7  12
ATOM     11  C   UNL     1      -1.214   1.154   0.208  0.00  0.00    +0.061 C 
ATOM     12  C   UNL     1      -0.265  -0.001   0.019  0.00  0.00    +0.014 C 
ATOM     13  C   UNL     1       0.645  -0.292   0.976  0.00  0.00    +0.016 C 
ATOM     14  C   UNL     1       1.576  -1.334   0.904  0.00  0.00    +0.161 C 
ATOM     15  O   UNL     1       1.682  -2.107  -0.027  0.00  0.00    -0.292 OA
ATOM     16  C   UNL     1       2.428  -1.359   2.145  0.00  0.00    +0.084 C 
ATOM     17  C   UNL     1       1.949  -0.209   3.043  0.00  0.00    +0.011 C 
ATOM     18  C   UNL     1       0.805   0.462   2.270  0.00  0.00    +0.034 C 
ATOM     19  C   UNL     1       2.128   1.228   2.551  0.00  0.00    -0.024 C 
ATOM     20  C   UNL     1       3.089   1.460   1.383  0.00  0.00    +0.012 C 
ATOM     21  C   UNL     1       2.081   2.344   3.597  0.00  0.00    +0.012 C 
ENDBRANCH   7  12
ENDBRANCH   1   8
BRANCH   4  22
ATOM     22  C   UNL     1      -0.864  -3.244  -7.116  0.00  0.00    +0.248 C 
ATOM     23  O   UNL     1      -1.138  -4.425  -7.045  0.00  0.00    -0.270 OA
ATOM     24  N   UNL     1      -0.719  -2.657  -8.320  0.00  0.00    -0.285 N 
ATOM     25  H   UNL     1      -0.573  -1.700  -8.379  0.00  0.00    +0.155 HD
BRANCH  24  26
ATOM     26  C   UNL     1      -0.779  -3.411  -9.461  0.00  0.00    +0.014 C 
ATOM     27  C   UNL     1      -1.684  -3.114 -10.422  0.00  0.00    +0.016 C 
ATOM     28  C   UNL     1      -2.600  -2.059 -10.359  0.00  0.00    +0.161 C 
ATOM     29  O   UNL     1      -2.698  -1.279  -9.432  0.00  0.00    -0.292 OA
ATOM     30  C   UNL     1      -3.447  -2.028 -11.603  0.00  0.00    +0.084 C 
ATOM     31  C   UNL     1      -2.978  -3.187 -12.495  0.00  0.00    +0.011 C 
ATOM     32  C   UNL     1      -1.845  -3.868 -11.715  0.00  0.00    +0.034 C 
ATOM     33  C   UNL     1      -1.558  -3.147 -13.063  0.00  0.00    -0.024 C 
ATOM     34  C   UNL     1      -0.819  -1.808 -13.021  0.00  0.00    +0.012 C 
ATOM     35  C   UNL     1      -1.258  -4.029 -14.277  0.00  0.00    +0.012 C 
ATOM     36  C   UNL     1       0.163  -4.572  -9.647  0.00  0.00    +0.061 C 
ENDBRANCH  24  26
ENDBRANCH   4  22
TORSDOF 4
