REMARK  Name = ZINC06284053
REMARK  8 active torsions:
REMARK  status: ('A' for Active; 'I' for Inactive)
REMARK    1  A    between atoms: C_1  and  C_2
REMARK    2  A    between atoms: C_2  and  C_3
REMARK    3  A    between atoms: C_6  and  C_8
REMARK    4  A    between atoms: C_10  and  C_30
REMARK    5  A    between atoms: C_11  and  N_29
REMARK    6  A    between atoms: N_12  and  C_22
REMARK    7  A    between atoms: C_18  and  C_20
REMARK    8  A    between atoms: C_18  and  C_21
REMARK                            x       y       z     vdW  Elec       q    Type
REMARK                         _______ _______ _______ _____ _____    ______ ____
ROOT
ATOM      1  C   UNL     1      -1.397  -1.750   0.184  0.00  0.00    +0.104 C 
ATOM      2  C   UNL     1      -0.960  -0.472   0.839  0.00  0.00    +0.077 C 
ATOM      3  C   UNL     1       0.295   0.015   0.660  0.00  0.00    +0.107 C 
ATOM      4  N   UNL     1       1.198  -0.674  -0.117  0.00  0.00    -0.260 N 
ATOM      5  C   UNL     1       1.011  -2.004  -0.388  0.00  0.00    +0.025 C 
ATOM      6  C   UNL     1      -0.209  -2.567  -0.257  0.00  0.00    +0.026 C 
ATOM      7  C   UNL     1      -0.411  -3.931  -0.531  0.00  0.00    +0.162 C 
ATOM      8  O   UNL     1      -1.518  -4.411  -0.386  0.00  0.00    -0.292 OA
ATOM      9  C   UNL     1       0.717  -4.807  -1.002  0.00  0.00    +0.086 C 
ATOM     10  C   UNL     1       1.735  -3.946  -1.758  0.00  0.00    -0.023 C 
ATOM     11  C   UNL     1       2.200  -2.821  -0.831  0.00  0.00    +0.058 C 
ATOM     12  C   UNL     1       1.078  -3.347  -3.003  0.00  0.00    +0.011 C 
ATOM     13  C   UNL     1       2.934  -4.802  -2.170  0.00  0.00    +0.011 C 
ENDROOT
BRANCH   4  14
ATOM     14  C   UNL     1       2.318  -0.011  -0.634  0.00  0.00    +0.040 A 
ATOM     15  C   UNL     1       3.498   0.035   0.097  0.00  0.00    +0.026 A 
ATOM     16  C   UNL     1       4.603   0.686  -0.418  0.00  0.00    +0.040 A 
ATOM     17  C   UNL     1       4.531   1.301  -1.657  0.00  0.00    +0.124 A 
ATOM     18  C   UNL     1       3.353   1.259  -2.385  0.00  0.00    +0.040 A 
ATOM     19  C   UNL     1       2.248   0.606  -1.877  0.00  0.00    +0.026 A 
ATOM     20  F   UNL     1       5.611   1.941  -2.155  0.00  0.00    -0.205 F 
ENDBRANCH   4  14
BRANCH   1  24
ATOM     21  C   UNL     1      -3.391  -0.640  -3.329  0.00  0.00    -0.010 A 
ATOM     22  C   UNL     1      -4.130  -1.345  -2.438  0.00  0.00    +0.011 A 
ATOM     23  C   UNL     1      -3.545  -1.750  -1.253  0.00  0.00    +0.012 A 
ATOM     24  C   UNL     1      -2.250  -1.429  -1.016  0.00  0.00    +0.003 A 
ATOM     25  S   UNL     1      -1.818  -0.522  -2.492  0.00  0.00    -0.097 S 
BRANCH  21  27
ATOM     26  C   UNL     1      -4.349   1.323  -4.502  0.00  0.00    +0.009 C 
ATOM     27  C   UNL     1      -3.793  -0.092  -4.673  0.00  0.00    +0.039 C 
ENDBRANCH  21  27
ENDBRANCH   1  24
BRANCH   3  28
ATOM     28  N   UNL     1       0.666   1.194   1.261  0.00  0.00    -0.345 N 
ATOM     29  H   UNL     1       1.587   1.495   1.210  0.00  0.00    +0.144 HD
ATOM     30  H   UNL     1       0.006   1.727   1.732  0.00  0.00    +0.144 HD
ENDBRANCH   3  28
BRANCH   2  31
ATOM     31  C   UNL     1      -1.884   0.249   1.662  0.00  0.00    +0.099 C 
ATOM     32  N   UNL     1      -2.617   0.821   2.315  0.00  0.00    -0.191 NA
ENDBRANCH   2  31
TORSDOF 5
