REMARK  Name = ZINC09113570
REMARK  7 active torsions:
REMARK  status: ('A' for Active; 'I' for Inactive)
REMARK    1  A    between atoms: C_1  and  C_2
REMARK    2  A    between atoms: C_5  and  C_7
REMARK    3  A    between atoms: C_7  and  C_9
REMARK    4  A    between atoms: C_7  and  N_10
REMARK    5  A    between atoms: C_18  and  C_20
REMARK    6  A    between atoms: C_20  and  N_60
REMARK    7  A    between atoms: C_27  and  C_31
REMARK                            x       y       z     vdW  Elec       q    Type
REMARK                         _______ _______ _______ _____ _____    ______ ____
ROOT
ATOM      1  N   UNL     1      -4.402   3.354   2.098  0.00  0.00    -0.319 N 
ATOM      2  C   UNL     1      -5.407   4.232   2.461  0.00  0.00    +0.131 A 
ATOM      3  C   UNL     1      -6.046   5.042   1.482  0.00  0.00    +0.051 A 
ATOM      4  C   UNL     1      -5.796   5.105   0.041  0.00  0.00    -0.025 A 
ATOM      5  C   UNL     1      -6.548   5.968  -0.673  0.00  0.00    -0.004 A 
ATOM      6  S   UNL     1      -7.628   6.728   0.510  0.00  0.00    -0.073 S 
ATOM      7  C   UNL     1      -7.059   5.893   1.967  0.00  0.00    +0.114 A 
ATOM      8  N   UNL     1      -7.372   5.931   3.248  0.00  0.00    -0.227 NA
ATOM      9  C   UNL     1      -6.741   5.159   4.111  0.00  0.00    +0.116 A 
ATOM     10  N   UNL     1      -5.784   4.333   3.726  0.00  0.00    -0.219 NA
ATOM     11  C   UNL     1      -6.488   6.218  -2.149  0.00  0.00    +0.046 C 
ATOM     12  C   UNL     1      -5.694   5.077  -2.802  0.00  0.00    -0.009 C 
ATOM     13  C   UNL     1      -4.406   4.856  -2.004  0.00  0.00    +0.008 C 
ATOM     14  C   UNL     1      -4.738   4.243  -0.642  0.00  0.00    +0.037 C 
ATOM     15  C   UNL     1      -5.346   5.454  -4.244  0.00  0.00    +0.008 C 
ATOM     16  H   UNL     1      -4.184   3.228   1.161  0.00  0.00    +0.148 HD
ENDROOT
BRANCH   1  17
ATOM     17  C   UNL     1      -3.666   2.617   3.128  0.00  0.00    +0.135 C 
ATOM     18  C   UNL     1      -4.438   1.349   3.497  0.00  0.00    +0.036 C 
BRANCH  17  23
ATOM     19  C   UNL     1      -0.018   1.083  -0.000  0.00  0.00    +0.086 C 
ATOM     20  C   UNL     1      -0.719   1.574   1.240  0.00  0.00    +0.102 A 
ATOM     21  C   UNL     1      -0.132   1.845   2.420  0.00  0.00    +0.045 A 
ATOM     22  C   UNL     1      -1.154   2.275   3.297  0.00  0.00    +0.047 A 
ATOM     23  C   UNL     1      -2.305   2.241   2.601  0.00  0.00    +0.125 A 
ATOM     24  O   UNL     1      -2.034   1.821   1.354  0.00  0.00    -0.463 OA
ENDBRANCH  17  23
ENDBRANCH   1  17
BRANCH   9  25
ATOM     25  C   UNL     1      -7.118   5.221   5.568  0.00  0.00    -0.001 C 
BRANCH  25  31
ATOM     26  C   UNL     1      -4.884   5.839   6.272  0.00  0.00    -0.050 C 
ATOM     27  C   UNL     1      -4.061   6.950   6.929  0.00  0.00    +0.141 C 
ATOM     28  O   UNL     1      -4.577   7.208   8.238  0.00  0.00    -0.383 OA
ATOM     29  C   UNL     1      -5.952   7.599   8.247  0.00  0.00    +0.141 C 
ATOM     30  C   UNL     1      -6.795   6.495   7.603  0.00  0.00    -0.050 C 
ATOM     31  N   UNL     1      -6.300   6.261   6.230  0.00  0.00    +0.387 N 
ATOM     32  H   UNL     1      -6.373   7.134   5.695  0.00  0.00    -0.081 HD
ENDBRANCH  25  31
ENDBRANCH   9  25
TORSDOF 4
