REMARK  Name = ZINC20167939
REMARK  14 active torsions:
REMARK  status: ('A' for Active; 'I' for Inactive)
REMARK    1  A    between atoms: C_1  and  C_2
REMARK    2  A    between atoms: C_2  and  O_3
REMARK    3  A    between atoms: O_3  and  C_4
REMARK    4  A    between atoms: C_4  and  C_6
REMARK    5  A    between atoms: C_7  and  N_38
REMARK    6  A    between atoms: C_9  and  C_10
REMARK    7  A    between atoms: C_15  and  O_16
REMARK    8  A    between atoms: O_16  and  C_17
REMARK    9  A    between atoms: C_19  and  C_34
REMARK   10  A    between atoms: C_21  and  C_26
REMARK   11  A    between atoms: C_31  and  O_32
REMARK   12  A    between atoms: O_32  and  C_33
REMARK   13  A    between atoms: C_34  and  O_36
REMARK   14  A    between atoms: O_36  and  C_37
REMARK                            x       y       z     vdW  Elec       q    Type
REMARK                         _______ _______ _______ _____ _____    ______ ____
ROOT
ATOM      1  C   UNL     1      -5.605  -0.316   1.381  0.00  0.00    +0.155 A 
ATOM      2  C   UNL     1      -5.015  -1.213   0.517  0.00  0.00    +0.065 A 
ATOM      3  C   UNL     1      -3.585  -0.867   0.440  0.00  0.00    +0.024 A 
ATOM      4  C   UNL     1      -2.620  -1.461  -0.350  0.00  0.00    +0.023 C 
ATOM      5  C   UNL     1      -3.405   0.244   1.381  0.00  0.00    +0.079 A 
ATOM      6  C   UNL     1      -2.214   0.855   1.732  0.00  0.00    +0.118 C 
ATOM      7  S   UNL     1      -2.279   2.136   2.951  0.00  0.00    -0.098 S 
ATOM      8  C   UNL     1      -3.949   2.818   2.739  0.00  0.00    +0.174 C 
ATOM      9  C   UNL     1      -4.938   1.693   2.591  0.00  0.00    +0.250 C 
ATOM     10  O   UNL     1      -6.012   1.769   3.151  0.00  0.00    -0.271 OA
ATOM     11  N   UNL     1      -4.658   0.603   1.850  0.00  0.00    -0.270 N 
ENDROOT
BRANCH   4  12
ATOM     12  C   UNL     1      -3.009  -2.430  -1.375  0.00  0.00    +0.017 A 
ATOM     13  C   UNL     1      -4.116  -2.182  -2.198  0.00  0.00    +0.011 A 
ATOM     14  C   UNL     1      -4.472  -3.098  -3.163  0.00  0.00    +0.001 A 
ATOM     15  C   UNL     1      -3.747  -4.269  -3.318  0.00  0.00    +0.004 A 
ATOM     16  C   UNL     1      -2.656  -4.531  -2.511  0.00  0.00    +0.046 A 
ATOM     17  C   UNL     1      -2.277  -3.621  -1.538  0.00  0.00    +0.127 A 
BRANCH  17  18
ATOM     18  O   UNL     1      -1.206  -3.877  -0.745  0.00  0.00    -0.495 OA
ATOM     19  C   UNL     1      -0.513  -5.107  -0.969  0.00  0.00    +0.277 C 
ENDBRANCH  17  18
ENDBRANCH   4  12
BRANCH   8  20
ATOM     20  C   UNL     1      -3.985   3.683   1.505  0.00  0.00    +0.017 A 
ATOM     21  C   UNL     1      -3.050   3.500   0.505  0.00  0.00    +0.009 A 
ATOM     22  C   UNL     1      -3.082   4.293  -0.627  0.00  0.00    +0.001 A 
ATOM     23  C   UNL     1      -4.050   5.273  -0.760  0.00  0.00    +0.004 A 
ATOM     24  C   UNL     1      -4.990   5.456   0.235  0.00  0.00    +0.046 A 
ATOM     25  C   UNL     1      -4.957   4.664   1.374  0.00  0.00    +0.125 A 
BRANCH  25  26
ATOM     26  O   UNL     1      -5.877   4.847   2.357  0.00  0.00    -0.495 OA
ATOM     27  C   UNL     1      -6.914   5.798   2.107  0.00  0.00    +0.277 C 
ENDBRANCH  25  26
ENDBRANCH   8  20
BRANCH   2  28
ATOM     28  N   UNL     1      -5.647  -2.245  -0.152  0.00  0.00    -0.356 N 
ATOM     29  H   UNL     1      -5.070  -2.902  -0.820  0.00  0.00    +0.142 HD
ATOM     30  H   UNL     1      -6.726  -2.409  -0.016  0.00  0.00    +0.142 HD
ENDBRANCH   2  28
BRANCH   1  31
ATOM     31  C   UNL     1      -6.970  -0.323   1.741  0.00  0.00    +0.358 C 
ATOM     32  O   UNL     1      -7.294  -0.130   2.899  0.00  0.00    -0.243 OA
BRANCH  31  33
ATOM     33  O   UNL     1      -7.915  -0.543   0.802  0.00  0.00    -0.460 OA
BRANCH  33  35
ATOM     34  C   UNL     1     -10.195  -0.800   0.044  0.00  0.00    +0.048 C 
ATOM     35  C   UNL     1      -9.276  -0.535   1.238  0.00  0.00    +0.229 C 
ENDBRANCH  33  35
ENDBRANCH  31  33
ENDBRANCH   1  31
BRANCH   6  36
ATOM     36  C   UNL     1      -0.991   0.471   1.138  0.00  0.00    +0.347 C 
ATOM     37  O   UNL     1      -0.263  -0.325   1.704  0.00  0.00    -0.244 OA
BRANCH  36  38
ATOM     38  O   UNL     1      -0.629   0.986  -0.057  0.00  0.00    -0.464 OA
ATOM     39  C   UNL     1       0.621   0.553  -0.598  0.00  0.00    +0.280 C 
ENDBRANCH  36  38
ENDBRANCH   6  36
TORSDOF 10
