REMARK  Name = ZINC21222286
REMARK  7 active torsions:
REMARK  status: ('A' for Active; 'I' for Inactive)
REMARK    1  A    between atoms: C_1  and  C_2
REMARK    2  A    between atoms: C_2  and  C_3
REMARK    3  A    between atoms: C_3  and  C_5
REMARK    4  A    between atoms: C_3  and  O_6
REMARK    5  A    between atoms: O_6  and  C_7
REMARK    6  A    between atoms: C_10  and  C_13
REMARK    7  A    between atoms: C_18  and  C_23
REMARK                            x       y       z     vdW  Elec       q    Type
REMARK                         _______ _______ _______ _____ _____    ______ ____
ROOT
ATOM      1  C   UNL     1      -4.966  -1.656   2.947  0.00  0.00    +0.136 C 
ATOM      2  C   UNL     1      -4.449  -2.610   3.997  0.00  0.00    +0.036 C 
ATOM      3  C   UNL     1      -4.303  -3.938   3.852  0.00  0.00    +0.017 C 
ATOM      4  C   UNL     1      -3.783  -4.787   5.000  0.00  0.00    +0.059 C 
ATOM      5  C   UNL     1      -2.802  -3.977   5.846  0.00  0.00    +0.033 C 
ATOM      6  C   UNL     1      -3.550  -2.750   6.382  0.00  0.00    +0.088 C 
ATOM      7  C   UNL     1      -4.105  -1.984   5.218  0.00  0.00    +0.163 C 
ATOM      8  O   UNL     1      -4.264  -0.784   5.328  0.00  0.00    -0.292 OA
ATOM      9  N   UNL     1      -4.608  -4.630   2.725  0.00  0.00    -0.316 N 
ATOM     10  C   UNL     1      -4.245  -4.254   1.437  0.00  0.00    +0.052 A 
ATOM     11  C   UNL     1      -3.423  -5.034   0.642  0.00  0.00    +0.025 A 
ATOM     12  C   UNL     1      -3.196  -4.661  -0.672  0.00  0.00    +0.002 A 
ATOM     13  C   UNL     1      -3.784  -3.518  -1.184  0.00  0.00    +0.002 A 
ATOM     14  C   UNL     1      -4.588  -2.725  -0.383  0.00  0.00    +0.025 A 
ATOM     15  C   UNL     1      -4.802  -3.087   0.937  0.00  0.00    +0.049 A 
ATOM     16  N   UNL     1      -5.565  -2.296   1.795  0.00  0.00    -0.331 N 
ATOM     17  H   UNL     1      -5.184  -5.564   2.791  0.00  0.00    +0.152 HD
ATOM     18  H   UNL     1      -6.636  -2.161   1.586  0.00  0.00    +0.147 HD
ENDROOT
BRANCH   5  19
ATOM     19  C   UNL     1      -2.305  -4.815   6.995  0.00  0.00    -0.025 A 
ATOM     20  C   UNL     1      -3.200  -5.318   7.921  0.00  0.00    +0.005 A 
ATOM     21  C   UNL     1      -2.745  -6.087   8.976  0.00  0.00    +0.000 A 
ATOM     22  C   UNL     1      -1.395  -6.354   9.105  0.00  0.00    +0.001 A 
ATOM     23  C   UNL     1      -0.499  -5.851   8.180  0.00  0.00    +0.020 A 
ATOM     24  C   UNL     1      -0.955  -5.086   7.121  0.00  0.00    +0.044 A 
ATOM     25 CL   UNL     1       0.169  -4.461   5.955  0.00  0.00    -0.083 Cl
ENDBRANCH   5  19
BRANCH   1  29
ATOM     26  C   UNL     1      -1.715   0.774   1.609  0.00  0.00    +0.121 A 
ATOM     27  C   UNL     1      -2.780   1.349   2.287  0.00  0.00    +0.046 A 
ATOM     28  C   UNL     1      -3.833   0.563   2.713  0.00  0.00    +0.009 A 
ATOM     29  C   UNL     1      -3.820  -0.799   2.475  0.00  0.00    -0.023 A 
ATOM     30  C   UNL     1      -2.757  -1.376   1.805  0.00  0.00    +0.009 A 
ATOM     31  C   UNL     1      -1.705  -0.593   1.371  0.00  0.00    +0.046 A 
BRANCH  26  32
ATOM     32  O   UNL     1      -0.682   1.547   1.184  0.00  0.00    -0.489 OA
BRANCH  32  33
ATOM     33  C   UNL     1       0.358   0.894   0.452  0.00  0.00    +0.170 C 
ATOM     34  C   UNL     1      -0.041   0.793  -1.022  0.00  0.00    +0.052 C 
BRANCH  33  36
ATOM     35  C   UNL     1       2.119   1.696   2.034  0.00  0.00    +0.007 C 
ATOM     36  C   UNL     1       1.653   1.700   0.576  0.00  0.00    +0.041 C 
ENDBRANCH  33  36
ENDBRANCH  32  33
ENDBRANCH  26  32
ENDBRANCH   1  29
TORSDOF 5
