REMARK  Name = ZINC39354526
REMARK  9 active torsions:
REMARK  status: ('A' for Active; 'I' for Inactive)
REMARK    1  A    between atoms: C_1  and  C_2
REMARK    2  A    between atoms: C_2  and  O_3
REMARK    3  A    between atoms: O_3  and  C_4
REMARK    4  A    between atoms: C_6  and  C_22
REMARK    5  A    between atoms: C_9  and  O_10
REMARK    6  A    between atoms: O_10  and  C_11
REMARK    7  A    between atoms: C_11  and  C_12
REMARK    8  A    between atoms: N_23  and  N_24
REMARK    9  A    between atoms: N_24  and  C_25
REMARK                            x       y       z     vdW  Elec       q    Type
REMARK                         _______ _______ _______ _____ _____    ______ ____
ROOT
ATOM      1  C   UNL     1       0.777  -1.811  -1.336  0.00  0.00    +0.163 A 
ATOM      2  C   UNL     1       0.244  -2.666  -0.389  0.00  0.00    +0.059 A 
ATOM      3  C   UNL     1       0.355  -4.048  -0.559  0.00  0.00    -0.002 A 
ATOM      4  C   UNL     1       1.003  -4.559  -1.686  0.00  0.00    +0.013 A 
ATOM      5  C   UNL     1       1.532  -3.701  -2.626  0.00  0.00    +0.050 A 
ATOM      6  C   UNL     1       1.417  -2.328  -2.460  0.00  0.00    +0.162 A 
ENDROOT
BRANCH   3   7
ATOM      7  C   UNL     1      -0.211  -4.964   0.448  0.00  0.00    +0.138 C 
ATOM      8  N   UNL     1      -0.107  -6.248   0.289  0.00  0.00    -0.191 NA
BRANCH   8   9
ATOM      9  N   UNL     1      -0.645  -7.118   1.246  0.00  0.00    -0.229 N 
ATOM     10  H   UNL     1      -1.095  -6.761   2.028  0.00  0.00    +0.172 HD
BRANCH   9  11
ATOM     11  C   UNL     1      -0.528  -8.567   1.065  0.00  0.00    +0.283 C 
ATOM     12  N   UNL     1       0.672  -9.065   1.749  0.00  0.00    -0.347 N 
ATOM     13  C   UNL     1       0.283  -9.920   2.650  0.00  0.00    +0.061 A 
ATOM     14  C   UNL     1       1.009 -10.736   3.633  0.00  0.00    +0.027 A 
ATOM     15  C   UNL     1       0.322 -11.552   4.457  0.00  0.00    +0.002 A 
ATOM     16  C   UNL     1      -1.080 -11.660   4.421  0.00  0.00    +0.002 A 
ATOM     17  C   UNL     1      -1.841 -10.957   3.559  0.00  0.00    +0.027 A 
ATOM     18  C   UNL     1      -1.201 -10.035   2.612  0.00  0.00    +0.061 A 
ATOM     19  N   UNL     1      -1.671  -9.247   1.688  0.00  0.00    -0.347 N 
ATOM     20  H   UNL     1       1.588  -8.805   1.563  0.00  0.00    +0.163 HD
ATOM     21  H   UNL     1      -2.605  -9.129   1.455  0.00  0.00    +0.163 HD
ENDBRANCH   9  11
ENDBRANCH   8   9
ENDBRANCH   3   7
BRANCH   1  22
ATOM     22  O   UNL     1       0.671  -0.465  -1.174  0.00  0.00    -0.489 OA
BRANCH  22  24
ATOM     23  C   UNL     1      -0.019   1.526   0.010  0.00  0.00    +0.048 C 
ATOM     24  C   UNL     1       0.002  -0.004   0.002  0.00  0.00    +0.226 C 
ENDBRANCH  22  24
ENDBRANCH   1  22
BRANCH   6  25
ATOM     25  O   UNL     1       1.935  -1.486  -3.393  0.00  0.00    -0.484 OA
BRANCH  25  26
ATOM     26  C   UNL     1       2.578  -2.084  -4.521  0.00  0.00    +0.265 C 
BRANCH  26  27
ATOM     27  C   UNL     1       3.086  -1.004  -5.441  0.00  0.00    -0.003 A 
ATOM     28  C   UNL     1       2.899   0.307  -5.125  0.00  0.00    +0.007 A 
ATOM     29  C   UNL     1       3.362   1.320  -5.963  0.00  0.00    +0.001 A 
ATOM     30  C   UNL     1       4.012   1.028  -7.122  0.00  0.00    +0.008 A 
ATOM     31  C   UNL     1       4.223  -0.314  -7.482  0.00  0.00    -0.018 A 
ATOM     32  C   UNL     1       3.759  -1.344  -6.626  0.00  0.00    -0.011 A 
ATOM     33  C   UNL     1       3.975  -2.686  -6.983  0.00  0.00    +0.009 A 
ATOM     34  C   UNL     1       4.631  -2.978  -8.139  0.00  0.00    +0.001 A 
ATOM     35  C   UNL     1       5.093  -1.965  -8.977  0.00  0.00    +0.001 A 
ATOM     36  C   UNL     1       4.891  -0.655  -8.671  0.00  0.00    +0.008 A 
ENDBRANCH  26  27
ENDBRANCH  25  26
ENDBRANCH   6  25
TORSDOF 8
