REMARK  Name = ZINC40476153
REMARK  7 active torsions:
REMARK  status: ('A' for Active; 'I' for Inactive)
REMARK    1  A    between atoms: C_1  and  C_2
REMARK    2  A    between atoms: C_2  and  C_38
REMARK    3  A    between atoms: C_6  and  C_26
REMARK    4  A    between atoms: C_13  and  S_17
REMARK    5  A    between atoms: S_17  and  C_18
REMARK    6  A    between atoms: C_18  and  C_19
REMARK    7  A    between atoms: C_31  and  N_32
REMARK                            x       y       z     vdW  Elec       q    Type
REMARK                         _______ _______ _______ _____ _____    ______ ____
ROOT
ATOM      1  C   UNL     1       0.855   2.640  -0.799  0.00  0.00    +0.011 C 
ATOM      2  C   UNL     1       0.539   1.151  -0.645  0.00  0.00    -0.023 C 
ATOM      3  C   UNL     1       1.218   0.362  -1.766  0.00  0.00    +0.058 C 
ATOM      4  C   UNL     1       2.715   0.536  -1.675  0.00  0.00    +0.017 C 
ATOM      5  C   UNL     1       3.321   0.725  -0.484  0.00  0.00    +0.024 C 
ATOM      6  C   UNL     1       4.817   0.886  -0.385  0.00  0.00    +0.095 C 
ATOM      7  C   UNL     1       5.417   1.240  -1.712  0.00  0.00    +0.069 A 
ATOM      8  C   UNL     1       6.704   1.787  -1.784  0.00  0.00    +0.258 A 
ATOM      9  O   UNL     1       7.353   1.984  -0.769  0.00  0.00    -0.267 OA
ATOM     10  N   UNL     1       7.213   2.091  -2.996  0.00  0.00    -0.302 N 
ATOM     11  H   UNL     1       8.103   2.471  -3.066  0.00  0.00    +0.171 HD
ATOM     12  C   UNL     1       6.481   1.864  -4.122  0.00  0.00    +0.171 A 
ATOM     13  N   UNL     1       5.269   1.350  -4.060  0.00  0.00    -0.208 NA
ATOM     14  C   UNL     1       4.713   1.032  -2.886  0.00  0.00    +0.135 A 
ATOM     15  N   UNL     1       3.440   0.501  -2.835  0.00  0.00    -0.302 N 
ATOM     16  C   UNL     1       2.574   0.780   0.707  0.00  0.00    +0.162 C 
ATOM     17  O   UNL     1       3.151   0.941   1.764  0.00  0.00    -0.292 OA
ATOM     18  C   UNL     1       1.077   0.646   0.697  0.00  0.00    +0.086 C 
ATOM     19  C   UNL     1      -0.975   0.937  -0.708  0.00  0.00    +0.011 C 
ATOM     20  H   UNL     1       3.055   0.099  -3.630  0.00  0.00    +0.153 HD
ENDROOT
BRANCH   6  21
ATOM     21  C   UNL     1       5.421  -0.407   0.099  0.00  0.00    -0.005 A 
ATOM     22  C   UNL     1       5.369  -1.535  -0.698  0.00  0.00    +0.007 A 
ATOM     23  C   UNL     1       5.923  -2.721  -0.255  0.00  0.00    +0.000 A 
ATOM     24  C   UNL     1       6.530  -2.779   0.987  0.00  0.00    +0.002 A 
ATOM     25  C   UNL     1       6.582  -1.651   1.784  0.00  0.00    +0.033 A 
ATOM     26  C   UNL     1       6.032  -0.464   1.338  0.00  0.00    +0.130 A 
BRANCH  26  27
ATOM     27  N   UNL     1       6.092   0.746   2.189  0.00  0.00    +0.057 N 
ATOM     28  O   UNL     1       6.926   0.831   3.060  0.00  0.00    -0.126 OA
ATOM     29  O   UNL     1       5.307   1.649   2.013  0.00  0.00    -0.126 OA
ENDBRANCH  26  27
ENDBRANCH   6  21
BRANCH  12  30
ATOM     30  S   UNL     1       7.168   2.266  -5.694  0.00  0.00    -0.083 S 
BRANCH  30  31
ATOM     31  C   UNL     1       5.868   1.805  -6.872  0.00  0.00    +0.112 C 
BRANCH  31  32
ATOM     32  C   UNL     1       6.333   2.102  -8.275  0.00  0.00    -0.037 A 
ATOM     33  C   UNL     1       6.089   3.341  -8.836  0.00  0.00    +0.007 A 
ATOM     34  C   UNL     1       6.515   3.615 -10.122  0.00  0.00    +0.038 A 
ATOM     35  C   UNL     1       7.188   2.647 -10.848  0.00  0.00    +0.123 A 
ATOM     36  C   UNL     1       7.432   1.405 -10.285  0.00  0.00    +0.038 A 
ATOM     37  C   UNL     1       7.009   1.136  -8.997  0.00  0.00    +0.007 A 
ATOM     38  F   UNL     1       7.604   2.913 -12.105  0.00  0.00    -0.205 F 
ENDBRANCH  31  32
ENDBRANCH  30  31
ENDBRANCH  12  30
TORSDOF 5
