REMARK  Name = ZINC65056760
REMARK  10 active torsions:
REMARK  status: ('A' for Active; 'I' for Inactive)
REMARK    1  A    between atoms: C_1  and  C_2
REMARK    2  A    between atoms: C_6  and  C_11
REMARK    3  A    between atoms: C_11  and  C_12
REMARK    4  A    between atoms: C_12  and  C_13
REMARK    5  A    between atoms: N_15  and  C_16
REMARK    6  A    between atoms: C_16  and  C_17
REMARK    7  A    between atoms: C_17  and  C_18
REMARK    8  A    between atoms: C_18  and  N_19
REMARK    9  A    between atoms: C_31  and  C_38
REMARK   10  A    between atoms: C_34  and  C_37
REMARK                            x       y       z     vdW  Elec       q    Type
REMARK                         _______ _______ _______ _____ _____    ______ ____
ROOT
ATOM      1  C   UNL     1      -0.727  -4.078  -3.763  0.00  0.00    +0.085 C 
ENDROOT
BRANCH   1   7
ATOM      2  C   UNL     1       0.540   1.492  -0.089  0.00  0.00    +0.070 C 
ATOM      3  C   UNL     1       0.462  -0.013  -0.079  0.00  0.00    +0.093 A 
ATOM      4  C   UNL     1       0.118  -0.868  -1.211  0.00  0.00    +0.103 A 
ATOM      5  C   UNL     1      -0.225  -0.643  -2.556  0.00  0.00    +0.138 A 
ATOM      6  N   UNL     1      -0.484  -1.696  -3.326  0.00  0.00    -0.216 NA
ATOM      7  C   UNL     1      -0.423  -2.923  -2.843  0.00  0.00    +0.135 A 
ATOM      8  N   UNL     1      -0.107  -3.179  -1.591  0.00  0.00    -0.195 NA
ATOM      9  C   UNL     1       0.170  -2.193  -0.744  0.00  0.00    +0.263 A 
ATOM     10  O   UNL     1       0.515  -2.139   0.553  0.00  0.00    -0.334 OA
ATOM     11  N   UNL     1       0.693  -0.790   0.936  0.00  0.00    -0.080 NA
ATOM     12  N   UNL     1      -0.290   0.639  -3.064  0.00  0.00    -0.314 N 
ATOM     13  C   UNL     1       0.918   1.309  -3.563  0.00  0.00    +0.109 C 
ATOM     14  C   UNL     1       0.657   1.797  -4.991  0.00  0.00    +0.004 C 
ATOM     15  C   UNL     1      -0.598   2.672  -5.006  0.00  0.00    +0.009 C 
ATOM     16  C   UNL     1      -1.803   1.846  -4.550  0.00  0.00    +0.004 C 
ATOM     17  C   UNL     1      -1.571   1.356  -3.122  0.00  0.00    +0.109 C 
ATOM     18  C   UNL     1      -3.063   2.712  -4.597  0.00  0.00    +0.009 C 
ATOM     19  C   UNL     1       1.856   2.614  -5.479  0.00  0.00    +0.009 C 
ENDBRANCH   1   7
BRANCH   1  20
ATOM     20  C   UNL     1       0.563  -4.543  -4.441  0.00  0.00    +0.103 C 
BRANCH  20  21
ATOM     21  C   UNL     1       0.259  -5.697  -5.361  0.00  0.00    +0.213 C 
ATOM     22  O   UNL     1      -0.878  -6.108  -5.464  0.00  0.00    -0.276 OA
ATOM     23  N   UNL     1       1.250  -6.274  -6.069  0.00  0.00    -0.315 N 
ATOM     24  H   UNL     1       2.159  -5.946  -5.987  0.00  0.00    +0.149 HD
BRANCH  23  25
ATOM     25  C   UNL     1       0.954  -7.396  -6.963  0.00  0.00    +0.102 C 
BRANCH  25  26
ATOM     26  C   UNL     1       2.244  -7.862  -7.641  0.00  0.00    +0.000 C 
BRANCH  26  27
ATOM     27  C   UNL     1       1.935  -9.034  -8.575  0.00  0.00    -0.077 C 
BRANCH  27  28
ATOM     28  N   UNL     1       3.174  -9.481  -9.226  0.00  0.00    +0.383 N 
ATOM     29  C   UNL     1       2.863 -10.534 -10.204  0.00  0.00    -0.074 C 
ATOM     30  C   UNL     1       4.096 -10.767 -11.079  0.00  0.00    +0.017 C 
ATOM     31  C   UNL     1       5.308 -10.977 -10.208  0.00  0.00    -0.048 A 
ATOM     32  C   UNL     1       6.443 -11.538 -10.771  0.00  0.00    +0.004 A 
ATOM     33  C   UNL     1       7.573 -11.743 -10.005  0.00  0.00    +0.000 A 
ATOM     34  C   UNL     1       7.572 -11.386  -8.669  0.00  0.00    +0.000 A 
ATOM     35  C   UNL     1       6.441 -10.828  -8.107  0.00  0.00    +0.002 A 
ATOM     36  C   UNL     1       5.305 -10.624  -8.875  0.00  0.00    -0.061 A 
ATOM     37  C   UNL     1       4.091 -10.020  -8.218  0.00  0.00    -0.043 C 
ATOM     38  H   UNL     1       3.609  -8.700  -9.695  0.00  0.00    -0.081 HD
ENDBRANCH  27  28
ENDBRANCH  26  27
ENDBRANCH  25  26
ENDBRANCH  23  25
ENDBRANCH  20  21
ENDBRANCH   1  20
TORSDOF 7
