REMARK  Name = ZINC41889843
REMARK  6 active torsions:
REMARK  status: ('A' for Active; 'I' for Inactive)
REMARK    1  A    between atoms: C_1  and  C_2
REMARK    2  A    between atoms: C_6  and  C_20
REMARK    3  A    between atoms: C_8  and  C_10
REMARK    4  A    between atoms: C_8  and  N_13
REMARK    5  A    between atoms: C_20  and  C_21
REMARK    6  A    between atoms: C_20  and  C_22
REMARK                            x       y       z     vdW  Elec       q    Type
REMARK                         _______ _______ _______ _____ _____    ______ ____
ROOT
ATOM      1  C   UNL     1       0.262   1.072  -1.435  0.00  0.00    +0.007 C 
ATOM      2  C   UNL     1       0.271  -0.412  -1.062  0.00  0.00    -0.011 C 
ATOM      3  C   UNL     1       1.057  -1.198  -2.113  0.00  0.00    +0.004 C 
ATOM      4  C   UNL     1       1.065  -2.682  -1.739  0.00  0.00    +0.007 C 
ATOM      5  C   UNL     1       1.726  -2.859  -0.370  0.00  0.00    +0.029 C 
ATOM      6  C   UNL     1       0.939  -2.073   0.681  0.00  0.00    +0.152 C 
ATOM      7  C   UNL     1       0.931  -0.589   0.307  0.00  0.00    +0.044 C 
ENDROOT
BRANCH   6   8
ATOM      8  N   UNL     1       1.572  -2.243   1.992  0.00  0.00    -0.298 N 
ATOM      9  C   UNL     1       2.779  -2.858   2.080  0.00  0.00    +0.090 A 
ATOM     10  C   UNL     1       3.382  -3.027   3.279  0.00  0.00    +0.018 A 
ATOM     11  C   UNL     1       2.760  -2.563   4.447  0.00  0.00    +0.007 A 
ATOM     12  C   UNL     1       1.548  -1.945   4.356  0.00  0.00    +0.070 A 
ATOM     13  C   UNL     1       0.952  -1.782   3.094  0.00  0.00    +0.252 A 
ATOM     14  O   UNL     1      -0.131  -1.226   2.998  0.00  0.00    -0.268 OA
ENDBRANCH   6   8
BRANCH   6  15
ATOM     15  C   UNL     1      -0.477  -2.585   0.736  0.00  0.00    +0.382 C 
ATOM     16  O   UNL     1      -0.908  -3.075   1.766  0.00  0.00    -0.244 OA
ATOM     17  O   UNL     1      -1.191  -2.511  -0.249  0.00  0.00    -0.244 OA
ENDBRANCH   6  15
BRANCH   5  18
ATOM     18  C   UNL     1       1.734  -4.343   0.003  0.00  0.00    -0.011 C 
ATOM     19  C   UNL     1       0.321  -4.912  -0.135  0.00  0.00    +0.007 C 
ATOM     20  C   UNL     1       2.682  -5.098  -0.931  0.00  0.00    +0.007 C 
ENDBRANCH   5  18
TORSDOF 3
