REMARK  Name = ZINC35778813
REMARK  12 active torsions:
REMARK  status: ('A' for Active; 'I' for Inactive)
REMARK    1  A    between atoms: C_1  and  C_2
REMARK    2  A    between atoms: C_2  and  C_3
REMARK    3  A    between atoms: C_2  and  N_4
REMARK    4  A    between atoms: N_4  and  C_5
REMARK    5  A    between atoms: N_4  and  C_15
REMARK    6  A    between atoms: C_5  and  C_6
REMARK    7  A    between atoms: C_6  and  C_8
REMARK    8  A    between atoms: C_6  and  O_14
REMARK    9  A    between atoms: C_15  and  C_16
REMARK   10  A    between atoms: C_26  and  C_28
REMARK   11  A    between atoms: C_28  and  O_29
REMARK   12  A    between atoms: O_29  and  C_30
REMARK                            x       y       z     vdW  Elec       q    Type
REMARK                         _______ _______ _______ _____ _____    ______ ____
ROOT
ATOM      1  C   UNL     1      -0.241  -2.431   0.935  0.00  0.00    +0.200 C 
ATOM      2  O   UNL     1      -0.015  -1.706   1.881  0.00  0.00    -0.278 OA
ATOM      3  N   UNL     1       0.114  -3.730   0.982  0.00  0.00    -0.292 N 
ATOM      4  C   UNL     1      -0.149  -4.617  -0.161  0.00  0.00    +0.113 C 
ATOM      5  C   UNL     1       1.200  -5.079  -0.734  0.00  0.00    +0.061 C 
ATOM      6  C   UNL     1       2.105  -5.434   0.401  0.00  0.00    -0.004 A 
ATOM      7  C   UNL     1       1.970  -5.103   1.714  0.00  0.00    -0.014 A 
ATOM      8  C   UNL     1       2.965  -5.555   2.579  0.00  0.00    +0.013 A 
ATOM      9  C   UNL     1       3.996  -6.288   2.100  0.00  0.00    +0.046 A 
ATOM     10  S   UNL     1       3.604  -6.380   0.359  0.00  0.00    -0.101 S 
ATOM     11  C   UNL     1       0.774  -4.280   2.174  0.00  0.00    +0.144 C 
ENDROOT
BRANCH   1  12
ATOM     12  C   UNL     1      -0.917  -1.879  -0.293  0.00  0.00    +0.019 C 
BRANCH  12  13
ATOM     13  N   UNL     1      -1.038  -0.420  -0.171  0.00  0.00    +0.389 N 
ATOM     14  H   UNL     1      -1.253  -0.179   0.785  0.00  0.00    -0.081 HD
BRANCH  13  16
ATOM     15  C   UNL     1       1.355  -0.304   0.337  0.00  0.00    -0.014 C 
ATOM     16  C   UNL     1       0.229   0.211  -0.562  0.00  0.00    -0.074 C 
ATOM     17  C   UNL     1       0.543  -0.134  -2.019  0.00  0.00    -0.014 C 
ENDBRANCH  13  16
BRANCH  13  18
ATOM     18  C   UNL     1      -2.114   0.058  -1.050  0.00  0.00    -0.041 C 
BRANCH  18  19
ATOM     19  C   UNL     1      -2.339   1.553  -0.815  0.00  0.00    +0.128 C 
BRANCH  19  20
ATOM     20  C   UNL     1      -3.401   2.055  -1.759  0.00  0.00    -0.021 A 
ATOM     21  C   UNL     1      -4.736   1.942  -1.421  0.00  0.00    +0.006 A 
ATOM     22  C   UNL     1      -5.710   2.403  -2.287  0.00  0.00    +0.000 A 
ATOM     23  C   UNL     1      -5.348   2.978  -3.491  0.00  0.00    +0.000 A 
ATOM     24  C   UNL     1      -4.012   3.092  -3.829  0.00  0.00    +0.000 A 
ATOM     25  C   UNL     1      -3.039   2.635  -2.961  0.00  0.00    +0.006 A 
ENDBRANCH  19  20
BRANCH  19  26
ATOM     26  O   UNL     1      -2.762   1.765   0.534  0.00  0.00    -0.389 OA
ATOM     27  H   UNL     1      -3.586   1.313   0.763  0.00  0.00    +0.210 HD
ENDBRANCH  19  26
ENDBRANCH  18  19
ENDBRANCH  13  18
ENDBRANCH  12  13
ENDBRANCH   1  12
BRANCH  11  28
ATOM     28  C   UNL     1      -0.202  -5.175   2.941  0.00  0.00    +0.256 C 
BRANCH  28  29
ATOM     29  O   UNL     1      -0.535  -6.311   2.141  0.00  0.00    -0.490 OA
BRANCH  29  30
ATOM     30  C   UNL     1      -1.399  -7.212   2.679  0.00  0.00    +0.121 A 
ATOM     31  C   UNL     1      -1.919  -7.004   3.948  0.00  0.00    +0.047 A 
ATOM     32  C   UNL     1      -2.796  -7.922   4.493  0.00  0.00    +0.023 A 
ATOM     33  C   UNL     1      -3.156  -9.048   3.774  0.00  0.00    +0.041 A 
ATOM     34  C   UNL     1      -2.638  -9.257   2.508  0.00  0.00    +0.023 A 
ATOM     35  C   UNL     1      -1.766  -8.338   1.957  0.00  0.00    +0.047 A 
ATOM     36 CL   UNL     1      -4.258 -10.199   4.461  0.00  0.00    -0.084 Cl
ENDBRANCH  29  30
ENDBRANCH  28  29
ENDBRANCH  11  28
TORSDOF 10
