REMARK  Name = ZINC01735810
REMARK  4 active torsions:
REMARK  status: ('A' for Active; 'I' for Inactive)
REMARK    1  A    between atoms: C_3  and  N_22
REMARK    2  A    between atoms: C_6  and  C_7
REMARK    3  A    between atoms: C_10  and  C_11
REMARK    4  A    between atoms: C_16  and  O_17
REMARK                            x       y       z     vdW  Elec       q    Type
REMARK                         _______ _______ _______ _____ _____    ______ ____
ROOT
ATOM      1  C   UNL     1      -0.632   3.261  -0.678  0.00  0.00    +0.232 C 
ATOM      2  N   UNL     1       0.619   3.354  -0.321  0.00  0.00    -0.205 NA
ATOM      3  C   UNL     1       1.179   2.109  -0.327  0.00  0.00    +0.153 C 
ATOM      4  C   UNL     1       2.480   1.776  -0.011  0.00  0.00    +0.046 C 
ATOM      5  C   UNL     1       0.099   1.196  -0.742  0.00  0.00    +0.364 C 
ATOM      6  O   UNL     1       0.165  -0.011  -0.880  0.00  0.00    -0.243 OA
ATOM      7  O   UNL     1      -0.977   1.986  -0.943  0.00  0.00    -0.402 OA
ENDROOT
BRANCH   4   8
ATOM      8  C   UNL     1       2.871   0.370   0.089  0.00  0.00    +0.020 A 
ATOM      9  C   UNL     1       2.019  -0.558   0.703  0.00  0.00    +0.027 A 
ATOM     10  C   UNL     1       2.396  -1.881   0.793  0.00  0.00    +0.019 A 
ATOM     11  C   UNL     1       3.614  -2.298   0.278  0.00  0.00    +0.019 A 
ATOM     12  C   UNL     1       4.464  -1.395  -0.330  0.00  0.00    +0.047 A 
ATOM     13  C   UNL     1       4.103  -0.062  -0.436  0.00  0.00    +0.124 A 
ATOM     14 BR   UNL     1       1.246  -3.132   1.622  0.00  0.00    -0.050 Br
BRANCH  13  15
ATOM     15  O   UNL     1       4.936   0.825  -1.038  0.00  0.00    -0.506 OA
ATOM     16  H   UNL     1       5.565   1.245  -0.435  0.00  0.00    +0.292 HD
ENDBRANCH  13  15
ENDBRANCH   4   8
BRANCH   1  22
ATOM     17  C   UNL     1      -1.103   5.699  -0.487  0.00  0.00    +0.015 A 
ATOM     18  C   UNL     1      -1.968   6.769  -0.594  0.00  0.00    +0.033 A 
ATOM     19  C   UNL     1      -3.280   6.566  -0.982  0.00  0.00    +0.126 A 
ATOM     20  C   UNL     1      -3.734   5.291  -1.271  0.00  0.00    +0.033 A 
ATOM     21  C   UNL     1      -2.879   4.213  -1.175  0.00  0.00    +0.015 A 
ATOM     22  C   UNL     1      -1.553   4.410  -0.784  0.00  0.00    +0.037 A 
BRANCH  19  23
ATOM     23  N   UNL     1      -4.204   7.718  -1.088  0.00  0.00    +0.056 N 
ATOM     24  O   UNL     1      -5.359   7.543  -1.429  0.00  0.00    -0.126 OA
ATOM     25  O   UNL     1      -3.807   8.841  -0.834  0.00  0.00    -0.126 OA
ENDBRANCH  19  23
ENDBRANCH   1  22
TORSDOF 4
