REMARK  Name = ZINC13524653
REMARK  6 active torsions:
REMARK  status: ('A' for Active; 'I' for Inactive)
REMARK    1  A    between atoms: C_1  and  C_2
REMARK    2  A    between atoms: C_2  and  C_4
REMARK    3  A    between atoms: C_2  and  O_10
REMARK    4  A    between atoms: O_10  and  C_11
REMARK    5  A    between atoms: C_11  and  C_13
REMARK    6  A    between atoms: C_27  and  C_28
REMARK                            x       y       z     vdW  Elec       q    Type
REMARK                         _______ _______ _______ _____ _____    ______ ____
ROOT
ATOM      1  C   UNL     1      -2.559   3.930  -0.270  0.00  0.00    +0.073 A 
ATOM      2  C   UNL     1      -1.292   3.248  -0.005  0.00  0.00    +0.015 A 
ATOM      3  C   UNL     1      -0.083   3.947   0.056  0.00  0.00    +0.011 A 
ATOM      4  C   UNL     1       1.075   3.271   0.310  0.00  0.00    +0.001 A 
ATOM      5  C   UNL     1       1.067   1.892   0.509  0.00  0.00    +0.002 A 
ATOM      6  C   UNL     1      -0.092   1.181   0.455  0.00  0.00    +0.028 A 
ATOM      7  C   UNL     1      -1.305   1.843   0.189  0.00  0.00    +0.072 A 
ATOM      8  N   UNL     1      -2.455   1.173   0.122  0.00  0.00    -0.247 NA
ATOM      9  C   UNL     1      -3.612   1.766  -0.124  0.00  0.00    +0.072 A 
ATOM     10  C   UNL     1      -3.709   3.154  -0.327  0.00  0.00    -0.007 A 
ATOM     11  C   UNL     1      -5.027   3.828  -0.589  0.00  0.00    +0.038 C 
ATOM     12  C   UNL     1      -6.052   2.844  -1.144  0.00  0.00    +0.009 C 
ATOM     13  C   UNL     1      -6.171   1.645  -0.195  0.00  0.00    +0.037 C 
ATOM     14  C   UNL     1      -4.835   0.934  -0.190  0.00  0.00    -0.021 C 
ATOM     15  C   UNL     1      -4.761  -0.407  -0.245  0.00  0.00    +0.015 C 
ENDROOT
BRANCH  15  16
ATOM     16  C   UNL     1      -5.987  -1.217  -0.143  0.00  0.00    -0.005 A 
ATOM     17  C   UNL     1      -7.035  -0.805   0.686  0.00  0.00    +0.009 A 
ATOM     18  C   UNL     1      -8.180  -1.567   0.776  0.00  0.00    +0.002 A 
ATOM     19  C   UNL     1      -8.295  -2.740   0.050  0.00  0.00    +0.021 A 
ATOM     20  C   UNL     1      -7.263  -3.156  -0.774  0.00  0.00    +0.060 A 
ATOM     21  C   UNL     1      -6.111  -2.399  -0.880  0.00  0.00    +0.066 A 
ATOM     22 CL   UNL     1      -4.821  -2.918  -1.918  0.00  0.00    -0.081 Cl
ATOM     23 CL   UNL     1      -7.419  -4.627  -1.682  0.00  0.00    -0.082 Cl
ENDBRANCH  15  16
BRANCH   1  24
ATOM     24  C   UNL     1      -2.610   5.392  -0.485  0.00  0.00    +0.341 C 
ATOM     25  O   UNL     1      -2.495   5.845  -1.606  0.00  0.00    -0.245 OA
BRANCH  24  26
ATOM     26  O   UNL     1      -2.785   6.221   0.562  0.00  0.00    -0.449 OA
BRANCH  26  28
ATOM     27  C   UNL     1      -4.270   8.067  -0.002  0.00  0.00    +0.062 C 
ATOM     28  C   UNL     1      -2.826   7.644   0.277  0.00  0.00    +0.259 C 
BRANCH  28  29
ATOM     29  C   UNL     1      -2.298   8.409   1.463  0.00  0.00    +0.261 C 
ATOM     30  O   UNL     1      -1.925   7.814   2.451  0.00  0.00    -0.271 OA
ATOM     31  N   UNL     1      -2.242   9.755   1.425  0.00  0.00    -0.237 N 
ATOM     32  C   UNL     1      -1.769  10.440   2.486  0.00  0.00    +0.303 C 
ATOM     33  O   UNL     1      -1.395   9.844   3.476  0.00  0.00    -0.253 OA
ATOM     34  N   UNL     1      -1.713  11.786   2.448  0.00  0.00    -0.313 N 
ATOM     35  H   UNL     1      -2.541  10.231   0.634  0.00  0.00    +0.159 HD
ATOM     36  H   UNL     1      -2.012  12.262   1.657  0.00  0.00    +0.146 HD
ATOM     37  H   UNL     1      -1.373  12.279   3.211  0.00  0.00    +0.146 HD
ENDBRANCH  28  29
ENDBRANCH  26  28
ENDBRANCH  24  26
ENDBRANCH   1  24
TORSDOF 5
