REMARK  Name = ZINC39974853
REMARK  8 active torsions:
REMARK  status: ('A' for Active; 'I' for Inactive)
REMARK    1  A    between atoms: C_4  and  N_7
REMARK    2  A    between atoms: N_7  and  S_8
REMARK    3  A    between atoms: S_8  and  C_11
REMARK    4  A    between atoms: C_14  and  N_17
REMARK    5  A    between atoms: N_17  and  C_18
REMARK    6  A    between atoms: C_18  and  N_20
REMARK    7  A    between atoms: N_20  and  C_21
REMARK    8  A    between atoms: C_21  and  C_22
REMARK                            x       y       z     vdW  Elec       q    Type
REMARK                         _______ _______ _______ _____ _____    ______ ____
ROOT
ATOM      1  C   UNL     1       2.611  -3.189   0.346  0.00  0.00    +0.109 A 
ATOM      2  C   UNL     1       1.246  -3.007   0.471  0.00  0.00    +0.030 A 
ATOM      3  C   UNL     1       0.373  -3.955  -0.024  0.00  0.00    +0.025 A 
ATOM      4  C   UNL     1       0.867  -5.093  -0.648  0.00  0.00    +0.033 A 
ATOM      5  C   UNL     1       2.238  -5.273  -0.773  0.00  0.00    +0.025 A 
ATOM      6  C   UNL     1       3.106  -4.318  -0.281  0.00  0.00    +0.030 A 
ENDROOT
BRANCH   1   7
ATOM      7  S   UNL     1       3.722  -1.977   0.979  0.00  0.00    +0.072 S 
ATOM      8  O   UNL     1       4.989  -2.609   1.095  0.00  0.00    -0.150 OA
ATOM      9  O   UNL     1       3.070  -1.367   2.084  0.00  0.00    -0.150 OA
BRANCH   7  10
ATOM     10  N   UNL     1       3.882  -0.806  -0.182  0.00  0.00    -0.216 N 
ATOM     11  H   UNL     1       3.604   0.104   0.006  0.00  0.00    +0.174 HD
BRANCH  10  15
ATOM     12  C   UNL     1       5.474  -1.769  -3.906  0.00  0.00    +0.000 A 
ATOM     13  C   UNL     1       4.338  -0.986  -3.824  0.00  0.00    +0.002 A 
ATOM     14  C   UNL     1       3.807  -0.665  -2.590  0.00  0.00    +0.024 A 
ATOM     15  C   UNL     1       4.416  -1.129  -1.431  0.00  0.00    +0.048 A 
ATOM     16  C   UNL     1       5.558  -1.915  -1.518  0.00  0.00    +0.024 A 
ATOM     17  C   UNL     1       6.084  -2.233  -2.755  0.00  0.00    +0.002 A 
ENDBRANCH  10  15
ENDBRANCH   7  10
ENDBRANCH   1   7
BRANCH   4  18
ATOM     18  N   UNL     1      -0.015  -6.056  -1.151  0.00  0.00    -0.297 N 
ATOM     19  H   UNL     1       0.181  -6.999  -1.038  0.00  0.00    +0.154 HD
BRANCH  18  20
ATOM     20  C   UNL     1      -1.138  -5.673  -1.791  0.00  0.00    +0.135 C 
ATOM     21  S   UNL     1      -1.417  -4.015  -2.112  0.00  0.00    -0.019 S 
BRANCH  20  22
ATOM     22  N   UNL     1      -2.041  -6.596  -2.178  0.00  0.00    -0.322 N 
ATOM     23  H   UNL     1      -1.883  -7.535  -1.996  0.00  0.00    +0.148 HD
BRANCH  22  24
ATOM     24  C   UNL     1      -3.261  -6.179  -2.874  0.00  0.00    +0.138 C 
BRANCH  24  25
ATOM     25  C   UNL     1      -4.095  -7.393  -3.194  0.00  0.00    -0.029 A 
ATOM     26  C   UNL     1      -3.911  -8.061  -4.390  0.00  0.00    +0.007 A 
ATOM     27  C   UNL     1      -4.676  -9.174  -4.686  0.00  0.00    +0.022 A 
ATOM     28  C   UNL     1      -5.626  -9.620  -3.784  0.00  0.00    +0.059 A 
ATOM     29  C   UNL     1      -5.810  -8.950  -2.586  0.00  0.00    +0.060 A 
ATOM     30  C   UNL     1      -5.040  -7.840  -2.290  0.00  0.00    +0.026 A 
ATOM     31 CL   UNL     1      -7.002  -9.508  -1.454  0.00  0.00    -0.082 Cl
ATOM     32 CL   UNL     1      -6.587 -11.017  -4.155  0.00  0.00    -0.082 Cl
ENDBRANCH  24  25
ENDBRANCH  22  24
ENDBRANCH  20  22
ENDBRANCH  18  20
ENDBRANCH   4  18
TORSDOF 8
