REMARK  Name = ZINC01254735
REMARK  10 active torsions:
REMARK  status: ('A' for Active; 'I' for Inactive)
REMARK    1  A    between atoms: C_1  and  C_2
REMARK    2  A    between atoms: C_2  and  O_3
REMARK    3  A    between atoms: O_3  and  C_4
REMARK    4  A    between atoms: C_4  and  C_6
REMARK    5  A    between atoms: C_7  and  N_33
REMARK    6  A    between atoms: C_9  and  C_32
REMARK    7  A    between atoms: C_10  and  C_22
REMARK    8  A    between atoms: C_22  and  O_24
REMARK    9  A    between atoms: O_24  and  C_25
REMARK   10  A    between atoms: C_25  and  C_26
REMARK                            x       y       z     vdW  Elec       q    Type
REMARK                         _______ _______ _______ _____ _____    ______ ____
ROOT
ATOM      1  C   UNL     1       1.289  -0.549   0.261  0.00  0.00    +0.117 C 
ATOM      2  C   UNL     1       2.344   0.265   0.534  0.00  0.00    +0.195 C 
ATOM      3  O   UNL     1       2.296   1.585   0.292  0.00  0.00    -0.446 OA
ATOM      4  C   UNL     1       1.110   2.190   0.135  0.00  0.00    +0.116 C 
ATOM      5  C   UNL     1      -0.007   1.508  -0.157  0.00  0.00    +0.098 C 
ATOM      6  C   UNL     1       0.025   0.016  -0.321  0.00  0.00    +0.145 C 
ATOM      7  C   UNL     1      -0.096  -0.357  -1.778  0.00  0.00    -0.001 A 
ATOM      8  C   UNL     1       0.680  -0.094  -2.884  0.00  0.00    +0.022 A 
ATOM      9  C   UNL     1       0.306  -0.583  -4.123  0.00  0.00    +0.018 A 
ATOM     10  C   UNL     1      -0.849  -1.335  -4.245  0.00  0.00    +0.017 A 
ATOM     11  C   UNL     1      -1.629  -1.600  -3.139  0.00  0.00    +0.025 A 
ATOM     12  C   UNL     1      -1.259  -1.111  -1.888  0.00  0.00    +0.038 A 
ATOM     13  N   UNL     1      -1.870  -1.242  -0.640  0.00  0.00    -0.284 N 
ATOM     14  C   UNL     1      -1.183  -0.612   0.331  0.00  0.00    +0.237 C 
ATOM     15  O   UNL     1      -1.478  -0.560   1.506  0.00  0.00    -0.274 OA
ATOM     16 BR   UNL     1       1.370  -0.226  -5.645  0.00  0.00    -0.050 Br
ATOM     17  C   UNL     1       1.029   3.687   0.292  0.00  0.00    +0.087 C 
ATOM     18  H   UNL     1      -2.694  -1.730  -0.489  0.00  0.00    +0.155 HD
ENDROOT
BRANCH   2  19
ATOM     19  N   UNL     1       3.483  -0.275   1.069  0.00  0.00    -0.329 N 
ATOM     20  H   UNL     1       3.559  -1.236   1.178  0.00  0.00    +0.145 HD
ATOM     21  H   UNL     1       4.213   0.303   1.338  0.00  0.00    +0.145 HD
ENDBRANCH   2  19
BRANCH   1  22
ATOM     22  C   UNL     1       1.382  -1.924   0.526  0.00  0.00    +0.342 C 
ATOM     23  O   UNL     1       1.605  -2.705  -0.382  0.00  0.00    -0.245 OA
BRANCH  22  24
ATOM     24  O   UNL     1       1.224  -2.381   1.786  0.00  0.00    -0.462 OA
BRANCH  24  26
ATOM     25  C   UNL     1       1.125  -4.119   3.463  0.00  0.00    +0.048 C 
ATOM     26  C   UNL     1       1.331  -3.793   1.983  0.00  0.00    +0.229 C 
ENDBRANCH  24  26
ENDBRANCH  22  24
ENDBRANCH   1  22
BRANCH   5  27
ATOM     27  C   UNL     1      -1.230   2.204  -0.318  0.00  0.00    +0.340 C 
ATOM     28  O   UNL     1      -1.285   3.398  -0.092  0.00  0.00    -0.245 OA
BRANCH  27  29
ATOM     29  O   UNL     1      -2.334   1.542  -0.723  0.00  0.00    -0.457 OA
BRANCH  29  30
ATOM     30  C   UNL     1      -3.533   2.307  -0.864  0.00  0.00    +0.268 C 
BRANCH  30  31
ATOM     31  C   UNL     1      -4.652   1.407  -1.320  0.00  0.00    -0.010 A 
ATOM     32  C   UNL     1      -4.888   1.227  -2.671  0.00  0.00    +0.007 A 
ATOM     33  C   UNL     1      -5.912   0.397  -3.089  0.00  0.00    +0.000 A 
ATOM     34  C   UNL     1      -6.705  -0.245  -2.157  0.00  0.00    +0.000 A 
ATOM     35  C   UNL     1      -6.473  -0.061  -0.807  0.00  0.00    +0.000 A 
ATOM     36  C   UNL     1      -5.446   0.764  -0.389  0.00  0.00    +0.007 A 
ENDBRANCH  30  31
ENDBRANCH  29  30
ENDBRANCH  27  29
ENDBRANCH   5  27
TORSDOF 8
