REMARK  Name = ZINC09415311
REMARK  7 active torsions:
REMARK  status: ('A' for Active; 'I' for Inactive)
REMARK    1  A    between atoms: C_1  and  C_2
REMARK    2  A    between atoms: C_2  and  C_3
REMARK    3  A    between atoms: C_2  and  C_4
REMARK    4  A    between atoms: C_7  and  C_10
REMARK    5  A    between atoms: C_17  and  S_28
REMARK    6  A    between atoms: S_28  and  C_29
REMARK    7  A    between atoms: C_29  and  C_30
REMARK                            x       y       z     vdW  Elec       q    Type
REMARK                         _______ _______ _______ _____ _____    ______ ____
ROOT
ATOM      1  C   UNL     1      -2.814   3.439  -4.671  0.00  0.00    +0.092 C 
ATOM      2  C   UNL     1      -1.891   4.307  -5.474  0.00  0.00    +0.069 A 
ATOM      3  C   UNL     1      -1.622   5.620  -5.064  0.00  0.00    +0.258 A 
ATOM      4  O   UNL     1      -2.135   6.074  -4.054  0.00  0.00    -0.267 OA
ATOM      5  N   UNL     1      -0.784   6.372  -5.809  0.00  0.00    -0.302 N 
ATOM      6  H   UNL     1      -0.587   7.284  -5.543  0.00  0.00    +0.171 HD
ATOM      7  C   UNL     1      -0.215   5.854  -6.932  0.00  0.00    +0.171 A 
ATOM      8  N   UNL     1      -0.467   4.620  -7.322  0.00  0.00    -0.208 NA
ATOM      9  C   UNL     1      -1.292   3.831  -6.625  0.00  0.00    +0.135 A 
ATOM     10  N   UNL     1      -1.551   2.542  -7.048  0.00  0.00    -0.302 N 
ATOM     11  C   UNL     1      -2.656   1.872  -6.601  0.00  0.00    +0.017 C 
ATOM     12  C   UNL     1      -3.294   2.258  -5.475  0.00  0.00    +0.024 C 
ATOM     13  C   UNL     1      -4.429   1.567  -5.013  0.00  0.00    +0.162 C 
ATOM     14  O   UNL     1      -4.991   1.952  -4.007  0.00  0.00    -0.292 OA
ATOM     15  C   UNL     1      -4.960   0.362  -5.739  0.00  0.00    +0.080 C 
ATOM     16  C   UNL     1      -3.803  -0.328  -6.470  0.00  0.00    +0.014 C 
ATOM     17  C   UNL     1      -3.144   0.690  -7.403  0.00  0.00    +0.051 C 
ATOM     18  H   UNL     1      -0.943   2.108  -7.668  0.00  0.00    +0.153 HD
ENDROOT
BRANCH   1  22
ATOM     19  C   UNL     1      -0.748   2.025  -1.210  0.00  0.00    -0.045 A 
ATOM     20  C   UNL     1      -0.280   1.709  -2.472  0.00  0.00    +0.004 A 
ATOM     21  C   UNL     1      -0.951   2.163  -3.592  0.00  0.00    +0.005 A 
ATOM     22  C   UNL     1      -2.084   2.941  -3.450  0.00  0.00    -0.035 A 
ATOM     23  C   UNL     1      -2.550   3.261  -2.188  0.00  0.00    +0.005 A 
ATOM     24  C   UNL     1      -1.881   2.804  -1.069  0.00  0.00    +0.004 A 
BRANCH  19  26
ATOM     25  C   UNL     1       0.002  -0.004   0.002  0.00  0.00    +0.012 C 
ATOM     26  C   UNL     1      -0.019   1.526   0.010  0.00  0.00    +0.013 C 
ATOM     27  C   UNL     1       1.417   2.055  -0.000  0.00  0.00    +0.012 C 
ENDBRANCH  19  26
ENDBRANCH   1  22
BRANCH   7  28
ATOM     28  S   UNL     1       0.880   6.853  -7.885  0.00  0.00    -0.083 S 
BRANCH  28  29
ATOM     29  C   UNL     1       1.308   5.685  -9.200  0.00  0.00    +0.114 C 
BRANCH  29  30
ATOM     30  C   UNL     1       2.264   6.340 -10.162  0.00  0.00    -0.019 A 
ATOM     31  C   UNL     1       1.778   7.030 -11.257  0.00  0.00    +0.006 A 
ATOM     32  C   UNL     1       2.655   7.635 -12.138  0.00  0.00    +0.000 A 
ATOM     33  C   UNL     1       4.019   7.543 -11.930  0.00  0.00    +0.001 A 
ATOM     34  C   UNL     1       4.506   6.849 -10.838  0.00  0.00    +0.020 A 
ATOM     35  C   UNL     1       3.628   6.247  -9.953  0.00  0.00    +0.045 A 
ATOM     36 CL   UNL     1       4.239   5.375  -8.582  0.00  0.00    -0.083 Cl
ENDBRANCH  29  30
ENDBRANCH  28  29
ENDBRANCH   7  28
TORSDOF 5
