REMARK  Name = ZINC35746671
REMARK  15 active torsions:
REMARK  status: ('A' for Active; 'I' for Inactive)
REMARK    1  A    between atoms: C_1  and  C_2
REMARK    2  A    between atoms: C_8  and  C_19
REMARK    3  A    between atoms: C_12  and  C_13
REMARK    4  A    between atoms: C_13  and  O_15
REMARK    5  A    between atoms: O_15  and  C_16
REMARK    6  A    between atoms: C_16  and  C_17
REMARK    7  A    between atoms: C_19  and  N_20
REMARK    8  A    between atoms: N_20  and  C_21
REMARK    9  A    between atoms: N_20  and  C_32
REMARK   10  A    between atoms: C_21  and  C_22
REMARK   11  A    between atoms: C_22  and  C_24
REMARK   12  A    between atoms: C_22  and  O_31
REMARK   13  A    between atoms: C_24  and  C_25
REMARK   14  A    between atoms: C_32  and  C_33
REMARK   15  A    between atoms: C_32  and  C_34
REMARK                            x       y       z     vdW  Elec       q    Type
REMARK                         _______ _______ _______ _____ _____    ______ ____
ROOT
ATOM      1  C   UNL     1       1.115   1.222   0.117  0.00  0.00    +0.046 C 
ATOM      2  C   UNL     1       1.047  -0.281   0.046  0.00  0.00    -0.015 A 
ATOM      3  C   UNL     1       0.856  -0.916  -1.183  0.00  0.00    +0.076 A 
ATOM      4  C   UNL     1       0.697  -0.320  -2.529  0.00  0.00    +0.260 A 
ATOM      5  O   UNL     1       0.724   0.888  -2.685  0.00  0.00    -0.267 OA
ATOM      6  N   UNL     1       0.523  -1.148  -3.577  0.00  0.00    -0.312 N 
ATOM      7  H   UNL     1       0.418  -0.774  -4.466  0.00  0.00    +0.170 HD
ATOM      8  C   UNL     1       0.493  -2.494  -3.416  0.00  0.00    +0.094 A 
ATOM      9  N   UNL     1       0.629  -3.052  -2.244  0.00  0.00    -0.229 NA
ATOM     10  C   UNL     1       0.806  -2.328  -1.145  0.00  0.00    +0.116 A 
ATOM     11  S   UNL     1       1.024  -2.699   0.577  0.00  0.00    -0.062 S 
ATOM     12  C   UNL     1       1.177  -1.027   1.182  0.00  0.00    +0.102 A 
ENDROOT
BRANCH  12  13
ATOM     13  C   UNL     1       1.388  -0.568   2.557  0.00  0.00    +0.347 C 
ATOM     14  O   UNL     1       1.468   0.622   2.796  0.00  0.00    -0.244 OA
BRANCH  13  15
ATOM     15  O   UNL     1       1.494  -1.466   3.559  0.00  0.00    -0.457 OA
BRANCH  15  16
ATOM     16  C   UNL     1       1.699  -0.948   4.875  0.00  0.00    +0.259 C 
BRANCH  16  17
ATOM     17  C   UNL     1       1.792  -2.089   5.854  0.00  0.00    +0.006 C 
ATOM     18  C   UNL     1       2.731  -2.092   6.768  0.00  0.00    +0.007 C 
ENDBRANCH  16  17
ENDBRANCH  15  16
ENDBRANCH  13  15
ENDBRANCH  12  13
BRANCH   8  19
ATOM     19  C   UNL     1       0.295  -3.371  -4.625  0.00  0.00    -0.003 C 
BRANCH  19  20
ATOM     20  N   UNL     1       0.111  -4.764  -4.195  0.00  0.00    +0.388 N 
ATOM     21  H   UNL     1       0.699  -4.949  -3.396  0.00  0.00    -0.081 HD
BRANCH  20  22
ATOM     22  C   UNL     1      -1.295  -4.982  -3.829  0.00  0.00    -0.074 C 
ATOM     23  C   UNL     1      -1.681  -4.029  -2.695  0.00  0.00    -0.014 C 
ATOM     24  C   UNL     1      -2.186  -4.716  -5.044  0.00  0.00    -0.014 C 
ENDBRANCH  20  22
BRANCH  20  25
ATOM     25  C   UNL     1       0.477  -5.668  -5.293  0.00  0.00    -0.046 C 
BRANCH  25  26
ATOM     26  C   UNL     1       0.426  -7.116  -4.800  0.00  0.00    +0.102 C 
BRANCH  26  27
ATOM     27  O   UNL     1       1.344  -7.283  -3.718  0.00  0.00    -0.393 OA
ATOM     28  H   UNL     1       2.263  -7.093  -3.949  0.00  0.00    +0.210 HD
ENDBRANCH  26  27
BRANCH  26  29
ATOM     29  C   UNL     1       0.808  -8.057  -5.944  0.00  0.00    +0.064 C 
BRANCH  29  30
ATOM     30  C   UNL     1       0.640  -9.486  -5.495  0.00  0.00    -0.045 A 
ATOM     31  C   UNL     1       1.693 -10.152  -4.896  0.00  0.00    +0.004 A 
ATOM     32  C   UNL     1       1.538 -11.462  -4.485  0.00  0.00    +0.000 A 
ATOM     33  C   UNL     1       0.330 -12.107  -4.673  0.00  0.00    +0.000 A 
ATOM     34  C   UNL     1      -0.723 -11.442  -5.271  0.00  0.00    +0.000 A 
ATOM     35  C   UNL     1      -0.570 -10.130  -5.678  0.00  0.00    +0.004 A 
ENDBRANCH  29  30
ENDBRANCH  26  29
ENDBRANCH  25  26
ENDBRANCH  20  25
ENDBRANCH  19  20
ENDBRANCH   8  19
TORSDOF 12
