REMARK  Name = ZINC00038242
REMARK  5 active torsions:
REMARK  status: ('A' for Active; 'I' for Inactive)
REMARK    1  A    between atoms: C_3  and  C_8
REMARK    2  A    between atoms: C_5  and  O_7
REMARK    3  A    between atoms: C_8  and  C_10
REMARK    4  A    between atoms: C_8  and  N_44
REMARK    5  A    between atoms: C_19  and  O_20
REMARK                            x       y       z     vdW  Elec       q    Type
REMARK                         _______ _______ _______ _____ _____    ______ ____
ROOT
ATOM      1  C   UNL     1      -0.076   5.351   0.032  0.00  0.00    -0.003 C 
ENDROOT
BRANCH   1   2
ATOM      2  C   UNL     1      -0.322   5.788  -1.389  0.00  0.00    -0.013 A 
ATOM      3  C   UNL     1      -1.593   6.211  -1.766  0.00  0.00    +0.006 A 
ATOM      4  C   UNL     1      -1.848   6.613  -3.042  0.00  0.00    +0.010 A 
ATOM      5  C   UNL     1      -0.816   6.602  -3.995  0.00  0.00    +0.004 A 
ATOM      6  C   UNL     1      -1.040   7.010  -5.323  0.00  0.00    +0.011 A 
ATOM      7  C   UNL     1       0.010   6.973  -6.195  0.00  0.00    +0.020 A 
ATOM      8  C   UNL     1       1.260   6.540  -5.759  0.00  0.00    +0.111 A 
ATOM      9  N   UNL     1       1.465   6.160  -4.521  0.00  0.00    -0.251 NA
ATOM     10  C   UNL     1       0.480   6.172  -3.619  0.00  0.00    +0.112 A 
ATOM     11  C   UNL     1       0.708   5.768  -2.287  0.00  0.00    +0.145 A 
BRANCH  11  12
ATOM     12  O   UNL     1       1.943   5.356  -1.899  0.00  0.00    -0.504 OA
ATOM     13  H   UNL     1       2.093   4.407  -2.007  0.00  0.00    +0.292 HD
ENDBRANCH  11  12
ENDBRANCH   1   2
BRANCH   1  16
ATOM     14  C   UNL     1      -1.659   1.925   0.174  0.00  0.00    +0.004 A 
ATOM     15  C   UNL     1      -1.504   3.296   0.087  0.00  0.00    +0.002 A 
ATOM     16  C   UNL     1      -0.241   3.856   0.133  0.00  0.00    -0.053 A 
ATOM     17  C   UNL     1       0.870   3.047   0.272  0.00  0.00    +0.047 A 
ATOM     18  C   UNL     1       0.718   1.671   0.365  0.00  0.00    +0.117 A 
ATOM     19  C   UNL     1      -0.551   1.111   0.319  0.00  0.00    +0.045 A 
BRANCH  18  20
ATOM     20  O   UNL     1       1.809   0.873   0.502  0.00  0.00    -0.507 OA
ATOM     21  H   UNL     1       2.186   0.575  -0.337  0.00  0.00    +0.292 HD
ENDBRANCH  18  20
ENDBRANCH   1  16
BRANCH   1  26
ATOM     22  C   UNL     1      -0.865   5.561   2.325  0.00  0.00    -0.078 C 
ATOM     23  C   UNL     1      -1.542   6.687   3.146  0.00  0.00    -0.020 C 
ATOM     24  C   UNL     1      -1.163   7.963   2.360  0.00  0.00    -0.020 C 
ATOM     25  C   UNL     1      -0.830   7.475   0.938  0.00  0.00    -0.078 C 
ATOM     26  N   UNL     1      -1.048   6.028   0.942  0.00  0.00    +0.387 N 
ATOM     27  H   UNL     1      -2.003   5.820   0.629  0.00  0.00    -0.080 HD
ENDBRANCH   1  26
TORSDOF 5
