REMARK  Name = ZINC15067894
REMARK  6 active torsions:
REMARK  status: ('A' for Active; 'I' for Inactive)
REMARK    1  A    between atoms: C_1  and  C_2
REMARK    2  A    between atoms: C_2  and  N_3
REMARK    3  A    between atoms: C_5  and  C_9
REMARK    4  A    between atoms: C_6  and  C_8
REMARK    5  A    between atoms: C_9  and  N_10
REMARK    6  A    between atoms: C_23  and  C_25
REMARK                            x       y       z     vdW  Elec       q    Type
REMARK                         _______ _______ _______ _____ _____    ______ ____
ROOT
ATOM      1  N   UNL     1      -1.141   6.094   0.927  0.00  0.00    -0.286 NA
ATOM      2  C   UNL     1      -1.335   7.547   0.804  0.00  0.00    +0.090 C 
ATOM      3  C   UNL     1      -1.984   7.868  -0.549  0.00  0.00    +0.053 C 
ATOM      4  C   UNL     1      -1.212   7.140  -1.621  0.00  0.00    -0.016 A 
ATOM      5  C   UNL     1      -1.216   7.344  -3.052  0.00  0.00    +0.003 A 
ATOM      6  C   UNL     1      -1.902   8.235  -3.884  0.00  0.00    +0.010 A 
ATOM      7  C   UNL     1      -1.654   8.143  -5.231  0.00  0.00    +0.001 A 
ATOM      8  C   UNL     1      -0.767   7.216  -5.755  0.00  0.00    +0.002 A 
ATOM      9  C   UNL     1      -0.075   6.323  -4.956  0.00  0.00    +0.026 A 
ATOM     10  C   UNL     1      -0.307   6.393  -3.584  0.00  0.00    +0.047 A 
ATOM     11  N   UNL     1       0.196   5.678  -2.534  0.00  0.00    -0.356 N 
ATOM     12  H   UNL     1       0.928   4.878  -2.714  0.00  0.00    +0.166 HD
ATOM     13  C   UNL     1      -0.350   6.130  -1.363  0.00  0.00    +0.042 A 
ATOM     14  C   UNL     1      -0.074   5.619   0.031  0.00  0.00    +0.134 C 
ENDROOT
BRANCH  14  15
ATOM     15  C   UNL     1      -0.054   4.112   0.023  0.00  0.00    -0.024 A 
ATOM     16  C   UNL     1       1.153   3.438   0.009  0.00  0.00    +0.008 A 
ATOM     17  C   UNL     1       1.173   2.056   0.002  0.00  0.00    +0.038 A 
ATOM     18  C   UNL     1      -0.016   1.347   0.009  0.00  0.00    +0.123 A 
ATOM     19  C   UNL     1      -1.224   2.023   0.019  0.00  0.00    +0.038 A 
ATOM     20  C   UNL     1      -1.242   3.405   0.031  0.00  0.00    +0.008 A 
ATOM     21  F   UNL     1       0.002  -0.004   0.002  0.00  0.00    -0.205 F 
ENDBRANCH  14  15
BRANCH   1  22
ATOM     22  C   UNL     1      -0.870   5.710   2.318  0.00  0.00    +0.124 C 
BRANCH  22  25
ATOM     23  N   UNL     1      -2.706   7.840   4.640  0.00  0.00    -0.271 N 
ATOM     24  C   UNL     1      -1.585   7.528   3.958  0.00  0.00    +0.113 A 
ATOM     25  C   UNL     1      -1.840   6.415   3.232  0.00  0.00    +0.007 A 
ATOM     26  C   UNL     1      -3.165   6.037   3.474  0.00  0.00    +0.064 A 
ATOM     27  N   UNL     1      -3.683   6.887   4.323  0.00  0.00    -0.176 NA
ATOM     28  C   UNL     1      -3.872   4.853   2.866  0.00  0.00    +0.068 C 
BRANCH  23  30
ATOM     29  C   UNL     1      -4.075   9.812   5.110  0.00  0.00    +0.029 C 
ATOM     30  C   UNL     1      -2.873   8.974   5.552  0.00  0.00    +0.140 C 
ENDBRANCH  23  30
ENDBRANCH  22  25
ENDBRANCH   1  22
TORSDOF 4
