REMARK  Name = ZINC43318834
REMARK  6 active torsions:
REMARK  status: ('A' for Active; 'I' for Inactive)
REMARK    1  A    between atoms: C_1  and  O_2
REMARK    2  A    between atoms: O_2  and  C_3
REMARK    3  A    between atoms: C_7  and  N_9
REMARK    4  A    between atoms: N_9  and  S_10
REMARK    5  A    between atoms: S_10  and  C_13
REMARK    6  A    between atoms: N_19  and  N_20
REMARK                            x       y       z     vdW  Elec       q    Type
REMARK                         _______ _______ _______ _____ _____    ______ ____
ROOT
ATOM      1  S   UNL     1       1.950  -4.729  -3.637  0.00  0.00    +0.092 S 
ATOM      2  O   UNL     1       1.134  -4.331  -4.730  0.00  0.00    -0.148 OA
ATOM      3  O   UNL     1       3.352  -4.500  -3.610  0.00  0.00    -0.148 OA
ENDROOT
BRANCH   1   4
ATOM      4  C   UNL     1       1.719  -6.465  -3.442  0.00  0.00    +0.115 A 
ATOM      5  C   UNL     1       2.686  -7.245  -2.822  0.00  0.00    +0.046 A 
ATOM      6  C   UNL     1       2.474  -8.602  -2.684  0.00  0.00    +0.086 A 
ATOM      7  N   UNL     1       1.368  -9.163  -3.134  0.00  0.00    -0.349 N 
ATOM      8  C   UNL     1       0.423  -8.454  -3.732  0.00  0.00    +0.112 A 
ATOM      9  C   UNL     1       0.568  -7.081  -3.899  0.00  0.00    +0.071 A 
ATOM     10  N   UNL     1      -0.726  -9.087  -4.191  0.00  0.00    -0.269 N 
ATOM     11  H   UNL     1      -1.421  -8.572  -4.630  0.00  0.00    +0.167 HD
ATOM     12  H   UNL     1       1.245 -10.119  -3.025  0.00  0.00    +0.167 HD
BRANCH  10  13
ATOM     13  N   UNL     1      -0.876 -10.435  -4.025  0.00  0.00    -0.255 NA
ATOM     14  H   UNL     1      -1.756 -10.750  -4.407  0.00  0.00    +0.140 HD
ATOM     15  H   UNL     1      -0.103 -10.938  -4.434  0.00  0.00    +0.140 HD
ENDBRANCH  10  13
ENDBRANCH   1   4
BRANCH   1  16
ATOM     16  N   UNL     1       1.324  -3.998  -2.289  0.00  0.00    -0.096 NA
BRANCH  16  21
ATOM     17  C   UNL     1       1.860  -0.449  -3.095  0.00  0.00    +0.122 A 
ATOM     18  C   UNL     1       1.216   0.161  -2.028  0.00  0.00    +0.047 A 
ATOM     19  C   UNL     1       0.611  -0.608  -1.052  0.00  0.00    +0.025 A 
ATOM     20  C   UNL     1       0.645  -1.988  -1.137  0.00  0.00    +0.066 A 
ATOM     21  C   UNL     1       1.289  -2.603  -2.204  0.00  0.00    +0.096 A 
ATOM     22  C   UNL     1       1.892  -1.831  -3.187  0.00  0.00    +0.073 A 
ATOM     23 CL   UNL     1      -0.116  -2.951   0.091  0.00  0.00    -0.082 Cl
BRANCH  17  25
ATOM     24  C   UNL     1       2.383   1.728  -3.896  0.00  0.00    +0.277 C 
ATOM     25  O   UNL     1       2.454   0.310  -4.054  0.00  0.00    -0.495 OA
ENDBRANCH  17  25
ENDBRANCH  16  21
ENDBRANCH   1  16
TORSDOF 5
