REMARK  Name = ZINC27019165
REMARK  13 active torsions:
REMARK  status: ('A' for Active; 'I' for Inactive)
REMARK    1  A    between atoms: C_1  and  N_2
REMARK    2  A    between atoms: N_2  and  C_3
REMARK    3  A    between atoms: N_2  and  S_4
REMARK    4  A    between atoms: S_4  and  C_7
REMARK    5  A    between atoms: C_10  and  C_13
REMARK    6  A    between atoms: N_17  and  C_18
REMARK    7  A    between atoms: N_24  and  C_25
REMARK    8  A    between atoms: C_25  and  C_26
REMARK    9  A    between atoms: C_26  and  C_27
REMARK   10  A    between atoms: C_30  and  O_35
REMARK   11  A    between atoms: C_31  and  O_33
REMARK   12  A    between atoms: O_33  and  C_34
REMARK   13  A    between atoms: O_35  and  C_36
REMARK                            x       y       z     vdW  Elec       q    Type
REMARK                         _______ _______ _______ _____ _____    ______ ____
ROOT
ATOM      1  C   UNL     1       5.326   4.543  -1.431  0.00  0.00    +0.058 A 
ATOM      2  C   UNL     1       6.463   5.201  -1.127  0.00  0.00    +0.075 A 
ATOM      3  S   UNL     1       7.675   3.890  -1.160  0.00  0.00    -0.059 S 
ATOM      4  C   UNL     1       6.575   2.546  -1.573  0.00  0.00    +0.152 A 
ATOM      5  N   UNL     1       6.850   1.268  -1.753  0.00  0.00    -0.336 N 
ATOM      6  N   UNL     1       5.365   3.193  -1.655  0.00  0.00    -0.320 N 
ATOM      7  H   UNL     1       6.063   0.577  -2.088  0.00  0.00    +0.168 HD
ENDROOT
BRANCH   1  11
ATOM      8  C   UNL     1       1.642   6.644  -1.679  0.00  0.00    +0.105 A 
ATOM      9  C   UNL     1       2.431   6.766  -0.548  0.00  0.00    +0.029 A 
ATOM     10  C   UNL     1       3.628   6.087  -0.462  0.00  0.00    +0.012 A 
ATOM     11  C   UNL     1       4.043   5.274  -1.518  0.00  0.00    -0.001 A 
ATOM     12  C   UNL     1       3.246   5.159  -2.657  0.00  0.00    +0.012 A 
ATOM     13  C   UNL     1       2.048   5.839  -2.729  0.00  0.00    +0.029 A 
BRANCH   8  14
ATOM     14  S   UNL     1       0.114   7.514  -1.781  0.00  0.00    +0.060 S 
ATOM     15  O   UNL     1      -0.696   6.806  -2.708  0.00  0.00    -0.153 OA
ATOM     16  O   UNL     1      -0.300   7.767  -0.445  0.00  0.00    -0.153 OA
BRANCH  14  18
ATOM     17  C   UNL     1       0.375   9.151  -3.919  0.00  0.00    +0.131 C 
ATOM     18  N   UNL     1       0.435   8.989  -2.464  0.00  0.00    -0.183 NA
ATOM     19  C   UNL     1       0.779  10.130  -1.613  0.00  0.00    +0.131 C 
ENDBRANCH  14  18
ENDBRANCH   8  14
ENDBRANCH   1  11
BRANCH   5  20
ATOM     20  C   UNL     1       8.115   0.802  -1.522  0.00  0.00    +0.041 A 
ATOM     21  C   UNL     1       9.066   0.816  -2.546  0.00  0.00    +0.025 A 
ATOM     22  C   UNL     1      10.341   0.350  -2.304  0.00  0.00    +0.002 A 
ATOM     23  C   UNL     1      10.677  -0.142  -1.054  0.00  0.00    +0.000 A 
ATOM     24  C   UNL     1       9.738  -0.164  -0.037  0.00  0.00    +0.002 A 
ATOM     25  C   UNL     1       8.461   0.304  -0.263  0.00  0.00    +0.025 A 
ENDBRANCH   5  20
BRANCH   6  26
ATOM     26  C   UNL     1       4.142   2.454  -1.982  0.00  0.00    +0.129 C 
BRANCH  26  27
ATOM     27  C   UNL     1       3.415   2.076  -0.691  0.00  0.00    +0.057 C 
BRANCH  27  28
ATOM     28  C   UNL     1       2.157   1.316  -1.027  0.00  0.00    -0.042 A 
ATOM     29  C   UNL     1       2.193  -0.061  -1.138  0.00  0.00    +0.007 A 
ATOM     30  C   UNL     1       1.042  -0.763  -1.447  0.00  0.00    +0.049 A 
ATOM     31  C   UNL     1      -0.150  -0.086  -1.645  0.00  0.00    +0.161 A 
ATOM     32  C   UNL     1      -0.186   1.301  -1.533  0.00  0.00    +0.162 A 
ATOM     33  C   UNL     1       0.971   1.998  -1.223  0.00  0.00    +0.053 A 
BRANCH  32  34
ATOM     34  O   UNL     1      -1.352   1.971  -1.732  0.00  0.00    -0.491 OA
ATOM     35  C   UNL     1      -1.314   3.393  -1.601  0.00  0.00    +0.277 C 
ENDBRANCH  32  34
BRANCH  31  36
ATOM     36  O   UNL     1      -1.282  -0.774  -1.950  0.00  0.00    -0.491 OA
ATOM     37  C   UNL     1      -1.171  -2.195  -2.049  0.00  0.00    +0.277 C 
ENDBRANCH  31  36
ENDBRANCH  27  28
ENDBRANCH  26  27
ENDBRANCH   6  26
TORSDOF 9
