REMARK  Name = ZINC35465924
REMARK  17 active torsions:
REMARK  status: ('A' for Active; 'I' for Inactive)
REMARK    1  A    between atoms: C_1  and  C_2
REMARK    2  A    between atoms: C_3  and  C_10
REMARK    3  A    between atoms: C_4  and  C_8
REMARK    4  A    between atoms: C_4  and  C_9
REMARK    5  A    between atoms: C_10  and  O_12
REMARK    6  A    between atoms: O_12  and  C_13
REMARK    7  A    between atoms: C_15  and  O_44
REMARK    8  A    between atoms: C_17  and  O_43
REMARK    9  A    between atoms: C_19  and  O_42
REMARK   10  A    between atoms: C_21  and  C_24
REMARK   11  A    between atoms: C_24  and  O_25
REMARK   12  A    between atoms: O_25  and  C_26
REMARK   13  A    between atoms: C_28  and  O_41
REMARK   14  A    between atoms: C_30  and  O_40
REMARK   15  A    between atoms: C_32  and  O_39
REMARK   16  A    between atoms: C_34  and  C_37
REMARK   17  A    between atoms: C_37  and  O_38
REMARK                            x       y       z     vdW  Elec       q    Type
REMARK                         _______ _______ _______ _____ _____    ______ ____
ROOT
ATOM      1  C   UNL     1      -4.821  -0.430  -0.290  0.00  0.00    +0.343 C 
ATOM      2  C   UNL     1      -5.921  -1.481  -0.461  0.00  0.00    +0.214 C 
ATOM      3  C   UNL     1      -5.957  -2.378   0.780  0.00  0.00    +0.180 C 
ATOM      4  C   UNL     1      -6.174  -1.505   2.020  0.00  0.00    +0.177 C 
ATOM      5  C   UNL     1      -5.065  -0.453   2.095  0.00  0.00    +0.179 C 
ATOM      6  O   UNL     1      -5.067   0.326   0.897  0.00  0.00    -0.331 OA
ENDROOT
BRANCH   4   7
ATOM      7  O   UNL     1      -7.444  -0.856   1.931  0.00  0.00    -0.386 OA
ATOM      8  H   UNL     1      -8.194  -1.464   1.875  0.00  0.00    +0.210 HD
ENDBRANCH   4   7
BRANCH   3   9
ATOM      9  O   UNL     1      -7.027  -3.317   0.661  0.00  0.00    -0.386 OA
ATOM     10  H   UNL     1      -6.956  -3.899  -0.108  0.00  0.00    +0.210 HD
ENDBRANCH   3   9
BRANCH   2  11
ATOM     11  O   UNL     1      -7.183  -0.831  -0.619  0.00  0.00    -0.383 OA
ATOM     12  H   UNL     1      -7.230  -0.242  -1.385  0.00  0.00    +0.210 HD
ENDBRANCH   2  11
BRANCH   1  13
ATOM     13  O   UNL     1      -3.553  -1.080  -0.188  0.00  0.00    -0.429 OA
BRANCH  13  14
ATOM     14  C   UNL     1      -2.461  -0.289  -0.136  0.00  0.00    +0.338 C 
ATOM     15  O   UNL     1      -2.584   0.921  -0.177  0.00  0.00    -0.245 OA
BRANCH  14  18
ATOM     16  C   UNL     1      -1.267  -1.336  -2.466  0.00  0.00    +0.044 C 
ATOM     17  C   UNL     1      -0.578  -1.397  -1.127  0.00  0.00    -0.040 C 
ATOM     18  C   UNL     1      -1.170  -0.867  -0.034  0.00  0.00    +0.045 C 
ATOM     19  C   UNL     1      -0.458  -0.890   1.294  0.00  0.00    +0.001 C 
ATOM     20  C   UNL     1       0.357  -2.175   1.426  0.00  0.00    +0.038 C 
ATOM     21  C   UNL     1       1.194  -2.389   0.192  0.00  0.00    -0.026 C 
ATOM     22  C   UNL     1       0.733  -2.035  -1.005  0.00  0.00    -0.001 C 
ATOM     23  C   UNL     1       0.478   0.317   1.389  0.00  0.00    +0.016 C 
ATOM     24  C   UNL     1      -1.487  -0.823   2.424  0.00  0.00    +0.016 C 
ENDBRANCH  14  18
ENDBRANCH  13  14
ENDBRANCH   1  13
BRANCH   5  25
ATOM     25  C   UNL     1      -5.308   0.460   3.298  0.00  0.00    +0.197 C 
BRANCH  25  26
ATOM     26  O   UNL     1      -4.213   1.367   3.437  0.00  0.00    -0.346 OA
BRANCH  26  27
ATOM     27  C   UNL     1      -4.342   2.270   4.537  0.00  0.00    +0.282 C 
ATOM     28  C   UNL     1      -3.255   3.345   4.446  0.00  0.00    +0.201 C 
ATOM     29  C   UNL     1      -3.362   4.272   5.660  0.00  0.00    +0.179 C 
ATOM     30  C   UNL     1      -3.247   3.437   6.939  0.00  0.00    +0.177 C 
ATOM     31  C   UNL     1      -4.334   2.359   6.934  0.00  0.00    +0.178 C 
ATOM     32  O   UNL     1      -4.196   1.551   5.763  0.00  0.00    -0.341 OA
BRANCH  30  33
ATOM     33  O   UNL     1      -1.960   2.819   6.991  0.00  0.00    -0.386 OA
ATOM     34  H   UNL     1      -1.223   3.445   6.993  0.00  0.00    +0.210 HD
ENDBRANCH  30  33
BRANCH  29  35
ATOM     35  O   UNL     1      -2.307   5.236   5.620  0.00  0.00    -0.386 OA
ATOM     36  H   UNL     1      -2.316   5.796   4.832  0.00  0.00    +0.210 HD
ENDBRANCH  29  35
BRANCH  28  37
ATOM     37  O   UNL     1      -1.968   2.723   4.430  0.00  0.00    -0.384 OA
ATOM     38  H   UNL     1      -1.833   2.117   3.688  0.00  0.00    +0.210 HD
ENDBRANCH  28  37
BRANCH  31  39
ATOM     39  C   UNL     1      -4.189   1.482   8.180  0.00  0.00    +0.190 C 
BRANCH  39  40
ATOM     40  O   UNL     1      -5.271   0.551   8.235  0.00  0.00    -0.392 OA
ATOM     41  H   UNL     1      -5.243  -0.039   9.001  0.00  0.00    +0.210 HD
ENDBRANCH  39  40
ENDBRANCH  31  39
ENDBRANCH  26  27
ENDBRANCH  25  26
ENDBRANCH   5  25
TORSDOF 14
