REMARK  Name = ZINC29473206
REMARK  9 active torsions:
REMARK  status: ('A' for Active; 'I' for Inactive)
REMARK    1  A    between atoms: C_1  and  C_2
REMARK    2  A    between atoms: C_2  and  C_3
REMARK    3  A    between atoms: C_3  and  C_5
REMARK    4  A    between atoms: C_3  and  N_6
REMARK    5  A    between atoms: C_7  and  S_9
REMARK    6  A    between atoms: S_9  and  C_10
REMARK    7  A    between atoms: C_10  and  C_11
REMARK    8  A    between atoms: C_15  and  C_24
REMARK    9  A    between atoms: N_26  and  C_27
REMARK                            x       y       z     vdW  Elec       q    Type
REMARK                         _______ _______ _______ _____ _____    ______ ____
ROOT
ATOM      1  C   UNL     1      -1.386  -4.470   2.400  0.00  0.00    +0.230 C 
ATOM      2  O   UNL     1      -1.343  -3.304   2.067  0.00  0.00    -0.274 OA
ATOM      3  N   UNL     1      -0.886  -4.848   3.592  0.00  0.00    -0.264 N 
ATOM      4  C   UNL     1      -0.845  -6.267   3.986  0.00  0.00    +0.168 C 
ATOM      5  C   UNL     1      -1.267  -6.352   5.460  0.00  0.00    +0.276 C 
ATOM      6  O   UNL     1      -0.378  -5.550   6.240  0.00  0.00    -0.476 OA
ATOM      7  C   UNL     1      -0.141  -4.278   5.823  0.00  0.00    +0.143 A 
ATOM      8  C   UNL     1      -0.380  -3.904   4.502  0.00  0.00    +0.078 A 
ATOM      9  C   UNL     1      -0.134  -2.605   4.092  0.00  0.00    +0.027 A 
ATOM     10  C   UNL     1       0.356  -1.678   4.994  0.00  0.00    +0.002 A 
ATOM     11  C   UNL     1       0.596  -2.046   6.304  0.00  0.00    +0.004 A 
ATOM     12  C   UNL     1       0.349  -3.341   6.721  0.00  0.00    +0.047 A 
ENDROOT
BRANCH   5  13
ATOM     13  C   UNL     1      -1.194  -7.784   5.924  0.00  0.00    +0.255 C 
ATOM     14  O   UNL     1      -0.398  -8.104   6.781  0.00  0.00    -0.272 OA
ATOM     15  N   UNL     1      -2.015  -8.709   5.388  0.00  0.00    -0.315 N 
ATOM     16  C   UNL     1      -1.945 -10.101   5.839  0.00  0.00    +0.128 C 
ATOM     17  H   UNL     1      -2.737  -8.418   4.611  0.00  0.00    +0.148 HD
ENDBRANCH   5  13
BRANCH   1  18
ATOM     18  C   UNL     1      -1.998  -5.494   1.479  0.00  0.00    +0.173 C 
BRANCH  18  19
ATOM     19  S   UNL     1      -2.704  -4.662   0.035  0.00  0.00    -0.084 S 
BRANCH  19  21
ATOM     20  N   UNL     1      -3.188  -7.255  -0.352  0.00  0.00    -0.366 N 
ATOM     21  C   UNL     1      -3.332  -6.055  -0.843  0.00  0.00    +0.126 C 
ATOM     22  N   UNL     1      -3.975  -5.876  -2.046  0.00  0.00    -0.339 N 
ATOM     23  H   UNL     1      -4.097  -4.864  -2.460  0.00  0.00    +0.144 HD
ATOM     24  H   UNL     1      -4.367  -6.746  -2.595  0.00  0.00    +0.144 HD
ATOM     25  H   UNL     1      -2.755  -7.391   0.650  0.00  0.00    +0.162 HD
BRANCH  20  26
ATOM     26  C   UNL     1      -3.602  -8.421  -1.136  0.00  0.00    +0.078 C 
ATOM     27  C   UNL     1      -2.374  -9.266  -1.481  0.00  0.00    +0.030 C 
BRANCH  26  29
ATOM     28  C   UNL     1      -5.866  -8.459  -0.080  0.00  0.00    +0.006 C 
ATOM     29  C   UNL     1      -4.585  -9.261  -0.319  0.00  0.00    +0.021 C 
ENDBRANCH  26  29
ENDBRANCH  20  26
ENDBRANCH  19  21
ENDBRANCH  18  19
ENDBRANCH   1  18
TORSDOF 6
