REMARK  Name = ZINC17242384
REMARK  7 active torsions:
REMARK  status: ('A' for Active; 'I' for Inactive)
REMARK    1  A    between atoms: C_1  and  C_2
REMARK    2  A    between atoms: C_2  and  C_35
REMARK    3  A    between atoms: C_6  and  C_25
REMARK    4  A    between atoms: C_13  and  S_17
REMARK    5  A    between atoms: S_17  and  C_18
REMARK    6  A    between atoms: C_18  and  C_19
REMARK    7  A    between atoms: C_29  and  O_31
REMARK                            x       y       z     vdW  Elec       q    Type
REMARK                         _______ _______ _______ _____ _____    ______ ____
ROOT
ATOM      1  C   UNL     1      11.168  -1.329   2.219  0.00  0.00    +0.011 C 
ATOM      2  C   UNL     1      10.982  -2.648   2.972  0.00  0.00    -0.023 C 
ATOM      3  C   UNL     1       9.500  -3.029   2.986  0.00  0.00    +0.058 C 
ATOM      4  C   UNL     1       9.012  -3.224   1.570  0.00  0.00    +0.017 C 
ATOM      5  C   UNL     1       9.842  -3.671   0.604  0.00  0.00    +0.024 C 
ATOM      6  C   UNL     1       9.357  -3.880  -0.808  0.00  0.00    +0.092 C 
ATOM      7  C   UNL     1       8.071  -3.150  -1.058  0.00  0.00    +0.069 A 
ATOM      8  C   UNL     1       7.638  -2.908  -2.367  0.00  0.00    +0.258 A 
ATOM      9  O   UNL     1       8.302  -3.283  -3.320  0.00  0.00    -0.267 OA
ATOM     10  N   UNL     1       6.474  -2.252  -2.555  0.00  0.00    -0.302 N 
ATOM     11  H   UNL     1       6.159  -2.074  -3.454  0.00  0.00    +0.171 HD
ATOM     12  C   UNL     1       5.740  -1.842  -1.483  0.00  0.00    +0.171 A 
ATOM     13  N   UNL     1       6.146  -2.063  -0.249  0.00  0.00    -0.208 NA
ATOM     14  C   UNL     1       7.291  -2.709  -0.004  0.00  0.00    +0.135 A 
ATOM     15  N   UNL     1       7.704  -2.933   1.295  0.00  0.00    -0.302 N 
ATOM     16  C   UNL     1      11.190  -3.955   0.884  0.00  0.00    +0.162 C 
ATOM     17  O   UNL     1      11.909  -4.365  -0.006  0.00  0.00    -0.292 OA
ATOM     18  C   UNL     1      11.761  -3.761   2.262  0.00  0.00    +0.086 C 
ATOM     19  C   UNL     1      11.489  -2.499   4.407  0.00  0.00    +0.011 C 
ATOM     20  H   UNL     1       7.060  -2.884   2.019  0.00  0.00    +0.153 HD
ENDROOT
BRANCH   6  21
ATOM     21  C   UNL     1       9.142  -5.354  -1.040  0.00  0.00    -0.032 A 
ATOM     22  C   UNL     1       8.208  -6.042  -0.288  0.00  0.00    +0.005 A 
ATOM     23  C   UNL     1       8.007  -7.394  -0.499  0.00  0.00    +0.004 A 
ATOM     24  C   UNL     1       8.740  -8.060  -1.463  0.00  0.00    +0.045 A 
ATOM     25  C   UNL     1       9.677  -7.371  -2.219  0.00  0.00    +0.117 A 
ATOM     26  C   UNL     1       9.872  -6.013  -2.009  0.00  0.00    +0.050 A 
BRANCH  25  27
ATOM     27  O   UNL     1      10.398  -8.024  -3.168  0.00  0.00    -0.507 OA
ATOM     28  H   UNL     1       9.986  -8.026  -4.043  0.00  0.00    +0.292 HD
ENDBRANCH  25  27
ENDBRANCH   6  21
BRANCH  12  29
ATOM     29  S   UNL     1       4.220  -0.992  -1.753  0.00  0.00    -0.083 S 
BRANCH  29  30
ATOM     30  C   UNL     1       3.711  -0.707  -0.039  0.00  0.00    +0.112 C 
BRANCH  30  31
ATOM     31  C   UNL     1       2.396   0.029  -0.022  0.00  0.00    -0.037 A 
ATOM     32  C   UNL     1       1.208  -0.679  -0.014  0.00  0.00    +0.004 A 
ATOM     33  C   UNL     1       0.002  -0.004   0.002  0.00  0.00    +0.000 A 
ATOM     34  C   UNL     1      -0.017   1.378   0.010  0.00  0.00    +0.000 A 
ATOM     35  C   UNL     1       1.171   2.086   0.002  0.00  0.00    +0.000 A 
ATOM     36  C   UNL     1       2.377   1.411  -0.014  0.00  0.00    +0.004 A 
ENDBRANCH  30  31
ENDBRANCH  29  30
ENDBRANCH  12  29
TORSDOF 5
