REMARK  Name = ZINC08872236
REMARK  5 active torsions:
REMARK  status: ('A' for Active; 'I' for Inactive)
REMARK    1  A    between atoms: C_4  and  N_7
REMARK    2  A    between atoms: N_14  and  N_15
REMARK    3  A    between atoms: C_16  and  C_17
REMARK    4  A    between atoms: C_21  and  N_23
REMARK    5  A    between atoms: N_27  and  C_28
REMARK                            x       y       z     vdW  Elec       q    Type
REMARK                         _______ _______ _______ _____ _____    ______ ____
ROOT
ATOM      1  N   UNL     1      -1.300   5.455   0.267  0.00  0.00    -0.283 N 
ATOM      2  C   UNL     1       0.037   5.104   0.244  0.00  0.00    +0.225 A 
ATOM      3  N   UNL     1       0.972   6.049   0.260  0.00  0.00    -0.181 NA
ATOM      4  C   UNL     1       2.258   5.711   0.238  0.00  0.00    +0.225 A 
ATOM      5  N   UNL     1       2.608   4.430   0.200  0.00  0.00    -0.179 NA
ATOM      6  C   UNL     1       1.673   3.485   0.184  0.00  0.00    +0.241 A 
ATOM      7  N   UNL     1       0.387   3.823   0.201  0.00  0.00    -0.179 NA
ATOM      8  N   UNL     1       2.037   2.153   0.144  0.00  0.00    -0.205 N 
ATOM      9  N   UNL     1       3.230   6.693   0.254  0.00  0.00    -0.283 N 
ATOM     10  H   UNL     1      -1.555   6.384   0.379  0.00  0.00    +0.155 HD
ATOM     11  H   UNL     1       2.969   1.908   0.038  0.00  0.00    +0.177 HD
ATOM     12  H   UNL     1       2.976   7.628   0.201  0.00  0.00    +0.155 HD
ENDROOT
BRANCH   1  16
ATOM     13  C   UNL     1      -4.230   2.524  -0.146  0.00  0.00    +0.000 A 
ATOM     14  C   UNL     1      -4.462   3.622   0.661  0.00  0.00    +0.002 A 
ATOM     15  C   UNL     1      -3.492   4.596   0.800  0.00  0.00    +0.023 A 
ATOM     16  C   UNL     1      -2.283   4.471   0.128  0.00  0.00    +0.034 A 
ATOM     17  C   UNL     1      -2.055   3.369  -0.686  0.00  0.00    +0.023 A 
ATOM     18  C   UNL     1      -3.027   2.396  -0.817  0.00  0.00    +0.002 A 
ENDBRANCH   1  16
BRANCH   9  19
ATOM     19  C   UNL     1       4.580   6.339   0.349  0.00  0.00    +0.034 A 
ATOM     20  C   UNL     1       4.958   5.236   1.103  0.00  0.00    +0.023 A 
ATOM     21  C   UNL     1       6.292   4.885   1.190  0.00  0.00    +0.002 A 
ATOM     22  C   UNL     1       7.250   5.638   0.536  0.00  0.00    +0.000 A 
ATOM     23  C   UNL     1       6.877   6.741  -0.210  0.00  0.00    +0.002 A 
ATOM     24  C   UNL     1       5.545   7.093  -0.306  0.00  0.00    +0.023 A 
ENDBRANCH   9  19
BRANCH   8  25
ATOM     25  N   UNL     1       1.059   1.156   0.259  0.00  0.00    -0.188 NA
ATOM     26  C   UNL     1       1.409  -0.092   0.313  0.00  0.00    +0.138 C 
BRANCH  26  27
ATOM     27  C   UNL     1       0.389  -1.135   0.536  0.00  0.00    -0.003 A 
ATOM     28  C   UNL     1      -0.964  -0.791   0.598  0.00  0.00    +0.011 A 
ATOM     29  C   UNL     1      -1.912  -1.771   0.802  0.00  0.00    +0.018 A 
ATOM     30  C   UNL     1      -1.525  -3.092   0.956  0.00  0.00    +0.048 A 
ATOM     31  C   UNL     1      -0.186  -3.438   0.901  0.00  0.00    +0.141 A 
ATOM     32  C   UNL     1       0.773  -2.469   0.693  0.00  0.00    +0.043 A 
ATOM     33 BR   UNL     1      -2.832  -4.428   1.242  0.00  0.00    -0.048 Br
BRANCH  31  34
ATOM     34  N   UNL     1       0.218  -4.853   1.067  0.00  0.00    +0.058 N 
ATOM     35  O   UNL     1       1.396  -5.159   1.019  0.00  0.00    -0.126 OA
ATOM     36  O   UNL     1      -0.627  -5.710   1.251  0.00  0.00    -0.126 OA
ENDBRANCH  31  34
ENDBRANCH  26  27
ENDBRANCH   8  25
TORSDOF 5
