REMARK  Name = ZINC13146161
REMARK  9 active torsions:
REMARK  status: ('A' for Active; 'I' for Inactive)
REMARK    1  A    between atoms: C_1  and  O_2
REMARK    2  A    between atoms: O_2  and  C_3
REMARK    3  A    between atoms: C_5  and  C_13
REMARK    4  A    between atoms: C_7  and  O_11
REMARK    5  A    between atoms: C_8  and  O_9
REMARK    6  A    between atoms: O_9  and  C_10
REMARK    7  A    between atoms: O_11  and  C_12
REMARK    8  A    between atoms: C_14  and  C_28
REMARK    9  A    between atoms: C_15  and  C_21
REMARK                            x       y       z     vdW  Elec       q    Type
REMARK                         _______ _______ _______ _____ _____    ______ ____
ROOT
ATOM      1  C   UNL     1      -5.230  -0.181   0.188  0.00  0.00    +0.049 C 
ATOM      2  C   UNL     1      -6.372  -0.908   0.327  0.00  0.00    +0.041 C 
ATOM      3  C   UNL     1      -7.671  -0.149   0.503  0.00  0.00    +0.138 C 
ATOM      4  N   UNL     1      -7.595   1.321   0.508  0.00  0.00    -0.315 N 
ATOM      5  C   UNL     1      -6.392   1.907   0.359  0.00  0.00    +0.135 C 
ATOM      6  S   UNL     1      -6.299   3.616   0.365  0.00  0.00    -0.019 S 
ATOM      7  N   UNL     1      -5.264   1.200   0.212  0.00  0.00    -0.296 N 
ATOM      8  H   UNL     1      -8.396   1.857   0.616  0.00  0.00    +0.149 HD
ATOM      9  H   UNL     1      -4.428   1.682   0.113  0.00  0.00    +0.154 HD
ENDROOT
BRANCH   2  10
ATOM     10  C   UNL     1      -6.346  -2.326   0.309  0.00  0.00    +0.139 A 
ATOM     11  N   UNL     1      -5.689  -3.084   1.162  0.00  0.00    -0.228 NA
ATOM     12  C   UNL     1      -5.884  -4.389   0.853  0.00  0.00    +0.089 A 
ATOM     13  C   UNL     1      -5.429  -5.586   1.419  0.00  0.00    +0.030 A 
ATOM     14  C   UNL     1      -5.806  -6.789   0.867  0.00  0.00    +0.002 A 
ATOM     15  C   UNL     1      -6.635  -6.825  -0.245  0.00  0.00    +0.002 A 
ATOM     16  C   UNL     1      -7.092  -5.655  -0.815  0.00  0.00    +0.028 A 
ATOM     17  C   UNL     1      -6.723  -4.433  -0.274  0.00  0.00    +0.066 A 
ATOM     18  N   UNL     1      -7.008  -3.118  -0.597  0.00  0.00    -0.338 N 
ATOM     19  H   UNL     1      -7.568  -2.813  -1.328  0.00  0.00    +0.167 HD
ENDBRANCH   2  10
BRANCH   3  20
ATOM     20  C   UNL     1      -8.291  -0.585   1.806  0.00  0.00    -0.023 A 
ATOM     21  C   UNL     1      -7.841  -0.050   2.998  0.00  0.00    +0.007 A 
ATOM     22  C   UNL     1      -8.408  -0.449   4.193  0.00  0.00    +0.020 A 
ATOM     23  C   UNL     1      -9.427  -1.385   4.196  0.00  0.00    +0.041 A 
ATOM     24  C   UNL     1      -9.877  -1.921   3.003  0.00  0.00    +0.020 A 
ATOM     25  C   UNL     1      -9.312  -1.516   1.808  0.00  0.00    +0.007 A 
ATOM     26 CL   UNL     1     -10.140  -1.888   5.697  0.00  0.00    -0.084 Cl
ENDBRANCH   3  20
BRANCH   1  29
ATOM     27  C   UNL     1      -2.607  -2.550  -1.089  0.00  0.00    +0.166 A 
ATOM     28  C   UNL     1      -3.817  -1.901  -0.928  0.00  0.00    +0.059 A 
ATOM     29  C   UNL     1      -3.939  -0.877   0.014  0.00  0.00    +0.004 A 
ATOM     30  C   UNL     1      -2.838  -0.511   0.792  0.00  0.00    +0.059 A 
ATOM     31  C   UNL     1      -1.630  -1.164   0.627  0.00  0.00    +0.166 A 
ATOM     32  C   UNL     1      -1.513  -2.188  -0.309  0.00  0.00    +0.204 A 
BRANCH  27  34
ATOM     33  C   UNL     1      -3.651  -3.867  -2.772  0.00  0.00    +0.277 C 
ATOM     34  O   UNL     1      -2.487  -3.547  -2.006  0.00  0.00    -0.491 OA
ENDBRANCH  27  34
BRANCH  32  35
ATOM     35  O   UNL     1      -0.325  -2.832  -0.465  0.00  0.00    -0.488 OA
ATOM     36  C   UNL     1       0.587  -2.288  -1.420  0.00  0.00    +0.277 C 
ENDBRANCH  32  35
BRANCH  31  37
ATOM     37  O   UNL     1      -0.557  -0.808   1.383  0.00  0.00    -0.491 OA
ATOM     38  C   UNL     1      -0.777   0.166   2.405  0.00  0.00    +0.277 C 
ENDBRANCH  31  37
ENDBRANCH   1  29
TORSDOF 6
