REMARK  Name = ZINC12888908
REMARK  14 active torsions:
REMARK  status: ('A' for Active; 'I' for Inactive)
REMARK    1  A    between atoms: C_1  and  C_2
REMARK    2  A    between atoms: C_2  and  C_3
REMARK    3  A    between atoms: C_3  and  C_4
REMARK    4  A    between atoms: C_4  and  N_5
REMARK    5  A    between atoms: C_6  and  N_37
REMARK    6  A    between atoms: C_7  and  N_14
REMARK    7  A    between atoms: N_14  and  C_15
REMARK    8  A    between atoms: C_15  and  C_16
REMARK    9  A    between atoms: C_21  and  O_22
REMARK   10  A    between atoms: O_22  and  C_23
REMARK   11  A    between atoms: C_24  and  C_26
REMARK   12  A    between atoms: C_26  and  C_28
REMARK   13  A    between atoms: C_26  and  O_29
REMARK   14  A    between atoms: O_29  and  C_30
REMARK                            x       y       z     vdW  Elec       q    Type
REMARK                         _______ _______ _______ _____ _____    ______ ____
ROOT
ATOM      1  N   UNL     1      -5.529  -3.337   2.530  0.00  0.00    -0.257 N 
ATOM      2  C   UNL     1      -4.629  -3.304   3.535  0.00  0.00    +0.261 C 
ATOM      3  O   UNL     1      -4.933  -3.716   4.635  0.00  0.00    -0.271 OA
ENDROOT
BRANCH   1   6
ATOM      4  N   UNL     1      -4.851  -3.000  -1.065  0.00  0.00    -0.280 N 
ATOM      5  C   UNL     1      -5.169  -3.572   0.145  0.00  0.00    +0.127 A 
ATOM      6  C   UNL     1      -5.206  -2.781   1.275  0.00  0.00    +0.140 A 
ATOM      7  C   UNL     1      -4.916  -1.409   1.153  0.00  0.00    +0.277 A 
ATOM      8  O   UNL     1      -4.941  -0.687   2.136  0.00  0.00    -0.266 OA
ATOM      9  N   UNL     1      -4.610  -0.898  -0.056  0.00  0.00    -0.273 N 
ATOM     10  H   UNL     1      -4.409   0.047  -0.141  0.00  0.00    +0.173 HD
ATOM     11  C   UNL     1      -4.574  -1.686  -1.145  0.00  0.00    +0.331 A 
ATOM     12  O   UNL     1      -4.290  -1.201  -2.224  0.00  0.00    -0.246 OA
BRANCH   5  13
ATOM     13  N   UNL     1      -5.448  -4.915   0.227  0.00  0.00    -0.343 N 
ATOM     14  H   UNL     1      -5.493  -5.451  -0.580  0.00  0.00    +0.144 HD
ATOM     15  H   UNL     1      -5.599  -5.327   1.092  0.00  0.00    +0.144 HD
ENDBRANCH   5  13
BRANCH   4  16
ATOM     16  C   UNL     1      -4.808  -3.828  -2.273  0.00  0.00    +0.128 C 
BRANCH  16  17
ATOM     17  C   UNL     1      -3.399  -4.396  -2.452  0.00  0.00    +0.021 C 
BRANCH  17  19
ATOM     18  C   UNL     1      -1.945  -5.829  -3.893  0.00  0.00    +0.004 C 
ATOM     19  C   UNL     1      -3.354  -5.261  -3.714  0.00  0.00    -0.002 C 
ENDBRANCH  17  19
ENDBRANCH  16  17
ENDBRANCH   4  16
ENDBRANCH   1   6
BRANCH   2  20
ATOM     20  C   UNL     1      -3.247  -2.755   3.291  0.00  0.00    +0.256 C 
ATOM     21  C   UNL     1      -2.457  -3.732   2.418  0.00  0.00    +0.062 C 
BRANCH  20  22
ATOM     22  O   UNL     1      -2.576  -2.582   4.540  0.00  0.00    -0.480 OA
BRANCH  22  23
ATOM     23  C   UNL     1      -1.578  -1.660   4.582  0.00  0.00    +0.122 A 
ATOM     24  C   UNL     1      -1.180  -1.015   3.421  0.00  0.00    +0.047 A 
ATOM     25  C   UNL     1      -0.165  -0.078   3.465  0.00  0.00    +0.023 A 
ATOM     26  C   UNL     1       0.453   0.216   4.667  0.00  0.00    +0.041 A 
ATOM     27  C   UNL     1       0.058  -0.427   5.827  0.00  0.00    +0.023 A 
ATOM     28  C   UNL     1      -0.961  -1.359   5.787  0.00  0.00    +0.047 A 
ATOM     29 CL   UNL     1       1.728   1.394   4.721  0.00  0.00    -0.084 Cl
ENDBRANCH  22  23
ENDBRANCH  20  22
ENDBRANCH   2  20
BRANCH   1  30
ATOM     30  C   UNL     1      -6.842  -3.951   2.743  0.00  0.00    +0.152 C 
BRANCH  30  31
ATOM     31  C   UNL     1      -7.818  -2.901   3.209  0.00  0.00    +0.012 A 
ATOM     32  C   UNL     1      -8.132  -2.796   4.550  0.00  0.00    +0.009 A 
ATOM     33  C   UNL     1      -9.027  -1.833   4.978  0.00  0.00    +0.001 A 
ATOM     34  C   UNL     1      -9.611  -0.974   4.065  0.00  0.00    +0.004 A 
ATOM     35  C   UNL     1      -9.300  -1.075   2.723  0.00  0.00    +0.046 A 
ATOM     36  C   UNL     1      -8.398  -2.037   2.292  0.00  0.00    +0.125 A 
BRANCH  36  37
ATOM     37  O   UNL     1      -8.086  -2.135   0.973  0.00  0.00    -0.495 OA
ATOM     38  C   UNL     1      -8.643  -1.150   0.100  0.00  0.00    +0.277 C 
ENDBRANCH  36  37
ENDBRANCH  30  31
ENDBRANCH   1  30
TORSDOF 11
