REMARK  Name = ZINC16503743
REMARK  12 active torsions:
REMARK  status: ('A' for Active; 'I' for Inactive)
REMARK    1  A    between atoms: C_1  and  C_2
REMARK    2  A    between atoms: C_2  and  C_3
REMARK    3  A    between atoms: C_3  and  C_4
REMARK    4  A    between atoms: C_4  and  N_5
REMARK    5  A    between atoms: N_5  and  C_6
REMARK    6  A    between atoms: C_6  and  C_7
REMARK    7  A    between atoms: C_17  and  C_19
REMARK    8  A    between atoms: C_22  and  C_25
REMARK    9  A    between atoms: C_25  and  C_26
REMARK   10  A    between atoms: C_25  and  C_27
REMARK   11  A    between atoms: C_25  and  C_28
REMARK   12  A    between atoms: C_29  and  C_31
REMARK                            x       y       z     vdW  Elec       q    Type
REMARK                         _______ _______ _______ _____ _____    ______ ____
ROOT
ATOM      1  C   UNL     1      -3.057   3.871   1.410  0.00  0.00    +0.234 C 
ATOM      2  O   UNL     1      -2.362   3.630   2.375  0.00  0.00    -0.274 OA
ATOM      3  N   UNL     1      -4.317   4.316   1.582  0.00  0.00    -0.289 N 
ATOM      4  C   UNL     1      -5.166   4.617   0.419  0.00  0.00    +0.114 C 
ATOM      5  C   UNL     1      -6.349   3.627   0.423  0.00  0.00    +0.062 C 
ATOM      6  C   UNL     1      -6.865   3.504   1.820  0.00  0.00    -0.003 A 
ATOM      7  C   UNL     1      -6.249   3.876   2.975  0.00  0.00    -0.012 A 
ATOM      8  C   UNL     1      -6.947   3.645   4.159  0.00  0.00    +0.013 A 
ATOM      9  C   UNL     1      -8.175   3.080   4.120  0.00  0.00    +0.046 A 
ATOM     10  S   UNL     1      -8.414   2.837   2.367  0.00  0.00    -0.101 S 
ATOM     11  C   UNL     1      -4.861   4.513   2.932  0.00  0.00    +0.137 C 
ENDROOT
BRANCH  11  12
ATOM     12  C   UNL     1      -4.966   5.986   3.230  0.00  0.00    -0.023 A 
ATOM     13  C   UNL     1      -5.840   6.777   2.507  0.00  0.00    +0.006 A 
ATOM     14  C   UNL     1      -5.940   8.127   2.784  0.00  0.00    +0.004 A 
ATOM     15  C   UNL     1      -5.159   8.690   3.776  0.00  0.00    -0.042 A 
ATOM     16  C   UNL     1      -4.282   7.900   4.496  0.00  0.00    +0.004 A 
ATOM     17  C   UNL     1      -4.185   6.548   4.223  0.00  0.00    +0.006 A 
BRANCH  15  18
ATOM     18  C   UNL     1      -5.265  10.163   4.075  0.00  0.00    -0.013 C 
ATOM     19  C   UNL     1      -3.904  10.827   3.854  0.00  0.00    +0.015 C 
ATOM     20  C   UNL     1      -6.300  10.799   3.144  0.00  0.00    +0.015 C 
ATOM     21  C   UNL     1      -5.698  10.359   5.529  0.00  0.00    +0.015 C 
ENDBRANCH  15  18
ENDBRANCH  11  12
BRANCH   1  22
ATOM     22  C   UNL     1      -2.510   3.673   0.020  0.00  0.00    +0.204 C 
BRANCH  22  23
ATOM     23  N   UNL     1      -1.131   3.187   0.103  0.00  0.00    -0.289 N 
ATOM     24  C   UNL     1      -0.884   1.863   0.145  0.00  0.00    +0.247 C 
ATOM     25  O   UNL     1      -1.794   1.070  -0.001  0.00  0.00    -0.270 OA
BRANCH  24  26
ATOM     26  C   UNL     1       0.491   1.375   0.369  0.00  0.00    +0.041 A 
ATOM     27  C   UNL     1       1.556   1.928  -0.347  0.00  0.00    +0.017 A 
ATOM     28  C   UNL     1       2.838   1.467  -0.141  0.00  0.00    +0.050 A 
ATOM     29  C   UNL     1       3.077   0.454   0.778  0.00  0.00    +0.166 A 
ATOM     30  C   UNL     1       2.018  -0.103   1.496  0.00  0.00    +0.167 A 
ATOM     31  C   UNL     1       0.731   0.355   1.294  0.00  0.00    +0.062 A 
ATOM     32  O   UNL     1       2.514  -1.069   2.324  0.00  0.00    -0.453 OA
ATOM     33  C   UNL     1       3.822  -1.380   1.810  0.00  0.00    +0.466 C 
ATOM     34  O   UNL     1       4.232  -0.164   1.158  0.00  0.00    -0.453 OA
ENDBRANCH  24  26
BRANCH  23  35
ATOM     35  C   UNL     1      -0.019   4.141   0.139  0.00  0.00    +0.108 C 
BRANCH  35  36
ATOM     36  C   UNL     1       0.298   4.609  -1.283  0.00  0.00    +0.019 C 
BRANCH  36  38
ATOM     37  C   UNL     1       1.868   5.954  -2.685  0.00  0.00    +0.004 C 
ATOM     38  C   UNL     1       1.551   5.486  -1.263  0.00  0.00    -0.002 C 
ENDBRANCH  36  38
ENDBRANCH  35  36
ENDBRANCH  23  35
ENDBRANCH  22  23
ENDBRANCH   1  22
TORSDOF 8
