REMARK  Name = ZINC38692870
REMARK  9 active torsions:
REMARK  status: ('A' for Active; 'I' for Inactive)
REMARK    1  A    between atoms: C_1  and  C_2
REMARK    2  A    between atoms: C_4  and  S_11
REMARK    3  A    between atoms: C_6  and  C_10
REMARK    4  A    between atoms: C_7  and  O_8
REMARK    5  A    between atoms: O_8  and  C_9
REMARK    6  A    between atoms: S_11  and  N_14
REMARK    7  A    between atoms: N_14  and  C_15
REMARK    8  A    between atoms: N_21  and  S_25
REMARK    9  A    between atoms: S_25  and  C_28
REMARK                            x       y       z     vdW  Elec       q    Type
REMARK                         _______ _______ _______ _____ _____    ______ ____
ROOT
ATOM      1  N   UNL     1       1.813  -3.025  -3.060  0.00  0.00    -0.216 N 
ATOM      2  H   UNL     1       2.289  -2.526  -3.743  0.00  0.00    +0.174 HD
ENDROOT
BRANCH   1   3
ATOM      3  C   UNL     1       2.505  -3.919  -2.240  0.00  0.00    +0.050 A 
ATOM      4  C   UNL     1       2.285  -3.920  -0.867  0.00  0.00    +0.025 A 
ATOM      5  C   UNL     1       2.969  -4.802  -0.057  0.00  0.00    +0.007 A 
ATOM      6  C   UNL     1       3.879  -5.694  -0.603  0.00  0.00    -0.025 A 
ATOM      7  C   UNL     1       4.098  -5.699  -1.972  0.00  0.00    +0.056 A 
ATOM      8  C   UNL     1       3.409  -4.814  -2.792  0.00  0.00    +0.049 A 
ATOM      9  N   UNL     1       5.004  -6.596  -2.550  0.00  0.00    -0.207 N 
ATOM     10  C   UNL     1       5.939  -7.321  -1.679  0.00  0.00    +0.131 C 
ATOM     11  C   UNL     1       5.149  -7.835  -0.468  0.00  0.00    +0.025 C 
ATOM     12  C   UNL     1       4.611  -6.638   0.315  0.00  0.00    +0.038 C 
BRANCH   9  13
ATOM     13  S   UNL     1       5.022  -6.835  -4.188  0.00  0.00    +0.043 S 
ATOM     14  O   UNL     1       5.713  -8.064  -4.367  0.00  0.00    -0.155 OA
ATOM     15  O   UNL     1       3.665  -6.702  -4.589  0.00  0.00    -0.155 OA
ATOM     16  C   UNL     1       6.006  -5.463  -4.850  0.00  0.00    +0.218 C 
ENDBRANCH   9  13
ENDBRANCH   1   3
BRANCH   1  17
ATOM     17  S   UNL     1       0.182  -2.817  -2.868  0.00  0.00    +0.072 S 
ATOM     18  O   UNL     1      -0.241  -1.943  -3.906  0.00  0.00    -0.150 OA
ATOM     19  O   UNL     1      -0.032  -2.527  -1.494  0.00  0.00    -0.150 OA
BRANCH  17  23
ATOM     20  C   UNL     1      -1.411  -7.538  -1.293  0.00  0.00    +0.047 C 
ATOM     21  C   UNL     1      -1.291  -6.525  -2.402  0.00  0.00    -0.007 A 
ATOM     22  C   UNL     1      -0.692  -5.304  -2.161  0.00  0.00    +0.035 A 
ATOM     23  C   UNL     1      -0.582  -4.374  -3.179  0.00  0.00    +0.109 A 
ATOM     24  C   UNL     1      -1.071  -4.664  -4.439  0.00  0.00    +0.035 A 
ATOM     25  C   UNL     1      -1.671  -5.884  -4.685  0.00  0.00    -0.007 A 
ATOM     26  C   UNL     1      -1.778  -6.821  -3.667  0.00  0.00    +0.126 A 
ATOM     27  C   UNL     1      -2.204  -6.199  -6.059  0.00  0.00    +0.047 C 
BRANCH  26  28
ATOM     28  O   UNL     1      -2.362  -8.024  -3.908  0.00  0.00    -0.495 OA
ATOM     29  C   UNL     1      -3.773  -8.113  -3.701  0.00  0.00    +0.277 C 
ENDBRANCH  26  28
ENDBRANCH  17  23
ENDBRANCH   1  17
TORSDOF 5
