REMARK  Name = ZINC39657513
REMARK  5 active torsions:
REMARK  status: ('A' for Active; 'I' for Inactive)
REMARK    1  A    between atoms: C_3  and  C_6
REMARK    2  A    between atoms: C_6  and  C_7
REMARK    3  A    between atoms: C_7  and  N_8
REMARK    4  A    between atoms: C_9  and  C_11
REMARK    5  A    between atoms: C_22  and  C_24
REMARK                            x       y       z     vdW  Elec       q    Type
REMARK                         _______ _______ _______ _____ _____    ______ ____
ROOT
ATOM      1  C   UNL     1       7.918   3.800   2.537  0.00  0.00    +0.100 C 
ATOM      2  C   UNL     1       8.690   2.594   1.957  0.00  0.00    +0.121 C 
ATOM      3  N   UNL     1       9.909   2.493   2.792  0.00  0.00    -0.296 N 
ATOM      4  C   UNL     1       9.440   2.790   4.167  0.00  0.00    +0.115 C 
ATOM      5  C   UNL     1       8.412   3.925   3.987  0.00  0.00    -0.004 C 
ATOM      6  C   UNL     1       7.251   3.743   4.960  0.00  0.00    -0.010 C 
ATOM      7  C   UNL     1       7.756   3.930   6.393  0.00  0.00    -0.082 C 
ATOM      8  N   UNL     1       8.337   5.270   6.538  0.00  0.00    +0.379 N 
ATOM      9  C   UNL     1       9.511   5.405   5.667  0.00  0.00    -0.082 C 
ATOM     10  C   UNL     1       9.079   5.280   4.203  0.00  0.00    -0.010 C 
ATOM     11  C   UNL     1      11.162   2.199   2.393  0.00  0.00    +0.249 C 
ATOM     12  O   UNL     1      12.046   2.061   3.216  0.00  0.00    -0.270 OA
ATOM     13  H   UNL     1       7.649   5.963   6.283  0.00  0.00    -0.086 HD
ATOM     14  H   UNL     1       8.614   5.413   7.498  0.00  0.00    -0.086 HD
ENDROOT
BRANCH  11  15
ATOM     15  C   UNL     1      11.461   2.043   0.955  0.00  0.00    +0.073 A 
ATOM     16  C   UNL     1      10.512   1.483   0.097  0.00  0.00    +0.036 A 
ATOM     17  C   UNL     1      10.797   1.340  -1.245  0.00  0.00    +0.042 A 
ATOM     18  C   UNL     1      12.023   1.752  -1.744  0.00  0.00    +0.023 A 
ATOM     19  C   UNL     1      12.968   2.307  -0.903  0.00  0.00    +0.040 A 
ATOM     20  C   UNL     1      12.694   2.461   0.444  0.00  0.00    +0.136 A 
ATOM     21  F   UNL     1      13.617   3.009   1.265  0.00  0.00    -0.205 F 
ATOM     22 CL   UNL     1       9.618   0.644  -2.312  0.00  0.00    -0.084 Cl
ENDBRANCH  11  15
BRANCH   1  24
ATOM     23  N   UNL     1       5.569   4.563   2.399  0.00  0.00    -0.315 N 
ATOM     24  C   UNL     1       6.434   3.536   2.509  0.00  0.00    +0.218 C 
ATOM     25  O   UNL     1       6.019   2.399   2.587  0.00  0.00    -0.275 OA
ATOM     26  H   UNL     1       5.901   5.473   2.337  0.00  0.00    +0.149 HD
BRANCH  23  27
ATOM     27  C   UNL     1       4.127   4.307   2.372  0.00  0.00    +0.109 C 
BRANCH  27  28
ATOM     28  C   UNL     1       3.375   5.633   2.241  0.00  0.00    +0.061 C 
BRANCH  28  31
ATOM     29  C   UNL     1      -0.315   5.046   2.983  0.00  0.00    +0.008 A 
ATOM     30  C   UNL     1       1.017   5.303   3.247  0.00  0.00    +0.011 A 
ATOM     31  C   UNL     1       1.891   5.369   2.214  0.00  0.00    -0.009 A 
ATOM     32  S   UNL     1       0.830   5.062   0.812  0.00  0.00    -0.102 S 
ATOM     33  C   UNL     1      -0.708   4.867   1.698  0.00  0.00    +0.045 A 
ENDBRANCH  28  31
ENDBRANCH  27  28
ENDBRANCH  23  27
ENDBRANCH   1  24
TORSDOF 5
