REMARK  Name = ZINC35894828
REMARK  7 active torsions:
REMARK  status: ('A' for Active; 'I' for Inactive)
REMARK    1  A    between atoms: C_1  and  C_2
REMARK    2  A    between atoms: C_2  and  O_3
REMARK    3  A    between atoms: O_3  and  C_4
REMARK    4  A    between atoms: C_12  and  C_14
REMARK    5  A    between atoms: C_19  and  N_38
REMARK    6  A    between atoms: N_27  and  C_30
REMARK    7  A    between atoms: C_30  and  C_31
REMARK                            x       y       z     vdW  Elec       q    Type
REMARK                         _______ _______ _______ _____ _____    ______ ____
ROOT
ATOM      1  C   UNL     1       4.409  -5.186  -5.084  0.00  0.00    +0.098 C 
ATOM      2  C   UNL     1       3.061  -5.872  -5.151  0.00  0.00    +0.051 C 
ATOM      3  C   UNL     1       2.399  -5.687  -6.485  0.00  0.00    -0.023 A 
ATOM      4  C   UNL     1       1.019  -5.677  -6.573  0.00  0.00    +0.038 A 
ATOM      5  C   UNL     1       0.402  -5.511  -7.798  0.00  0.00    +0.127 A 
ATOM      6  C   UNL     1       1.162  -5.354  -8.943  0.00  0.00    +0.034 A 
ATOM      7  C   UNL     1       2.540  -5.362  -8.863  0.00  0.00    +0.025 A 
ATOM      8  C   UNL     1       3.164  -5.528  -7.631  0.00  0.00    +0.033 A 
ATOM      9  N   UNL     1       4.551  -5.525  -7.551  0.00  0.00    -0.329 N 
ATOM     10  C   UNL     1       5.273  -5.391  -6.297  0.00  0.00    +0.069 C 
ATOM     11  C   UNL     1       6.216  -6.585  -6.142  0.00  0.00    -0.055 C 
ATOM     12  N   UNL     1       7.083  -6.666  -7.327  0.00  0.00    +0.385 N 
ATOM     13  C   UNL     1       6.282  -6.902  -8.534  0.00  0.00    -0.059 C 
ATOM     14  C   UNL     1       5.356  -5.708  -8.776  0.00  0.00    +0.087 C 
ATOM     15  H   UNL     1       7.591  -5.800  -7.428  0.00  0.00    -0.081 HD
ENDROOT
BRANCH   1  24
ATOM     16  C   UNL     1       2.649  -1.788  -0.217  0.00  0.00    +0.403 C 
ATOM     17  O   UNL     1       2.657  -2.521   0.752  0.00  0.00    -0.226 OA
ATOM     18  N   UNL     1       2.739  -2.310  -1.457  0.00  0.00    -0.264 N 
ATOM     19  C   UNL     1       2.737  -1.436  -2.638  0.00  0.00    +0.130 C 
ATOM     20  C   UNL     1       3.991  -1.732  -3.469  0.00  0.00    +0.127 C 
ATOM     21  N   UNL     1       4.093  -3.185  -3.664  0.00  0.00    -0.298 N 
ATOM     22  C   UNL     1       4.095  -4.060  -2.482  0.00  0.00    +0.127 C 
ATOM     23  C   UNL     1       2.846  -3.763  -1.651  0.00  0.00    +0.130 C 
ATOM     24  C   UNL     1       4.183  -3.707  -4.903  0.00  0.00    +0.221 C 
ATOM     25  O   UNL     1       4.083  -2.986  -5.873  0.00  0.00    -0.275 OA
BRANCH  16  26
ATOM     26  O   UNL     1       2.551  -0.456  -0.053  0.00  0.00    -0.451 OA
BRANCH  26  28
ATOM     27  C   UNL     1       2.356   1.554   1.274  0.00  0.00    +0.048 C 
ATOM     28  C   UNL     1       2.459   0.028   1.288  0.00  0.00    +0.230 C 
ENDBRANCH  26  28
ENDBRANCH  16  26
ENDBRANCH   1  24
BRANCH   5  29
ATOM     29  N   UNL     1      -1.076  -5.500  -7.886  0.00  0.00    +0.056 N 
ATOM     30  O   UNL     1      -1.742  -5.636  -6.886  0.00  0.00    -0.126 OA
ATOM     31  O   UNL     1      -1.617  -5.354  -8.957  0.00  0.00    -0.126 OA
ENDBRANCH   5  29
BRANCH  12  32
ATOM     32  C   UNL     1       8.037  -7.769  -7.155  0.00  0.00    -0.043 C 
BRANCH  32  33
ATOM     33  C   UNL     1       9.006  -7.780  -8.310  0.00  0.00    -0.064 A 
ATOM     34  C   UNL     1       8.715  -8.508  -9.449  0.00  0.00    +0.004 A 
ATOM     35  C   UNL     1       9.602  -8.518 -10.508  0.00  0.00    +0.038 A 
ATOM     36  C   UNL     1      10.783  -7.799 -10.429  0.00  0.00    +0.123 A 
ATOM     37  C   UNL     1      11.073  -7.070  -9.288  0.00  0.00    +0.038 A 
ATOM     38  C   UNL     1      10.182  -7.058  -8.232  0.00  0.00    +0.004 A 
ATOM     39  F   UNL     1      11.651  -7.809 -11.464  0.00  0.00    -0.205 F 
ENDBRANCH  32  33
ENDBRANCH  12  32
TORSDOF 6
