REMARK  Name = ZINC12338174
REMARK  6 active torsions:
REMARK  status: ('A' for Active; 'I' for Inactive)
REMARK    1  A    between atoms: C_1  and  C_2
REMARK    2  A    between atoms: C_5  and  C_8
REMARK    3  A    between atoms: C_8  and  N_55
REMARK    4  A    between atoms: C_9  and  N_55
REMARK    5  A    between atoms: N_20  and  C_23
REMARK    6  A    between atoms: C_23  and  C_24
REMARK                            x       y       z     vdW  Elec       q    Type
REMARK                         _______ _______ _______ _____ _____    ______ ____
ROOT
ATOM      1  C   UNL     1      -0.924   3.099   1.187  0.00  0.00    -0.066 C 
ATOM      2  C   UNL     1      -0.733   1.581   1.262  0.00  0.00    -0.011 C 
ATOM      3  C   UNL     1      -0.013   1.086   0.008  0.00  0.00    +0.035 C 
ATOM      4  C   UNL     1      -0.755   1.594  -1.225  0.00  0.00    -0.023 A 
ATOM      5  C   UNL     1      -1.616   2.634  -1.129  0.00  0.00    -0.006 A 
ATOM      6  S   UNL     1      -2.238   2.877  -2.773  0.00  0.00    -0.073 S 
ATOM      7  C   UNL     1      -1.345   1.588  -3.584  0.00  0.00    +0.116 A 
ATOM      8  C   UNL     1      -0.588   1.007  -2.543  0.00  0.00    +0.076 A 
ATOM      9  C   UNL     1       0.263  -0.095  -2.893  0.00  0.00    +0.263 A 
ATOM     10  O   UNL     1       0.956  -0.665  -2.069  0.00  0.00    -0.267 OA
ATOM     11  N   UNL     1       0.245  -0.459  -4.197  0.00  0.00    -0.294 N 
ATOM     12  C   UNL     1      -0.519   0.161  -5.128  0.00  0.00    +0.203 A 
ATOM     13  N   UNL     1      -1.310   1.173  -4.846  0.00  0.00    -0.230 NA
ATOM     14  C   UNL     1      -1.965   3.412   0.103  0.00  0.00    +0.027 C 
ENDROOT
BRANCH   1  15
ATOM     15  N   UNL     1      -1.402   3.595   2.491  0.00  0.00    +0.385 N 
ATOM     16  H   UNL     1      -2.422   3.487   2.542  0.00  0.00    -0.085 HD
ATOM     17  H   UNL     1      -0.962   3.051   3.242  0.00  0.00    -0.085 HD
BRANCH  15  18
ATOM     18  C   UNL     1      -1.055   5.020   2.655  0.00  0.00    -0.024 C 
BRANCH  18  23
ATOM     19  C   UNL     1      -2.892   6.818   7.730  0.00  0.00    +0.067 C 
ATOM     20  C   UNL     1      -2.393   6.338   6.391  0.00  0.00    +0.056 A 
ATOM     21  C   UNL     1      -3.241   6.334   5.297  0.00  0.00    +0.134 A 
ATOM     22  N   UNL     1      -2.801   5.919   4.122  0.00  0.00    -0.259 NA
ATOM     23  C   UNL     1      -1.555   5.498   3.994  0.00  0.00    +0.042 A 
ATOM     24  C   UNL     1      -0.707   5.503   5.088  0.00  0.00    +0.132 A 
ATOM     25  N   UNL     1      -1.145   5.923   6.262  0.00  0.00    -0.257 NA
ENDBRANCH  18  23
ENDBRANCH  15  18
ENDBRANCH   1  15
BRANCH  11  26
ATOM     26  C   UNL     1       1.092  -1.577  -4.620  0.00  0.00    +0.168 C 
BRANCH  26  27
ATOM     27  C   UNL     1       0.321  -2.866  -4.498  0.00  0.00    +0.011 A 
ATOM     28  C   UNL     1      -0.450  -3.463  -5.419  0.00  0.00    +0.021 A 
ATOM     29  C   UNL     1      -1.111  -4.717  -5.091  0.00  0.00    -0.010 A 
ATOM     30  C   UNL     1      -1.959  -5.510  -5.901  0.00  0.00    +0.009 A 
ATOM     31  C   UNL     1      -2.493  -6.665  -5.425  0.00  0.00    +0.001 A 
ATOM     32  C   UNL     1      -2.231  -7.109  -4.135  0.00  0.00    +0.001 A 
ATOM     33  C   UNL     1      -1.409  -6.364  -3.314  0.00  0.00    +0.015 A 
ATOM     34  C   UNL     1      -0.861  -5.190  -3.785  0.00  0.00    +0.020 A 
ATOM     35  S   UNL     1       0.221  -3.964  -3.097  0.00  0.00    -0.091 S 
ENDBRANCH  26  27
ENDBRANCH  11  26
TORSDOF 5
