REMARK  Name = ZINC39678270
REMARK  8 active torsions:
REMARK  status: ('A' for Active; 'I' for Inactive)
REMARK    1  A    between atoms: C_1  and  C_2
REMARK    2  A    between atoms: C_2  and  C_3
REMARK    3  A    between atoms: C_3  and  C_5
REMARK    4  A    between atoms: C_3  and  C_6
REMARK    5  A    between atoms: C_10  and  C_19
REMARK    6  A    between atoms: N_21  and  C_22
REMARK    7  A    between atoms: C_22  and  C_23
REMARK    8  A    between atoms: C_28  and  N_29
REMARK                            x       y       z     vdW  Elec       q    Type
REMARK                         _______ _______ _______ _____ _____    ______ ____
ROOT
ATOM      1  C   UNL     1      -0.298  -1.861   1.007  0.00  0.00    +0.218 C 
ATOM      2  O   UNL     1      -0.453  -0.658   0.983  0.00  0.00    -0.275 OA
ATOM      3  N   UNL     1       0.231  -2.451   2.097  0.00  0.00    -0.300 N 
ATOM      4  C   UNL     1       0.587  -1.819   3.389  0.00  0.00    +0.121 C 
ATOM      5  C   UNL     1       0.169  -2.853   4.458  0.00  0.00    +0.100 C 
ATOM      6  C   UNL     1       0.173  -4.203   3.721  0.00  0.00    -0.004 C 
ATOM      7  C   UNL     1       0.582  -3.880   2.277  0.00  0.00    +0.115 C 
ATOM      8  C   UNL     1       1.185  -5.150   4.359  0.00  0.00    -0.010 C 
ATOM      9  C   UNL     1       1.129  -6.504   3.646  0.00  0.00    -0.082 C 
ATOM     10  N   UNL     1      -0.225  -7.060   3.752  0.00  0.00    +0.379 N 
ATOM     11  C   UNL     1      -1.179  -6.189   3.055  0.00  0.00    -0.082 C 
ATOM     12  C   UNL     1      -1.222  -4.821   3.743  0.00  0.00    -0.010 C 
ATOM     13  H   UNL     1      -0.244  -7.978   3.334  0.00  0.00    -0.086 HD
ATOM     14  H   UNL     1      -0.484  -7.130   4.724  0.00  0.00    -0.086 HD
ENDROOT
BRANCH   5  15
ATOM     15  C   UNL     1      -1.211  -2.541   4.979  0.00  0.00    +0.218 C 
ATOM     16  O   UNL     1      -2.015  -1.979   4.265  0.00  0.00    -0.275 OA
ATOM     17  N   UNL     1      -1.551  -2.886   6.236  0.00  0.00    -0.311 N 
ATOM     18  H   UNL     1      -0.887  -3.269   6.830  0.00  0.00    +0.149 HD
BRANCH  17  19
ATOM     19  C   UNL     1      -2.924  -2.684   6.705  0.00  0.00    +0.141 C 
BRANCH  19  20
ATOM     20  C   UNL     1      -3.012  -3.036   8.168  0.00  0.00    -0.009 A 
ATOM     21  C   UNL     1      -3.511  -4.265   8.555  0.00  0.00    +0.007 A 
ATOM     22  C   UNL     1      -3.593  -4.589   9.896  0.00  0.00    +0.000 A 
ATOM     23  C   UNL     1      -3.174  -3.685  10.856  0.00  0.00    +0.002 A 
ATOM     24  C   UNL     1      -2.673  -2.455  10.476  0.00  0.00    +0.023 A 
ATOM     25  C   UNL     1      -2.585  -2.129   9.129  0.00  0.00    +0.034 A 
BRANCH  25  26
ATOM     26  N   UNL     1      -2.074  -0.888   8.741  0.00  0.00    -0.330 N 
ATOM     27  C   UNL     1      -2.965   0.267   8.566  0.00  0.00    +0.105 C 
ATOM     28  C   UNL     1      -2.436   1.430   9.412  0.00  0.00    +0.019 C 
ATOM     29  C   UNL     1      -0.976   1.701   9.044  0.00  0.00    +0.003 C 
ATOM     30  C   UNL     1      -0.133   0.461   9.347  0.00  0.00    +0.019 C 
ATOM     31  C   UNL     1      -0.634  -0.712   8.507  0.00  0.00    +0.105 C 
ENDBRANCH  25  26
ENDBRANCH  19  20
ENDBRANCH  17  19
ENDBRANCH   5  15
BRANCH   1  32
ATOM     32  C   UNL     1      -0.698  -2.696  -0.182  0.00  0.00    +0.072 C 
ATOM     33  C   UNL     1       0.509  -2.879  -1.105  0.00  0.00    +0.017 C 
BRANCH  32  35
ATOM     34  C   UNL     1      -2.311  -2.894  -2.079  0.00  0.00    +0.004 C 
ATOM     35  C   UNL     1      -1.821  -1.991  -0.946  0.00  0.00    +0.009 C 
ENDBRANCH  32  35
ENDBRANCH   1  32
TORSDOF 6
