REMARK  Name = ZINC30961154
REMARK  14 active torsions:
REMARK  status: ('A' for Active; 'I' for Inactive)
REMARK    1  A    between atoms: C_1  and  C_2
REMARK    2  A    between atoms: C_2  and  O_3
REMARK    3  A    between atoms: O_3  and  C_4
REMARK    4  A    between atoms: C_6  and  C_14
REMARK    5  A    between atoms: C_8  and  C_11
REMARK    6  A    between atoms: C_9  and  O_10
REMARK    7  A    between atoms: C_11  and  C_12
REMARK    8  A    between atoms: N_15  and  N_16
REMARK    9  A    between atoms: C_17  and  C_19
REMARK   10  A    between atoms: C_19  and  C_21
REMARK   11  A    between atoms: C_19  and  N_24
REMARK   12  A    between atoms: C_21  and  C_22
REMARK   13  A    between atoms: C_21  and  C_23
REMARK   14  A    between atoms: C_25  and  C_27
REMARK                            x       y       z     vdW  Elec       q    Type
REMARK                         _______ _______ _______ _____ _____    ______ ____
ROOT
ATOM      1  N   UNL     1      -4.179   1.139  -5.760  0.00  0.00    -0.205 N 
ATOM      2  C   UNL     1      -5.135   0.838  -6.660  0.00  0.00    +0.253 C 
ATOM      3  O   UNL     1      -5.240   1.494  -7.676  0.00  0.00    -0.272 OA
ATOM      4  H   UNL     1      -4.023   0.491  -4.885  0.00  0.00    +0.177 HD
ENDROOT
BRANCH   1   6
ATOM      5  C   UNL     1      -2.377   2.498  -5.147  0.00  0.00    +0.138 C 
ATOM      6  N   UNL     1      -3.382   2.278  -5.938  0.00  0.00    -0.188 NA
BRANCH   5   9
ATOM      7  C   UNL     1      -0.120   0.541  -2.872  0.00  0.00    +0.163 A 
ATOM      8  C   UNL     1      -0.758   1.605  -3.482  0.00  0.00    +0.059 A 
ATOM      9  C   UNL     1      -1.693   1.367  -4.493  0.00  0.00    -0.002 A 
ATOM     10  C   UNL     1      -1.979   0.056  -4.881  0.00  0.00    +0.017 A 
ATOM     11  C   UNL     1      -1.338  -1.000  -4.268  0.00  0.00    +0.002 A 
ATOM     12  C   UNL     1      -0.414  -0.764  -3.261  0.00  0.00    +0.162 A 
BRANCH  12  13
ATOM     13  O   UNL     1       0.211  -1.809  -2.656  0.00  0.00    -0.503 OA
ATOM     14  H   UNL     1      -0.020  -2.840  -2.962  0.00  0.00    +0.292 HD
ENDBRANCH  12  13
BRANCH   7  15
ATOM     15  O   UNL     1       0.791   0.768  -1.888  0.00  0.00    -0.489 OA
BRANCH  15  17
ATOM     16  C   UNL     1       1.921   2.162  -0.269  0.00  0.00    +0.048 C 
ATOM     17  C   UNL     1       0.951   2.120  -1.451  0.00  0.00    +0.226 C 
ENDBRANCH  15  17
ENDBRANCH   7  15
BRANCH  11  18
ATOM     18  C   UNL     1      -1.648  -2.413  -4.689  0.00  0.00    +0.065 C 
BRANCH  18  19
ATOM     19  C   UNL     1      -2.627  -3.023  -3.719  0.00  0.00    -0.030 C 
ATOM     20  C   UNL     1      -3.784  -3.463  -4.147  0.00  0.00    +0.004 C 
ENDBRANCH  18  19
ENDBRANCH  11  18
ENDBRANCH   5   9
ENDBRANCH   1   6
BRANCH   2  21
ATOM     21  C   UNL     1      -6.074  -0.312  -6.405  0.00  0.00    +0.163 C 
BRANCH  21  22
ATOM     22  N   UNL     1      -6.588  -0.815  -7.682  0.00  0.00    -0.300 N 
ATOM     23  C   UNL     1      -7.014  -2.090  -7.781  0.00  0.00    +0.246 C 
ATOM     24  O   UNL     1      -6.972  -2.823  -6.812  0.00  0.00    -0.270 OA
ATOM     25  H   UNL     1      -6.626  -0.152  -8.559  0.00  0.00    +0.150 HD
BRANCH  23  26
ATOM     26  C   UNL     1      -7.532  -2.597  -9.068  0.00  0.00    +0.055 A 
ATOM     27  C   UNL     1      -7.582  -1.758 -10.184  0.00  0.00    +0.016 A 
ATOM     28  C   UNL     1      -8.066  -2.237 -11.382  0.00  0.00    +0.021 A 
ATOM     29  C   UNL     1      -8.503  -3.548 -11.483  0.00  0.00    +0.042 A 
ATOM     30  C   UNL     1      -8.458  -4.386 -10.381  0.00  0.00    +0.040 A 
ATOM     31  C   UNL     1      -7.969  -3.920  -9.177  0.00  0.00    +0.054 A 
ATOM     32 CL   UNL     1      -7.904  -4.973  -7.798  0.00  0.00    -0.083 Cl
ATOM     33 CL   UNL     1      -9.112  -4.143 -12.996  0.00  0.00    -0.083 Cl
ENDBRANCH  23  26
ENDBRANCH  21  22
BRANCH  21  34
ATOM     34  C   UNL     1      -7.242   0.164  -5.538  0.00  0.00    +0.012 C 
ATOM     35  C   UNL     1      -6.724   0.542  -4.149  0.00  0.00    +0.009 C 
ATOM     36  C   UNL     1      -7.894   1.386  -6.188  0.00  0.00    +0.009 C 
ENDBRANCH  21  34
ENDBRANCH   2  21
TORSDOF 11
