REMARK  Name = ZINC39432521
REMARK  10 active torsions:
REMARK  status: ('A' for Active; 'I' for Inactive)
REMARK    1  A    between atoms: C_1  and  C_2
REMARK    2  A    between atoms: C_2  and  C_3
REMARK    3  A    between atoms: C_2  and  C_4
REMARK    4  A    between atoms: C_8  and  N_28
REMARK    5  A    between atoms: C_9  and  C_13
REMARK    6  A    between atoms: N_15  and  C_16
REMARK    7  A    between atoms: C_16  and  C_17
REMARK    8  A    between atoms: C_17  and  C_18
REMARK    9  A    between atoms: C_21  and  S_24
REMARK   10  A    between atoms: S_24  and  N_27
REMARK                            x       y       z     vdW  Elec       q    Type
REMARK                         _______ _______ _______ _____ _____    ______ ____
ROOT
ATOM      1  C   UNL     1      -6.993  -2.760  -1.941  0.00  0.00    +0.253 C 
ATOM      2  O   UNL     1      -7.873  -3.014  -1.139  0.00  0.00    -0.270 OA
ATOM      3  N   UNL     1      -7.205  -2.956  -3.258  0.00  0.00    -0.311 N 
ATOM      4  H   UNL     1      -6.504  -2.753  -3.897  0.00  0.00    +0.149 HD
ENDROOT
BRANCH   1  10
ATOM      5  C   UNL     1      -1.412  -0.526   0.013  0.00  0.00    +0.045 A 
ATOM      6  C   UNL     1      -2.085  -0.667   1.217  0.00  0.00    +0.024 A 
ATOM      7  C   UNL     1      -3.375  -1.141   1.242  0.00  0.00    +0.014 A 
ATOM      8  C   UNL     1      -4.005  -1.483   0.019  0.00  0.00    +0.029 A 
ATOM      9  C   UNL     1      -5.348  -1.997  -0.199  0.00  0.00    +0.053 A 
ATOM     10  C   UNL     1      -5.746  -2.259  -1.491  0.00  0.00    +0.097 A 
ATOM     11  S   UNL     1      -4.318  -1.819  -2.460  0.00  0.00    -0.062 S 
ATOM     12  C   UNL     1      -3.234  -1.302  -1.152  0.00  0.00    +0.111 A 
ATOM     13  N   UNL     1      -2.002  -0.840  -1.123  0.00  0.00    -0.244 NA
BRANCH   5  15
ATOM     14  C   UNL     1      -0.019   1.526   0.010  0.00  0.00    +0.014 C 
ATOM     15  C   UNL     1       0.002  -0.004   0.002  0.00  0.00    +0.032 C 
ATOM     16  C   UNL     1       0.742  -0.511   1.242  0.00  0.00    +0.014 C 
ENDBRANCH   5  15
BRANCH   9  17
ATOM     17  N   UNL     1      -6.206  -2.219   0.869  0.00  0.00    -0.356 N 
ATOM     18  H   UNL     1      -5.913  -2.031   1.774  0.00  0.00    +0.142 HD
ATOM     19  H   UNL     1      -7.099  -2.563   0.710  0.00  0.00    +0.142 HD
ENDBRANCH   9  17
ENDBRANCH   1  10
BRANCH   3  20
ATOM     20  C   UNL     1      -8.494  -3.473  -3.723  0.00  0.00    +0.109 C 
BRANCH  20  21
ATOM     21  C   UNL     1      -8.472  -3.601  -5.248  0.00  0.00    +0.054 C 
BRANCH  21  22
ATOM     22  C   UNL     1      -9.798  -4.133  -5.727  0.00  0.00    -0.046 A 
ATOM     23  C   UNL     1      -9.994  -5.497  -5.842  0.00  0.00    +0.005 A 
ATOM     24  C   UNL     1     -11.211  -5.985  -6.281  0.00  0.00    +0.029 A 
ATOM     25  C   UNL     1     -12.231  -5.110  -6.605  0.00  0.00    +0.105 A 
ATOM     26  C   UNL     1     -12.034  -3.747  -6.489  0.00  0.00    +0.029 A 
ATOM     27  C   UNL     1     -10.820  -3.258  -6.046  0.00  0.00    +0.005 A 
BRANCH  25  28
ATOM     28  S   UNL     1     -13.780  -5.733  -7.166  0.00  0.00    +0.056 S 
ATOM     29  O   UNL     1     -14.386  -4.694  -7.923  0.00  0.00    -0.153 OA
ATOM     30  O   UNL     1     -13.528  -7.022  -7.707  0.00  0.00    -0.153 OA
BRANCH  28  31
ATOM     31  N   UNL     1     -14.731  -5.958  -5.829  0.00  0.00    -0.204 NA
ATOM     32  H   UNL     1     -14.385  -5.749  -4.947  0.00  0.00    +0.144 HD
ATOM     33  H   UNL     1     -15.633  -6.300  -5.927  0.00  0.00    +0.144 HD
ENDBRANCH  28  31
ENDBRANCH  25  28
ENDBRANCH  21  22
ENDBRANCH  20  21
ENDBRANCH   3  20
TORSDOF 8
