REMARK  Name = ZINC39441835
REMARK  6 active torsions:
REMARK  status: ('A' for Active; 'I' for Inactive)
REMARK    1  A    between atoms: C_1  and  C_2
REMARK    2  A    between atoms: C_4  and  N_9
REMARK    3  A    between atoms: C_5  and  C_8
REMARK    4  A    between atoms: C_10  and  C_12
REMARK    5  A    between atoms: C_17  and  C_26
REMARK    6  A    between atoms: C_19  and  C_22
REMARK                            x       y       z     vdW  Elec       q    Type
REMARK                         _______ _______ _______ _____ _____    ______ ____
ROOT
ATOM      1  C   UNL     1       1.044  -0.497  -4.945  0.00  0.00    +0.185 C 
ATOM      2  C   UNL     1       1.093   0.993  -5.196  0.00  0.00    +0.047 C 
ATOM      3  C   UNL     1       2.090   1.205  -6.080  0.00  0.00    +0.138 C 
ATOM      4  N   UNL     1       2.525   2.372  -6.617  0.00  0.00    -0.231 NA
ATOM      5  C   UNL     1       3.523   2.393  -7.475  0.00  0.00    +0.075 C 
ATOM      6  C   UNL     1       4.163   1.186  -7.854  0.00  0.00    +0.057 C 
ATOM      7  C   UNL     1       3.743   0.018  -7.330  0.00  0.00    +0.133 C 
ATOM      8  N   UNL     1       2.699   0.009  -6.434  0.00  0.00    -0.213 N 
ATOM      9  N   UNL     1       2.117  -1.051  -5.788  0.00  0.00    -0.218 NA
ATOM     10  H   UNL     1       2.793  -1.552  -5.231  0.00  0.00    +0.146 HD
ENDROOT
BRANCH   5  11
ATOM     11  C   UNL     1       3.979   3.680  -8.046  0.00  0.00    +0.001 A 
ATOM     12  C   UNL     1       5.032   3.707  -8.960  0.00  0.00    +0.013 A 
ATOM     13  C   UNL     1       5.453   4.909  -9.490  0.00  0.00    +0.039 A 
ATOM     14  C   UNL     1       4.831   6.089  -9.114  0.00  0.00    +0.123 A 
ATOM     15  C   UNL     1       3.784   6.068  -8.206  0.00  0.00    +0.039 A 
ATOM     16  C   UNL     1       3.352   4.871  -7.676  0.00  0.00    +0.013 A 
ATOM     17  F   UNL     1       5.248   7.264  -9.635  0.00  0.00    -0.205 F 
ENDBRANCH   5  11
BRANCH   1  19
ATOM     18  N   UNL     1       0.464  -0.343  -2.545  0.00  0.00    -0.284 N 
ATOM     19  C   UNL     1       1.310  -0.794  -3.491  0.00  0.00    +0.240 C 
ATOM     20  O   UNL     1       2.287  -1.440  -3.174  0.00  0.00    -0.273 OA
ATOM     21  H   UNL     1      -0.354   0.110  -2.802  0.00  0.00    +0.155 HD
BRANCH  18  24
ATOM     22  C   UNL     1      -0.177  -2.755  -0.543  0.00  0.00    +0.041 C 
ATOM     23  C   UNL     1       1.039  -1.829  -0.482  0.00  0.00    +0.171 C 
ATOM     24  C   UNL     1       0.760  -0.526  -1.212  0.00  0.00    +0.059 C 
ATOM     25  C   UNL     1       0.872   0.411  -0.246  0.00  0.00    +0.079 C 
ATOM     26  N   UNL     1       1.173  -0.155   0.928  0.00  0.00    -0.157 NA
ATOM     27  N   UNL     1       1.288  -1.386   0.901  0.00  0.00    -0.178 NA
ATOM     28  C   UNL     1       0.684   1.890  -0.461  0.00  0.00    +0.069 C 
ENDBRANCH  18  24
ENDBRANCH   1  19
BRANCH   7  29
ATOM     29  C   UNL     1       4.413  -1.273  -7.724  0.00  0.00    +0.432 C 
ATOM     30  F   UNL     1       5.437  -1.006  -8.639  0.00  0.00    -0.165 F 
ATOM     31  F   UNL     1       4.952  -1.885  -6.587  0.00  0.00    -0.165 F 
ATOM     32  F   UNL     1       3.473  -2.126  -8.312  0.00  0.00    -0.165 F 
ENDBRANCH   7  29
TORSDOF 4
