REMARK  Name = ZINC09009920
REMARK  5 active torsions:
REMARK  status: ('A' for Active; 'I' for Inactive)
REMARK    1  A    between atoms: C_4  and  N_22
REMARK    2  A    between atoms: C_6  and  C_7
REMARK    3  A    between atoms: C_8  and  C_9
REMARK    4  A    between atoms: N_11  and  C_12
REMARK    5  A    between atoms: C_12  and  N_14
REMARK                            x       y       z     vdW  Elec       q    Type
REMARK                         _______ _______ _______ _____ _____    ______ ____
ROOT
ATOM      1  C   UNL     1       6.086   2.239  -0.056  0.00  0.00    +0.242 C 
ATOM      2  O   UNL     1       6.073   3.455  -0.049  0.00  0.00    -0.270 OA
ATOM      3  N   UNL     1       7.261   1.578  -0.067  0.00  0.00    -0.264 N 
ATOM      4  H   UNL     1       7.272   0.608  -0.072  0.00  0.00    +0.157 HD
ENDROOT
BRANCH   1   6
ATOM      5  C   UNL     1       3.652   2.155  -0.042  0.00  0.00    +0.013 C 
ATOM      6  C   UNL     1       4.828   1.493  -0.053  0.00  0.00    +0.068 C 
BRANCH   5  12
ATOM      7  C   UNL     1       2.398   0.007  -0.047  0.00  0.00    +0.009 A 
ATOM      8  C   UNL     1       1.208  -0.689  -0.045  0.00  0.00    +0.023 A 
ATOM      9  C   UNL     1       0.002  -0.006  -0.034  0.00  0.00    +0.071 A 
ATOM     10  C   UNL     1      -0.017   1.379  -0.025  0.00  0.00    +0.145 A 
ATOM     11  C   UNL     1       1.165   2.088  -0.028  0.00  0.00    +0.042 A 
ATOM     12  C   UNL     1       2.386   1.405  -0.039  0.00  0.00    -0.023 A 
ATOM     13 CL   UNL     1      -1.492  -0.891  -0.031  0.00  0.00    -0.081 Cl
BRANCH  10  14
ATOM     14  N   UNL     1      -1.310   2.100  -0.020  0.00  0.00    +0.058 N 
ATOM     15  O   UNL     1      -1.328   3.318  -0.012  0.00  0.00    -0.126 OA
ATOM     16  O   UNL     1      -2.355   1.475  -0.022  0.00  0.00    -0.126 OA
ENDBRANCH  10  14
ENDBRANCH   5  12
ENDBRANCH   1   6
BRANCH   3  17
ATOM     17  C   UNL     1       8.421   2.264  -0.070  0.00  0.00    +0.142 C 
ATOM     18  S   UNL     1       8.402   3.976  -0.059  0.00  0.00    -0.018 S 
BRANCH  17  19
ATOM     19  N   UNL     1       9.595   1.603  -0.080  0.00  0.00    -0.282 N 
ATOM     20  C   UNL     1      10.791   2.310  -0.193  0.00  0.00    +0.124 A 
ATOM     21  C   UNL     1      11.991   1.618  -0.313  0.00  0.00    +0.045 A 
ATOM     22  C   UNL     1      13.171   2.331  -0.429  0.00  0.00    +0.019 A 
ATOM     23  C   UNL     1      13.110   3.719  -0.411  0.00  0.00    +0.032 A 
ATOM     24  C   UNL     1      11.884   4.340  -0.284  0.00  0.00    +0.127 A 
ATOM     25  N   UNL     1      10.775   3.633  -0.180  0.00  0.00    -0.239 NA
ATOM     26  I   UNL     1      14.862   4.856  -0.577  0.00  0.00    -0.042 I 
ATOM     27  H   UNL     1       9.608   0.636  -0.010  0.00  0.00    +0.155 HD
ENDBRANCH  17  19
ENDBRANCH   3  17
TORSDOF 5
