REMARK  Name = ZINC08209310
REMARK  6 active torsions:
REMARK  status: ('A' for Active; 'I' for Inactive)
REMARK    1  A    between atoms: C_1  and  C_2
REMARK    2  A    between atoms: C_6  and  C_8
REMARK    3  A    between atoms: C_9  and  C_10
REMARK    4  A    between atoms: N_12  and  C_13
REMARK    5  A    between atoms: C_16  and  S_19
REMARK    6  A    between atoms: S_19  and  N_22
REMARK                            x       y       z     vdW  Elec       q    Type
REMARK                         _______ _______ _______ _____ _____    ______ ____
ROOT
ATOM      1  C   UNL     1       0.029  -6.948   4.913  0.00  0.00    +0.034 A 
ATOM      2  C   UNL     1      -0.076  -6.220   6.091  0.00  0.00    +0.025 A 
ATOM      3  C   UNL     1      -0.151  -6.878   7.303  0.00  0.00    +0.031 A 
ATOM      4  C   UNL     1      -0.121  -8.260   7.344  0.00  0.00    +0.113 A 
ATOM      5  C   UNL     1      -0.016  -8.988   6.173  0.00  0.00    +0.031 A 
ATOM      6  C   UNL     1       0.053  -8.336   4.957  0.00  0.00    +0.025 A 
ENDROOT
BRANCH   1   9
ATOM      7  C   UNL     1      -0.479  -6.819   2.593  0.00  0.00    +0.241 C 
ATOM      8  O   UNL     1      -0.999  -7.918   2.657  0.00  0.00    -0.270 OA
ATOM      9  N   UNL     1       0.104  -6.285   3.684  0.00  0.00    -0.282 N 
ATOM     10  H   UNL     1       0.577  -5.441   3.617  0.00  0.00    +0.155 HD
BRANCH   7  12
ATOM     11  C   UNL     1      -1.071  -6.613   0.239  0.00  0.00    +0.013 C 
ATOM     12  C   UNL     1      -0.487  -6.079   1.331  0.00  0.00    +0.068 C 
BRANCH  11  18
ATOM     13  C   UNL     1      -2.337  -6.308  -4.574  0.00  0.00    +0.044 C 
ATOM     14  C   UNL     1      -1.687  -5.716  -3.351  0.00  0.00    -0.050 A 
ATOM     15  C   UNL     1      -1.095  -4.466  -3.420  0.00  0.00    +0.003 A 
ATOM     16  C   UNL     1      -0.495  -3.914  -2.301  0.00  0.00    +0.001 A 
ATOM     17  C   UNL     1      -0.484  -4.606  -1.108  0.00  0.00    +0.008 A 
ATOM     18  C   UNL     1      -1.080  -5.868  -1.030  0.00  0.00    -0.025 A 
ATOM     19  C   UNL     1      -1.688  -6.417  -2.164  0.00  0.00    +0.011 A 
ENDBRANCH  11  18
ENDBRANCH   7  12
ENDBRANCH   1   9
BRANCH   4  20
ATOM     20  S   UNL     1      -0.217  -9.096   8.892  0.00  0.00    +0.100 S 
ATOM     21  O   UNL     1       0.380 -10.371   8.703  0.00  0.00    -0.146 OA
ATOM     22  O   UNL     1       0.240  -8.180   9.877  0.00  0.00    -0.146 OA
BRANCH  20  23
ATOM     23  N   UNL     1      -1.821  -9.366   9.205  0.00  0.00    -0.118 NA
ATOM     24  C   UNL     1      -2.175  -9.971  10.291  0.00  0.00    +0.117 C 
ATOM     25  N   UNL     1      -1.221 -10.403  11.225  0.00  0.00    -0.331 N 
ATOM     26  C   UNL     1      -1.193  -9.731  12.492  0.00  0.00    +0.102 C 
ATOM     27  C   UNL     1      -2.114 -10.310  13.578  0.00  0.00    +0.019 C 
ATOM     28  C   UNL     1      -3.487 -10.698  12.974  0.00  0.00    +0.002 C 
ATOM     29  C   UNL     1      -3.989  -9.700  11.968  0.00  0.00    +0.008 C 
ATOM     30  C   UNL     1      -3.570 -10.220  10.590  0.00  0.00    +0.073 C 
ATOM     31  H   UNL     1      -0.607 -11.127  11.023  0.00  0.00    +0.147 HD
ENDBRANCH  20  23
ENDBRANCH   4  20
TORSDOF 5
