REMARK  Name = ZINC06743217
REMARK  10 active torsions:
REMARK  status: ('A' for Active; 'I' for Inactive)
REMARK    1  A    between atoms: C_1  and  C_2
REMARK    2  A    between atoms: C_5  and  C_8
REMARK    3  A    between atoms: C_11  and  C_23
REMARK    4  A    between atoms: N_18  and  C_19
REMARK    5  A    between atoms: C_19  and  C_20
REMARK    6  A    between atoms: C_20  and  C_21
REMARK    7  A    between atoms: C_21  and  O_22
REMARK    8  A    between atoms: C_24  and  C_31
REMARK    9  A    between atoms: C_26  and  C_30
REMARK   10  A    between atoms: C_28  and  O_29
REMARK                            x       y       z     vdW  Elec       q    Type
REMARK                         _______ _______ _______ _____ _____    ______ ____
ROOT
ATOM      1  C   UNL     1       0.064  -4.299  -0.039  0.00  0.00    +0.141 C 
ATOM      2  C   UNL     1      -1.277  -4.822   0.397  0.00  0.00    +0.035 A 
ATOM      3  C   UNL     1      -2.653  -4.890   0.152  0.00  0.00    +0.102 A 
ATOM      4  N   UNL     1      -3.188  -5.628   1.105  0.00  0.00    -0.173 NA
ATOM      5  N   UNL     1      -2.286  -6.032   1.927  0.00  0.00    -0.272 N 
ATOM      6  H   UNL     1      -2.451  -6.588   2.705  0.00  0.00    +0.189 HD
ATOM      7  C   UNL     1      -1.062  -5.563   1.543  0.00  0.00    +0.126 A 
ATOM      8  C   UNL     1       0.371  -5.532   1.856  0.00  0.00    +0.265 C 
ATOM      9  O   UNL     1       0.886  -6.090   2.807  0.00  0.00    -0.268 OA
ATOM     10  N   UNL     1       1.036  -4.800   0.942  0.00  0.00    -0.285 N 
ENDROOT
BRANCH   3  11
ATOM     11  C   UNL     1      -3.377  -4.249  -0.974  0.00  0.00    +0.047 A 
ATOM     12  C   UNL     1      -4.519  -3.490  -0.729  0.00  0.00    -0.037 A 
ATOM     13  C   UNL     1      -5.189  -2.896  -1.779  0.00  0.00    +0.007 A 
ATOM     14  C   UNL     1      -4.731  -3.052  -3.076  0.00  0.00    -0.047 A 
ATOM     15  C   UNL     1      -3.600  -3.804  -3.329  0.00  0.00    +0.049 A 
ATOM     16  C   UNL     1      -2.914  -4.401  -2.284  0.00  0.00    +0.127 A 
ATOM     17  C   UNL     1      -5.470  -2.400  -4.216  0.00  0.00    +0.044 C 
ATOM     18  C   UNL     1      -5.022  -3.318   0.681  0.00  0.00    +0.044 C 
BRANCH  16  19
ATOM     19  O   UNL     1      -1.798  -5.135  -2.531  0.00  0.00    -0.506 OA
ATOM     20  H   UNL     1      -1.977  -6.054  -2.771  0.00  0.00    +0.292 HD
ENDBRANCH  16  19
ENDBRANCH   3  11
BRANCH   1  25
ATOM     21  C   UNL     1       0.036   1.480  -0.040  0.00  0.00    +0.044 C 
ATOM     22  C   UNL     1       0.043  -0.028  -0.040  0.00  0.00    -0.050 A 
ATOM     23  C   UNL     1       0.124  -0.719  -1.234  0.00  0.00    +0.004 A 
ATOM     24  C   UNL     1       0.130  -2.101  -1.234  0.00  0.00    +0.006 A 
ATOM     25  C   UNL     1       0.058  -2.792  -0.039  0.00  0.00    -0.022 A 
ATOM     26  C   UNL     1      -0.022  -2.101   1.156  0.00  0.00    +0.006 A 
ATOM     27  C   UNL     1      -0.024  -0.719   1.156  0.00  0.00    +0.004 A 
ENDBRANCH   1  25
BRANCH  10  28
ATOM     28  C   UNL     1       2.478  -4.546   0.928  0.00  0.00    +0.111 C 
BRANCH  28  29
ATOM     29  C   UNL     1       2.781  -3.276   1.725  0.00  0.00    +0.047 C 
BRANCH  29  30
ATOM     30  C   UNL     1       4.287  -3.011   1.710  0.00  0.00    +0.157 C 
BRANCH  30  31
ATOM     31  O   UNL     1       4.570  -1.824   2.455  0.00  0.00    -0.395 OA
ATOM     32  H   UNL     1       5.508  -1.595   2.488  0.00  0.00    +0.209 HD
ENDBRANCH  30  31
ENDBRANCH  29  30
ENDBRANCH  28  29
ENDBRANCH  10  28
TORSDOF 7
