REMARK  Name = ZINC48629170
REMARK  5 active torsions:
REMARK  status: ('A' for Active; 'I' for Inactive)
REMARK    1  A    between atoms: C_1  and  C_2
REMARK    2  A    between atoms: C_2  and  C_4
REMARK    3  A    between atoms: C_2  and  O_20
REMARK    4  A    between atoms: N_6  and  C_7
REMARK    5  A    between atoms: O_20  and  C_21
REMARK                            x       y       z     vdW  Elec       q    Type
REMARK                         _______ _______ _______ _____ _____    ______ ____
ROOT
ATOM      1  C   UNL     1       0.984  -0.682   3.555  0.00  0.00    +0.037 A 
ATOM      2  C   UNL     1       2.222  -1.281   3.363  0.00  0.00    +0.027 A 
ATOM      3  C   UNL     1       2.974  -1.682   4.450  0.00  0.00    +0.051 A 
ATOM      4  C   UNL     1       2.495  -1.488   5.734  0.00  0.00    +0.167 A 
ATOM      5  C   UNL     1       1.252  -0.887   5.930  0.00  0.00    +0.169 A 
ATOM      6  C   UNL     1       0.502  -0.481   4.841  0.00  0.00    +0.073 A 
ATOM      7  O   UNL     1       1.018  -0.812   7.279  0.00  0.00    -0.447 OA
ATOM      8  C   UNL     1       1.891  -1.805   7.836  0.00  0.00    +0.254 C 
ATOM      9  O   UNL     1       3.029  -1.785   6.962  0.00  0.00    -0.448 OA
ATOM     10  C   UNL     1       2.289  -1.448   9.273  0.00  0.00    +0.093 C 
ATOM     11  C   UNL     1       1.347  -2.317  10.148  0.00  0.00    +0.008 C 
ATOM     12  C   UNL     1       1.249  -3.638   9.342  0.00  0.00    +0.008 C 
ATOM     13  C   UNL     1       1.229  -3.182   7.866  0.00  0.00    +0.093 C 
ENDROOT
BRANCH   1  16
ATOM     14  C   UNL     1      -0.528   0.840   2.524  0.00  0.00    +0.246 C 
ATOM     15  O   UNL     1      -0.612   1.447   3.570  0.00  0.00    -0.273 OA
ATOM     16  N   UNL     1       0.223  -0.277   2.451  0.00  0.00    -0.283 N 
ATOM     17  H   UNL     1       0.237  -0.799   1.633  0.00  0.00    +0.155 HD
BRANCH  14  19
ATOM     18  C   UNL     1      -2.331   0.313   0.904  0.00  0.00    +0.048 C 
ATOM     19  C   UNL     1      -1.264   1.334   1.305  0.00  0.00    +0.200 C 
BRANCH  19  20
ATOM     20  O   UNL     1      -1.889   2.585   1.600  0.00  0.00    -0.371 OA
ATOM     21  C   UNL     1      -2.017   3.452   0.471  0.00  0.00    +0.195 C 
ENDBRANCH  19  20
ENDBRANCH  14  19
ENDBRANCH   1  16
TORSDOF 3
