REMARK  Name = ZINC08892892
REMARK  5 active torsions:
REMARK  status: ('A' for Active; 'I' for Inactive)
REMARK    1  A    between atoms: C_1  and  C_2
REMARK    2  A    between atoms: C_5  and  S_8
REMARK    3  A    between atoms: S_8  and  N_11
REMARK    4  A    between atoms: C_15  and  C_17
REMARK    5  A    between atoms: C_23  and  C_25
REMARK                            x       y       z     vdW  Elec       q    Type
REMARK                         _______ _______ _______ _____ _____    ______ ____
ROOT
ATOM      1  C   UNL     1       3.373   0.002  -0.019  0.00  0.00    +0.239 C 
ATOM      2  O   UNL     1       3.286  -1.130  -0.446  0.00  0.00    -0.274 OA
ATOM      3  N   UNL     1       4.514   0.700  -0.187  0.00  0.00    -0.237 N 
ATOM      4  C   UNL     1       5.587   0.124  -0.849  0.00  0.00    +0.314 A 
ATOM      5  N   UNL     1       5.629  -1.085  -1.353  0.00  0.00    -0.092 NA
ATOM      6  N   UNL     1       6.779  -1.283  -1.896  0.00  0.00    -0.106 NA
ATOM      7  C   UNL     1       7.518  -0.210  -1.752  0.00  0.00    +0.250 A 
ATOM      8  O   UNL     1       6.779   0.703  -1.086  0.00  0.00    -0.405 OA
ATOM      9  H   UNL     1       4.583   1.605   0.155  0.00  0.00    +0.159 HD
ENDROOT
BRANCH   7  10
ATOM     10  C   UNL     1       8.905  -0.033  -2.230  0.00  0.00    +0.039 A 
ATOM     11  C   UNL     1       9.573   1.173  -2.010  0.00  0.00    +0.014 A 
ATOM     12  C   UNL     1      10.870   1.331  -2.455  0.00  0.00    +0.016 A 
ATOM     13  C   UNL     1      11.504   0.300  -3.127  0.00  0.00    +0.018 A 
ATOM     14  C   UNL     1      10.845  -0.896  -3.353  0.00  0.00    +0.016 A 
ATOM     15  C   UNL     1       9.550  -1.068  -2.909  0.00  0.00    +0.014 A 
ATOM     16 BR   UNL     1      13.278   0.527  -3.740  0.00  0.00    -0.050 Br
ENDBRANCH   7  10
BRANCH   1  21
ATOM     17  N   UNL     1       1.376  -0.420   1.313  0.00  0.00    -0.165 NA
ATOM     18  C   UNL     1       0.028  -0.363   0.719  0.00  0.00    +0.110 C 
ATOM     19  C   UNL     1      -0.118   1.092   0.208  0.00  0.00    +0.019 C 
ATOM     20  C   UNL     1       1.316   1.387  -0.305  0.00  0.00    +0.031 C 
ATOM     21  C   UNL     1       2.206   0.627   0.701  0.00  0.00    +0.166 C 
BRANCH  17  22
ATOM     22  S   UNL     1       1.873  -1.488   2.478  0.00  0.00    +0.062 S 
ATOM     23  O   UNL     1       1.110  -2.672   2.295  0.00  0.00    -0.153 OA
ATOM     24  O   UNL     1       3.294  -1.485   2.451  0.00  0.00    -0.153 OA
BRANCH  22  29
ATOM     25  C   UNL     1       0.243   0.806   7.815  0.00  0.00    +0.044 C 
ATOM     26  C   UNL     1       0.650   0.234   6.482  0.00  0.00    -0.050 A 
ATOM     27  C   UNL     1      -0.164  -0.686   5.847  0.00  0.00    +0.005 A 
ATOM     28  C   UNL     1       0.209  -1.212   4.624  0.00  0.00    +0.029 A 
ATOM     29  C   UNL     1       1.397  -0.818   4.036  0.00  0.00    +0.106 A 
ATOM     30  C   UNL     1       2.213   0.098   4.673  0.00  0.00    +0.029 A 
ATOM     31  C   UNL     1       1.837   0.627   5.894  0.00  0.00    +0.005 A 
ENDBRANCH  22  29
ENDBRANCH  17  22
ENDBRANCH   1  21
TORSDOF 4
