REMARK  Name = ZINC36296817
REMARK  11 active torsions:
REMARK  status: ('A' for Active; 'I' for Inactive)
REMARK    1  A    between atoms: C_1  and  C_2
REMARK    2  A    between atoms: C_2  and  O_3
REMARK    3  A    between atoms: O_3  and  C_4
REMARK    4  A    between atoms: C_9  and  C_10
REMARK    5  A    between atoms: C_15  and  C_22
REMARK    6  A    between atoms: C_16  and  C_18
REMARK    7  A    between atoms: C_18  and  C_19
REMARK    8  A    between atoms: C_18  and  C_20
REMARK    9  A    between atoms: C_18  and  C_21
REMARK   10  A    between atoms: C_22  and  C_23
REMARK   11  A    between atoms: C_23  and  N_24
REMARK                            x       y       z     vdW  Elec       q    Type
REMARK                         _______ _______ _______ _____ _____    ______ ____
ROOT
ATOM      1  C   UNL     1       2.170  -1.388  -4.910  0.00  0.00    +0.066 A 
ATOM      2  C   UNL     1       1.645  -0.575  -5.847  0.00  0.00    +0.075 A 
ATOM      3  S   UNL     1       3.034   0.473  -6.249  0.00  0.00    -0.057 S 
ATOM      4  C   UNL     1       4.213  -0.254  -5.134  0.00  0.00    +0.178 A 
ATOM      5  N   UNL     1       3.489  -1.241  -4.520  0.00  0.00    -0.290 N 
ATOM      6  C   UNL     1       4.380  -1.834  -3.630  0.00  0.00    +0.046 A 
ATOM      7  C   UNL     1       5.556  -1.195  -3.742  0.00  0.00    +0.069 A 
ATOM      8  N   UNL     1       5.431  -0.237  -4.674  0.00  0.00    -0.225 NA
ENDROOT
BRANCH   1  14
ATOM      9  C   UNL     1       0.361  -2.094  -3.343  0.00  0.00    +0.130 A 
ATOM     10  C   UNL     1      -0.424  -3.082  -2.774  0.00  0.00    +0.046 A 
ATOM     11  C   UNL     1      -0.244  -4.404  -3.137  0.00  0.00    +0.004 A 
ATOM     12  C   UNL     1       0.718  -4.749  -4.070  0.00  0.00    +0.001 A 
ATOM     13  C   UNL     1       1.508  -3.775  -4.646  0.00  0.00    +0.013 A 
ATOM     14  C   UNL     1       1.331  -2.437  -4.292  0.00  0.00    +0.041 A 
BRANCH   9  15
ATOM     15  O   UNL     1       0.185  -0.794  -2.987  0.00  0.00    -0.492 OA
BRANCH  15  17
ATOM     16  C   UNL     1      -0.875   0.986  -1.742  0.00  0.00    +0.048 C 
ATOM     17  C   UNL     1      -0.824  -0.519  -2.013  0.00  0.00    +0.226 C 
ENDBRANCH  15  17
ENDBRANCH   9  15
ENDBRANCH   1  14
BRANCH   7  18
ATOM     18  C   UNL     1       6.807  -1.507  -2.962  0.00  0.00    +0.006 C 
ATOM     19  C   UNL     1       7.156  -2.987  -3.129  0.00  0.00    +0.017 C 
ATOM     20  C   UNL     1       7.962  -0.649  -3.484  0.00  0.00    +0.017 C 
ATOM     21  C   UNL     1       6.574  -1.202  -1.481  0.00  0.00    +0.017 C 
ENDBRANCH   7  18
BRANCH   6  22
ATOM     22  C   UNL     1       4.079  -2.985  -2.705  0.00  0.00    +0.036 C 
BRANCH  22  23
ATOM     23  C   UNL     1       4.274  -4.305  -3.454  0.00  0.00    -0.080 C 
BRANCH  23  24
ATOM     24  N   UNL     1       3.862  -5.422  -2.594  0.00  0.00    +0.378 N 
ATOM     25  H   UNL     1       4.422  -5.425  -1.755  0.00  0.00    -0.090 HD
ATOM     26  H   UNL     1       2.889  -5.316  -2.348  0.00  0.00    -0.090 HD
ATOM     27  H   UNL     1       3.991  -6.292  -3.087  0.00  0.00    -0.090 HD
ENDBRANCH  23  24
ENDBRANCH  22  23
ENDBRANCH   6  22
TORSDOF 7
