REMARK  Name = ZINC21084565
REMARK  7 active torsions:
REMARK  status: ('A' for Active; 'I' for Inactive)
REMARK    1  A    between atoms: C_4  and  C_7
REMARK    2  A    between atoms: C_7  and  C_8
REMARK    3  A    between atoms: C_7  and  N_14
REMARK    4  A    between atoms: C_15  and  C_17
REMARK    5  A    between atoms: C_17  and  S_18
REMARK    6  A    between atoms: S_18  and  C_19
REMARK    7  A    between atoms: N_24  and  N_25
REMARK                            x       y       z     vdW  Elec       q    Type
REMARK                         _______ _______ _______ _____ _____    ______ ____
ROOT
ATOM      1  N   UNL     1       7.828   4.778   1.212  0.00  0.00    -0.304 N 
ATOM      2  C   UNL     1       7.168   3.632   0.952  0.00  0.00    +0.224 C 
ATOM      3  O   UNL     1       7.783   2.599   0.797  0.00  0.00    -0.275 OA
ATOM      4  H   UNL     1       7.270   5.715   1.352  0.00  0.00    +0.150 HD
ENDROOT
BRANCH   1   5
ATOM      5  C   UNL     1       9.290   4.775   1.307  0.00  0.00    +0.134 C 
BRANCH   5   9
ATOM      6  C   UNL     1      10.784   8.674   0.406  0.00  0.00    +0.000 A 
ATOM      7  C   UNL     1      11.448   7.554  -0.060  0.00  0.00    +0.000 A 
ATOM      8  C   UNL     1      10.965   6.293   0.231  0.00  0.00    +0.006 A 
ATOM      9  C   UNL     1       9.817   6.150   0.989  0.00  0.00    -0.023 A 
ATOM     10  C   UNL     1       9.151   7.269   1.451  0.00  0.00    +0.006 A 
ATOM     11  C   UNL     1       9.637   8.531   1.164  0.00  0.00    +0.000 A 
ENDBRANCH   5   9
BRANCH   5  12
ATOM     12  C   UNL     1       9.701   4.389   2.705  0.00  0.00    -0.023 A 
ATOM     13  C   UNL     1       8.999   4.877   3.791  0.00  0.00    +0.006 A 
ATOM     14  C   UNL     1       9.374   4.520   5.073  0.00  0.00    +0.000 A 
ATOM     15  C   UNL     1      10.456   3.683   5.269  0.00  0.00    +0.000 A 
ATOM     16  C   UNL     1      11.162   3.200   4.183  0.00  0.00    +0.000 A 
ATOM     17  C   UNL     1      10.784   3.553   2.901  0.00  0.00    +0.006 A 
ENDBRANCH   5  12
ENDBRANCH   1   5
BRANCH   2  18
ATOM     18  C   UNL     1       5.664   3.636   0.853  0.00  0.00    +0.173 C 
BRANCH  18  19
ATOM     19  S   UNL     1       5.077   1.956   0.497  0.00  0.00    -0.075 S 
BRANCH  19  20
ATOM     20  C   UNL     1       3.325   2.125   0.414  0.00  0.00    +0.211 A 
ATOM     21  N   UNL     1       2.433   1.121   0.166  0.00  0.00    -0.186 NA
ATOM     22  C   UNL     1       1.176   1.659   0.184  0.00  0.00    +0.232 A 
ATOM     23  N   UNL     1       1.288   2.942   0.428  0.00  0.00    -0.245 N 
ATOM     24  N   UNL     1       2.649   3.237   0.579  0.00  0.00    -0.144 NA
ATOM     25  N   UNL     1      -0.010   0.969  -0.025  0.00  0.00    -0.205 N 
ATOM     26  H   UNL     1       0.011  -0.113  -0.224  0.00  0.00    +0.177 HD
ATOM     27  H   UNL     1       0.388   3.573   0.480  0.00  0.00    +0.192 HD
BRANCH  25  28
ATOM     28  N   UNL     1      -1.234   1.650   0.017  0.00  0.00    -0.189 NA
ATOM     29  C   UNL     1      -2.332   0.998  -0.073  0.00  0.00    +0.037 C 
ATOM     30  C   UNL     1      -2.338  -0.514  -0.083  0.00  0.00    +0.052 C 
ATOM     31  C   UNL     1      -3.337  -1.000   0.979  0.00  0.00    +0.006 C 
ATOM     32  C   UNL     1      -4.703  -0.363   0.720  0.00  0.00    +0.001 C 
ATOM     33  C   UNL     1      -4.606   1.155   0.883  0.00  0.00    +0.006 C 
ATOM     34  C   UNL     1      -3.657   1.722  -0.177  0.00  0.00    +0.052 C 
ENDBRANCH  25  28
ENDBRANCH  19  20
ENDBRANCH  18  19
ENDBRANCH   2  18
TORSDOF 7
