REMARK  Name = ZINC36344130
REMARK  13 active torsions:
REMARK  status: ('A' for Active; 'I' for Inactive)
REMARK    1  A    between atoms: C_1  and  C_2
REMARK    2  A    between atoms: C_2  and  O_3
REMARK    3  A    between atoms: O_3  and  C_4
REMARK    4  A    between atoms: C_7  and  C_10
REMARK    5  A    between atoms: C_13  and  C_30
REMARK    6  A    between atoms: C_16  and  C_18
REMARK    7  A    between atoms: C_18  and  N_19
REMARK    8  A    between atoms: C_22  and  C_25
REMARK    9  A    between atoms: C_25  and  O_27
REMARK   10  A    between atoms: O_27  and  C_28
REMARK   11  A    between atoms: C_28  and  C_29
REMARK   12  A    between atoms: C_33  and  C_37
REMARK   13  A    between atoms: C_35  and  C_36
REMARK                            x       y       z     vdW  Elec       q    Type
REMARK                         _______ _______ _______ _____ _____    ______ ____
ROOT
ATOM      1  C   UNL     1       1.261  -5.293   2.294  0.00  0.00    +0.137 C 
ATOM      2  C   UNL     1       0.212  -5.963   3.203  0.00  0.00    +0.087 C 
ATOM      3  C   UNL     1       1.037  -6.787   4.165  0.00  0.00    +0.069 C 
ATOM      4  N   UNL     1       2.288  -6.642   3.894  0.00  0.00    -0.181 NA
ATOM      5  N   UNL     1       2.544  -5.791   2.816  0.00  0.00    -0.187 N 
ATOM      6  C   UNL     1       3.762  -5.476   2.333  0.00  0.00    +0.219 C 
ATOM      7  O   UNL     1       3.864  -4.722   1.389  0.00  0.00    -0.276 OA
ENDROOT
BRANCH   3   8
ATOM      8  C   UNL     1       0.494  -7.628   5.248  0.00  0.00    +0.001 A 
ATOM      9  C   UNL     1      -0.876  -7.618   5.524  0.00  0.00    +0.010 A 
ATOM     10  C   UNL     1      -1.377  -8.407   6.538  0.00  0.00    +0.004 A 
ATOM     11  C   UNL     1      -0.527  -9.206   7.283  0.00  0.00    -0.050 A 
ATOM     12  C   UNL     1       0.830  -9.220   7.016  0.00  0.00    +0.007 A 
ATOM     13  C   UNL     1       1.345  -8.441   6.000  0.00  0.00    -0.041 A 
ATOM     14  C   UNL     1       2.823  -8.462   5.706  0.00  0.00    +0.044 C 
ATOM     15  C   UNL     1      -1.082 -10.064   8.390  0.00  0.00    +0.044 C 
ENDBRANCH   3   8
BRANCH   1  19
ATOM     16  C   UNL     1       1.048  -1.038   2.637  0.00  0.00    +0.121 A 
ATOM     17  C   UNL     1       0.491  -1.675   1.538  0.00  0.00    +0.046 A 
ATOM     18  C   UNL     1       0.562  -3.051   1.429  0.00  0.00    +0.009 A 
ATOM     19  C   UNL     1       1.186  -3.792   2.415  0.00  0.00    -0.024 A 
ATOM     20  C   UNL     1       1.741  -3.160   3.512  0.00  0.00    +0.009 A 
ATOM     21  C   UNL     1       1.679  -1.784   3.622  0.00  0.00    +0.046 A 
BRANCH  16  22
ATOM     22  O   UNL     1       0.980   0.315   2.746  0.00  0.00    -0.492 OA
BRANCH  22  24
ATOM     23  C   UNL     1       0.340   2.519   1.990  0.00  0.00    +0.048 C 
ATOM     24  C   UNL     1       0.316   1.018   1.695  0.00  0.00    +0.225 C 
ENDBRANCH  22  24
ENDBRANCH  16  22
ENDBRANCH   1  19
BRANCH   6  25
ATOM     25  C   UNL     1       4.998  -6.061   2.967  0.00  0.00    +0.021 C 
BRANCH  25  26
ATOM     26  N   UNL     1       6.189  -5.567   2.264  0.00  0.00    +0.385 N 
ATOM     27  C   UNL     1       6.298  -4.115   2.449  0.00  0.00    -0.077 C 
ATOM     28  C   UNL     1       7.492  -3.583   1.653  0.00  0.00    -0.004 C 
ATOM     29  C   UNL     1       8.772  -4.260   2.149  0.00  0.00    +0.094 C 
ATOM     30  C   UNL     1       8.618  -5.779   2.020  0.00  0.00    -0.004 C 
ATOM     31  C   UNL     1       7.383  -6.229   2.804  0.00  0.00    -0.077 C 
ATOM     32  H   UNL     1       6.108  -5.774   1.280  0.00  0.00    -0.081 HD
BRANCH  29  33
ATOM     33  C   UNL     1       9.941  -3.800   1.317  0.00  0.00    +0.310 C 
ATOM     34  O   UNL     1       9.769  -3.011   0.418  0.00  0.00    -0.251 OA
BRANCH  33  35
ATOM     35  O   UNL     1      11.173  -4.266   1.574  0.00  0.00    -0.465 OA
BRANCH  35  36
ATOM     36  C   UNL     1      12.234  -3.787   0.745  0.00  0.00    +0.229 C 
ATOM     37  C   UNL     1      13.553  -4.425   1.186  0.00  0.00    +0.048 C 
ENDBRANCH  35  36
ENDBRANCH  33  35
ENDBRANCH  29  33
ENDBRANCH  25  26
ENDBRANCH   6  25
TORSDOF 9
