REMARK  Name = ZINC13673478
REMARK  13 active torsions:
REMARK  status: ('A' for Active; 'I' for Inactive)
REMARK    1  A    between atoms: C_1  and  C_2
REMARK    2  A    between atoms: C_5  and  S_8
REMARK    3  A    between atoms: S_8  and  N_11
REMARK    4  A    between atoms: N_11  and  C_12
REMARK    5  A    between atoms: C_16  and  C_19
REMARK    6  A    between atoms: C_17  and  C_18
REMARK    7  A    between atoms: N_21  and  C_22
REMARK    8  A    between atoms: C_22  and  C_24
REMARK    9  A    between atoms: C_22  and  C_25
REMARK   10  A    between atoms: C_28  and  C_31
REMARK   11  A    between atoms: C_31  and  C_32
REMARK   12  A    between atoms: C_31  and  C_33
REMARK   13  A    between atoms: C_31  and  C_34
REMARK                            x       y       z     vdW  Elec       q    Type
REMARK                         _______ _______ _______ _____ _____    ______ ____
ROOT
ATOM      1  C   UNL     1      -1.312   3.427   2.481  0.00  0.00    +0.052 A 
ATOM      2  C   UNL     1      -0.615   4.571   2.107  0.00  0.00    +0.025 A 
ATOM      3  C   UNL     1       0.394   5.065   2.912  0.00  0.00    +0.003 A 
ATOM      4  C   UNL     1       0.716   4.428   4.093  0.00  0.00    +0.013 A 
ATOM      5  C   UNL     1       0.022   3.279   4.478  0.00  0.00    +0.041 A 
ATOM      6  C   UNL     1      -1.000   2.783   3.669  0.00  0.00    -0.016 A 
ATOM      7  C   UNL     1      -1.758   1.548   4.080  0.00  0.00    +0.046 C 
ENDROOT
BRANCH   5   8
ATOM      8  C   UNL     1       0.366   2.594   5.743  0.00  0.00    +0.245 C 
ATOM      9  O   UNL     1      -0.155   1.531   6.019  0.00  0.00    -0.270 OA
ATOM     10  N   UNL     1       1.255   3.149   6.589  0.00  0.00    -0.305 N 
ATOM     11  H   UNL     1       1.671   3.998   6.369  0.00  0.00    +0.150 HD
BRANCH  10  12
ATOM     12  C   UNL     1       1.595   2.471   7.843  0.00  0.00    +0.100 C 
ATOM     13  C   UNL     1       0.568   2.836   8.915  0.00  0.00    +0.033 C 
BRANCH  12  14
ATOM     14  C   UNL     1       2.967   2.904   8.292  0.00  0.00    -0.027 A 
ATOM     15  C   UNL     1       3.354   4.224   8.157  0.00  0.00    +0.006 A 
ATOM     16  C   UNL     1       4.610   4.623   8.574  0.00  0.00    +0.004 A 
ATOM     17  C   UNL     1       5.483   3.699   9.117  0.00  0.00    -0.042 A 
ATOM     18  C   UNL     1       5.098   2.378   9.248  0.00  0.00    +0.004 A 
ATOM     19  C   UNL     1       3.840   1.980   8.835  0.00  0.00    +0.006 A 
BRANCH  17  20
ATOM     20  C   UNL     1       6.854   4.132   9.567  0.00  0.00    -0.013 C 
ATOM     21  C   UNL     1       7.917   3.359   8.783  0.00  0.00    +0.015 C 
ATOM     22  C   UNL     1       7.024   5.632   9.313  0.00  0.00    +0.015 C 
ATOM     23  C   UNL     1       7.015   3.846  11.061  0.00  0.00    +0.015 C 
ENDBRANCH  17  20
ENDBRANCH  12  14
ENDBRANCH  10  12
ENDBRANCH   5   8
BRANCH   1  24
ATOM     24  N   UNL     1      -2.331   2.931   1.664  0.00  0.00    -0.216 N 
ATOM     25  H   UNL     1      -3.117   2.525   2.062  0.00  0.00    +0.174 HD
BRANCH  24  26
ATOM     26  S   UNL     1      -2.196   3.036   0.017  0.00  0.00    +0.072 S 
ATOM     27  O   UNL     1      -1.932   4.400  -0.283  0.00  0.00    -0.150 OA
ATOM     28  O   UNL     1      -3.308   2.337  -0.527  0.00  0.00    -0.150 OA
BRANCH  26  33
ATOM     29  C   UNL     1       2.729  -0.059  -1.588  0.00  0.00    +0.044 C 
ATOM     30  C   UNL     1       1.499   0.714  -1.186  0.00  0.00    -0.050 A 
ATOM     31  C   UNL     1       0.275   0.076  -1.115  0.00  0.00    +0.005 A 
ATOM     32  C   UNL     1      -0.853   0.785  -0.745  0.00  0.00    +0.029 A 
ATOM     33  C   UNL     1      -0.757   2.131  -0.446  0.00  0.00    +0.109 A 
ATOM     34  C   UNL     1       0.468   2.768  -0.517  0.00  0.00    +0.029 A 
ATOM     35  C   UNL     1       1.595   2.060  -0.887  0.00  0.00    +0.005 A 
ENDBRANCH  26  33
ENDBRANCH  24  26
ENDBRANCH   1  24
TORSDOF 7
