REMARK  Name = ZINC38636164
REMARK  10 active torsions:
REMARK  status: ('A' for Active; 'I' for Inactive)
REMARK    1  A    between atoms: C_1  and  C_2
REMARK    2  A    between atoms: C_4  and  S_10
REMARK    3  A    between atoms: S_10  and  N_13
REMARK    4  A    between atoms: N_13  and  C_14
REMARK    5  A    between atoms: C_14  and  C_15
REMARK    6  A    between atoms: C_15  and  C_17
REMARK    7  A    between atoms: C_15  and  N_26
REMARK    8  A    between atoms: C_20  and  N_23
REMARK    9  A    between atoms: N_23  and  C_24
REMARK   10  A    between atoms: N_23  and  C_25
REMARK                            x       y       z     vdW  Elec       q    Type
REMARK                         _______ _______ _______ _____ _____    ______ ____
ROOT
ATOM      1  C   UNL     1       3.009  -5.527  -2.470  0.00  0.00    -0.022 C 
ENDROOT
BRANCH   1   2
ATOM      2  C   UNL     1       3.252  -6.769  -1.651  0.00  0.00    -0.060 A 
ATOM      3  C   UNL     1       2.490  -7.901  -1.873  0.00  0.00    +0.004 A 
ATOM      4  C   UNL     1       2.710  -9.041  -1.125  0.00  0.00    +0.023 A 
ATOM      5  C   UNL     1       3.698  -9.049  -0.149  0.00  0.00    +0.029 A 
ATOM      6  C   UNL     1       4.462  -7.910   0.072  0.00  0.00    +0.023 A 
ATOM      7  C   UNL     1       4.240  -6.775  -0.684  0.00  0.00    +0.004 A 
BRANCH   5   8
ATOM      8  N   UNL     1       3.923 -10.200   0.610  0.00  0.00    -0.336 N 
ATOM      9  C   UNL     1       3.116 -11.400   0.377  0.00  0.00    +0.129 C 
ATOM     10  C   UNL     1       4.965 -10.207   1.640  0.00  0.00    +0.129 C 
ENDBRANCH   5   8
ENDBRANCH   1   2
BRANCH   1  11
ATOM     11  N   UNL     1       2.744  -5.904  -3.864  0.00  0.00    +0.385 N 
ATOM     12  C   UNL     1       2.660  -4.690  -4.716  0.00  0.00    -0.078 C 
ATOM     13  C   UNL     1       2.948  -5.234  -6.138  0.00  0.00    -0.020 C 
ATOM     14  C   UNL     1       4.029  -6.310  -5.884  0.00  0.00    -0.020 C 
ATOM     15  C   UNL     1       3.870  -6.697  -4.402  0.00  0.00    -0.078 C 
ATOM     16  H   UNL     1       1.886  -6.432  -3.925  0.00  0.00    -0.081 HD
ENDBRANCH   1  11
BRANCH   1  17
ATOM     17  C   UNL     1       1.803  -4.773  -1.907  0.00  0.00    +0.095 C 
BRANCH  17  18
ATOM     18  N   UNL     1       2.113  -4.293  -0.557  0.00  0.00    -0.191 NA
ATOM     19  H   UNL     1       2.882  -4.645  -0.083  0.00  0.00    +0.148 HD
BRANCH  18  20
ATOM     20  S   UNL     1       1.151  -3.151   0.157  0.00  0.00    +0.060 S 
ATOM     21  O   UNL     1       0.980  -2.110  -0.796  0.00  0.00    -0.153 OA
ATOM     22  O   UNL     1       1.689  -2.918   1.451  0.00  0.00    -0.153 OA
BRANCH  20  26
ATOM     23  C   UNL     1      -2.682  -4.887   3.257  0.00  0.00    +0.045 C 
ATOM     24  C   UNL     1      -2.160  -4.660   1.862  0.00  0.00    -0.030 A 
ATOM     25  C   UNL     1      -0.915  -4.088   1.674  0.00  0.00    +0.034 A 
ATOM     26  C   UNL     1      -0.435  -3.881   0.395  0.00  0.00    +0.124 A 
ATOM     27  C   UNL     1      -1.200  -4.246  -0.699  0.00  0.00    +0.069 A 
ATOM     28  C   UNL     1      -2.445  -4.818  -0.512  0.00  0.00    +0.042 A 
ATOM     29  C   UNL     1      -2.923  -5.030   0.769  0.00  0.00    +0.045 A 
ATOM     30 CL   UNL     1      -4.483  -5.755   1.005  0.00  0.00    -0.083 Cl
ATOM     31 CL   UNL     1      -0.598  -3.984  -2.306  0.00  0.00    -0.081 Cl
ENDBRANCH  20  26
ENDBRANCH  18  20
ENDBRANCH  17  18
ENDBRANCH   1  17
TORSDOF 7
