REMARK  Name = ZINC36342499
REMARK  8 active torsions:
REMARK  status: ('A' for Active; 'I' for Inactive)
REMARK    1  A    between atoms: C_1  and  C_2
REMARK    2  A    between atoms: C_5  and  C_8
REMARK    3  A    between atoms: C_11  and  C_26
REMARK    4  A    between atoms: C_14  and  C_16
REMARK    5  A    between atoms: C_16  and  N_17
REMARK    6  A    between atoms: C_20  and  C_23
REMARK    7  A    between atoms: C_29  and  C_33
REMARK    8  A    between atoms: C_31  and  C_32
REMARK                            x       y       z     vdW  Elec       q    Type
REMARK                         _______ _______ _______ _____ _____    ______ ____
ROOT
ATOM      1  C   UNL     1      -0.152  -5.109  -0.398  0.00  0.00    +0.137 C 
ATOM      2  C   UNL     1       1.306  -5.455  -0.037  0.00  0.00    +0.087 C 
ATOM      3  C   UNL     1       1.209  -6.030   1.358  0.00  0.00    +0.069 C 
ATOM      4  N   UNL     1      -0.021  -6.028   1.740  0.00  0.00    -0.181 NA
ATOM      5  N   UNL     1      -0.912  -5.513   0.796  0.00  0.00    -0.187 N 
ATOM      6  C   UNL     1      -2.246  -5.403   0.951  0.00  0.00    +0.219 C 
ATOM      7  O   UNL     1      -2.924  -4.938   0.059  0.00  0.00    -0.276 OA
ENDROOT
BRANCH   3   8
ATOM      8  C   UNL     1       2.348  -6.519   2.158  0.00  0.00    +0.001 A 
ATOM      9  C   UNL     1       3.626  -6.581   1.595  0.00  0.00    +0.010 A 
ATOM     10  C   UNL     1       4.686  -7.040   2.349  0.00  0.00    +0.004 A 
ATOM     11  C   UNL     1       4.486  -7.438   3.659  0.00  0.00    -0.050 A 
ATOM     12  C   UNL     1       3.224  -7.380   4.223  0.00  0.00    +0.007 A 
ATOM     13  C   UNL     1       2.155  -6.918   3.482  0.00  0.00    -0.041 A 
ATOM     14  C   UNL     1       0.782  -6.849   4.100  0.00  0.00    +0.044 C 
ATOM     15  C   UNL     1       5.650  -7.938   4.476  0.00  0.00    +0.044 C 
ENDBRANCH   3   8
BRANCH   1  20
ATOM     16  C   UNL     1      -0.724   0.562  -1.347  0.00  0.00    +0.044 C 
ATOM     17  C   UNL     1      -0.575  -0.917  -1.100  0.00  0.00    -0.050 A 
ATOM     18  C   UNL     1      -0.509  -1.793  -2.167  0.00  0.00    +0.004 A 
ATOM     19  C   UNL     1      -0.372  -3.150  -1.940  0.00  0.00    +0.006 A 
ATOM     20  C   UNL     1      -0.300  -3.630  -0.645  0.00  0.00    -0.025 A 
ATOM     21  C   UNL     1      -0.365  -2.754   0.422  0.00  0.00    +0.006 A 
ATOM     22  C   UNL     1      -0.497  -1.397   0.195  0.00  0.00    +0.004 A 
ENDBRANCH   1  20
BRANCH   6  23
ATOM     23  C   UNL     1      -2.896  -5.858   2.232  0.00  0.00    +0.021 C 
BRANCH  23  24
ATOM     24  N   UNL     1      -4.346  -5.634   2.151  0.00  0.00    +0.385 N 
ATOM     25  C   UNL     1      -4.612  -4.193   2.061  0.00  0.00    -0.077 C 
ATOM     26  C   UNL     1      -6.115  -3.958   1.896  0.00  0.00    -0.006 C 
ATOM     27  C   UNL     1      -6.854  -4.541   3.105  0.00  0.00    +0.071 C 
ATOM     28  C   UNL     1      -6.510  -6.027   3.233  0.00  0.00    -0.006 C 
ATOM     29  C   UNL     1      -4.992  -6.186   3.348  0.00  0.00    -0.077 C 
ATOM     30  H   UNL     1      -4.712  -6.093   1.331  0.00  0.00    -0.081 HD
BRANCH  27  31
ATOM     31  C   UNL     1      -8.340  -4.382   2.912  0.00  0.00    +0.213 C 
ATOM     32  O   UNL     1      -8.768  -3.855   1.907  0.00  0.00    -0.276 OA
ATOM     33  N   UNL     1      -9.193  -4.826   3.856  0.00  0.00    -0.329 N 
ATOM     34  H   UNL     1      -8.850  -5.248   4.660  0.00  0.00    +0.145 HD
ATOM     35  H   UNL     1     -10.150  -4.724   3.732  0.00  0.00    +0.145 HD
ENDBRANCH  27  31
ENDBRANCH  23  24
ENDBRANCH   6  23
TORSDOF 5
