REMARK  Name = ZINC09239395
REMARK  6 active torsions:
REMARK  status: ('A' for Active; 'I' for Inactive)
REMARK    1  A    between atoms: C_1  and  C_2
REMARK    2  A    between atoms: C_2  and  C_3
REMARK    3  A    between atoms: C_3  and  C_4
REMARK    4  A    between atoms: C_10  and  C_25
REMARK    5  A    between atoms: C_12  and  C_15
REMARK    6  A    between atoms: N_17  and  C_18
REMARK                            x       y       z     vdW  Elec       q    Type
REMARK                         _______ _______ _______ _____ _____    ______ ____
ROOT
ATOM      1  C   UNL     1      -1.771   8.650  -2.054  0.00  0.00    +0.151 A 
ATOM      2  N   UNL     1      -1.621   9.877  -1.635  0.00  0.00    -0.132 NA
ATOM      3  N   UNL     1      -1.018   9.887  -0.497  0.00  0.00    -0.121 NA
ATOM      4  C   UNL     1      -0.750   8.663  -0.137  0.00  0.00    +0.209 A 
ATOM      5  N   UNL     1      -1.227   7.829  -1.108  0.00  0.00    -0.225 N 
ATOM      6  N   UNL     1      -1.172   6.472  -1.121  0.00  0.00    -0.272 N 
ATOM      7  C   UNL     1      -0.122   5.918  -0.266  0.00  0.00    +0.140 C 
ATOM      8  C   UNL     1      -0.340   6.346   1.191  0.00  0.00    +0.166 C 
ATOM      9  S   UNL     1       0.080   8.112   1.321  0.00  0.00    -0.069 S 
ATOM     10  H   UNL     1      -2.071   6.072  -0.896  0.00  0.00    +0.167 HD
ENDROOT
BRANCH   7  11
ATOM     11  C   UNL     1      -0.152   4.413  -0.352  0.00  0.00    -0.024 A 
ATOM     12  C   UNL     1       1.032   3.701  -0.404  0.00  0.00    +0.007 A 
ATOM     13  C   UNL     1       1.005   2.321  -0.482  0.00  0.00    +0.020 A 
ATOM     14  C   UNL     1      -0.206   1.653  -0.509  0.00  0.00    +0.041 A 
ATOM     15  C   UNL     1      -1.390   2.367  -0.464  0.00  0.00    +0.020 A 
ATOM     16  C   UNL     1      -1.362   3.747  -0.379  0.00  0.00    +0.007 A 
ATOM     17 CL   UNL     1      -0.240  -0.080  -0.608  0.00  0.00    -0.084 Cl
ENDBRANCH   7  11
BRANCH   8  18
ATOM     18  C   UNL     1      -1.782   6.132   1.576  0.00  0.00    +0.233 C 
ATOM     19  O   UNL     1      -2.621   6.950   1.265  0.00  0.00    -0.274 OA
ATOM     20  N   UNL     1      -2.138   5.030   2.265  0.00  0.00    -0.282 N 
ATOM     21  H   UNL     1      -1.459   4.411   2.576  0.00  0.00    +0.155 HD
BRANCH  20  22
ATOM     22  C   UNL     1      -3.490   4.777   2.532  0.00  0.00    +0.069 A 
ATOM     23  C   UNL     1      -4.476   5.400   1.778  0.00  0.00    +0.026 A 
ATOM     24  C   UNL     1      -5.808   5.149   2.043  0.00  0.00    +0.002 A 
ATOM     25  C   UNL     1      -6.161   4.278   3.058  0.00  0.00    +0.003 A 
ATOM     26  C   UNL     1      -5.183   3.656   3.811  0.00  0.00    +0.040 A 
ATOM     27  C   UNL     1      -3.847   3.899   3.548  0.00  0.00    +0.144 A 
ATOM     28  F   UNL     1      -2.891   3.286   4.281  0.00  0.00    -0.204 F 
ENDBRANCH  20  22
ENDBRANCH   8  18
BRANCH   1  29
ATOM     29  C   UNL     1      -2.425   8.220  -3.341  0.00  0.00    +0.078 C 
BRANCH  29  31
ATOM     30  C   UNL     1      -4.585   7.564  -4.412  0.00  0.00    +0.004 C 
ATOM     31  C   UNL     1      -3.921   8.002  -3.105  0.00  0.00    +0.004 C 
ENDBRANCH  29  31
ENDBRANCH   1  29
TORSDOF 5
