REMARK  Name = ZINC06173081
REMARK  12 active torsions:
REMARK  status: ('A' for Active; 'I' for Inactive)
REMARK    1  A    between atoms: C_1  and  C_2
REMARK    2  A    between atoms: C_2  and  C_3
REMARK    3  A    between atoms: C_3  and  C_4
REMARK    4  A    between atoms: C_4  and  C_6
REMARK    5  A    between atoms: C_4  and  N_68
REMARK    6  A    between atoms: N_10  and  C_11
REMARK    7  A    between atoms: C_11  and  S_12
REMARK    8  A    between atoms: S_12  and  C_15
REMARK    9  A    between atoms: C_18  and  C_21
REMARK   10  A    between atoms: N_24  and  C_27
REMARK   11  A    between atoms: C_31  and  C_34
REMARK   12  A    between atoms: C_32  and  C_33
REMARK                            x       y       z     vdW  Elec       q    Type
REMARK                         _______ _______ _______ _____ _____    ______ ____
ROOT
ATOM      1  C   UNL     1       0.081   0.970  -0.102  0.00  0.00    +0.003 C 
ENDROOT
BRANCH   1   7
ATOM      2  C   UNL     1      -1.993   1.418  -1.271  0.00  0.00    -0.059 C 
ATOM      3  C   UNL     1      -2.600   2.143  -2.474  0.00  0.00    +0.086 C 
ATOM      4  N   UNL     1      -2.021   1.603  -3.712  0.00  0.00    -0.333 N 
ATOM      5  C   UNL     1      -0.562   1.774  -3.726  0.00  0.00    +0.086 C 
ATOM      6  C   UNL     1       0.046   1.049  -2.523  0.00  0.00    -0.059 C 
ATOM      7  N   UNL     1      -0.528   1.617  -1.284  0.00  0.00    +0.388 N 
ATOM      8  H   UNL     1      -0.328   2.623  -1.254  0.00  0.00    -0.081 HD
BRANCH   4   9
ATOM      9  C   UNL     1      -2.605   2.191  -4.836  0.00  0.00    +0.033 A 
ATOM     10  C   UNL     1      -2.454   3.553  -5.067  0.00  0.00    +0.023 A 
ATOM     11  C   UNL     1      -3.032   4.131  -6.179  0.00  0.00    +0.002 A 
ATOM     12  C   UNL     1      -3.762   3.357  -7.063  0.00  0.00    +0.004 A 
ATOM     13  C   UNL     1      -3.915   2.001  -6.836  0.00  0.00    -0.046 A 
ATOM     14  C   UNL     1      -3.334   1.415  -5.728  0.00  0.00    -0.027 A 
ATOM     15  C   UNL     1      -3.496  -0.063  -5.485  0.00  0.00    +0.046 C 
ATOM     16  C   UNL     1      -4.711   1.161  -7.801  0.00  0.00    +0.044 C 
ENDBRANCH   4   9
ENDBRANCH   1   7
BRANCH   1  17
ATOM     17  C   UNL     1       1.579   1.109  -0.184  0.00  0.00    +0.140 A 
ATOM     18  N   UNL     1       2.249   2.187  -0.514  0.00  0.00    -0.115 NA
ATOM     19  N   UNL     1       3.505   1.905  -0.467  0.00  0.00    -0.023 NA
ATOM     20  N   UNL     1       3.655   0.675  -0.115  0.00  0.00    -0.042 NA
ATOM     21  N   UNL     1       2.490   0.152   0.074  0.00  0.00    -0.209 N 
BRANCH  21  22
ATOM     22  C   UNL     1       2.212  -1.225   0.487  0.00  0.00    +0.318 C 
BRANCH  22  23
ATOM     23  S   UNL     1       2.053  -2.277  -0.982  0.00  0.00    +0.017 S 
ATOM     24  O   UNL     1       0.885  -1.927  -1.711  0.00  0.00    -0.168 OA
ATOM     25  O   UNL     1       3.308  -2.395  -1.638  0.00  0.00    -0.168 OA
BRANCH  23  26
ATOM     26  C   UNL     1       1.723  -3.889  -0.351  0.00  0.00    +0.090 A 
ATOM     27  C   UNL     1       2.768  -4.750  -0.073  0.00  0.00    +0.027 A 
ATOM     28  C   UNL     1       2.510  -6.013   0.425  0.00  0.00    +0.005 A 
ATOM     29  C   UNL     1       1.206  -6.418   0.638  0.00  0.00    -0.050 A 
ATOM     30  C   UNL     1       0.160  -5.559   0.356  0.00  0.00    +0.005 A 
ATOM     31  C   UNL     1       0.419  -4.295  -0.139  0.00  0.00    +0.027 A 
ATOM     32  C   UNL     1       0.923  -7.797   1.178  0.00  0.00    +0.044 C 
ENDBRANCH  23  26
ENDBRANCH  22  23
ENDBRANCH  21  22
ENDBRANCH   1  17
BRANCH   1  33
ATOM     33  C   UNL     1      -0.428   1.668   1.161  0.00  0.00    -0.008 C 
BRANCH  33  35
ATOM     34  C   UNL     1      -0.449   1.593   3.658  0.00  0.00    +0.004 C 
ATOM     35  C   UNL     1       0.157   0.978   2.395  0.00  0.00    -0.005 C 
ENDBRANCH  33  35
ENDBRANCH   1  33
TORSDOF 8
