REMARK  Name = ZINC08799161
REMARK  11 active torsions:
REMARK  status: ('A' for Active; 'I' for Inactive)
REMARK    1  A    between atoms: C_1  and  C_2
REMARK    2  A    between atoms: C_2  and  O_3
REMARK    3  A    between atoms: O_3  and  C_4
REMARK    4  A    between atoms: C_7  and  C_32
REMARK    5  A    between atoms: C_9  and  S_10
REMARK    6  A    between atoms: S_10  and  N_13
REMARK    7  A    between atoms: N_13  and  C_14
REMARK    8  A    between atoms: C_14  and  C_15
REMARK    9  A    between atoms: C_15  and  C_17
REMARK   10  A    between atoms: C_15  and  N_67
REMARK   11  A    between atoms: N_26  and  C_27
REMARK                            x       y       z     vdW  Elec       q    Type
REMARK                         _______ _______ _______ _____ _____    ______ ____
ROOT
ATOM      1  C   UNL     1      -0.652   2.055   1.090  0.00  0.00    -0.022 C 
ENDROOT
BRANCH   1   2
ATOM      2  C   UNL     1       0.300   1.653   2.186  0.00  0.00    -0.059 A 
ATOM      3  C   UNL     1       1.548   2.242   2.271  0.00  0.00    +0.004 A 
ATOM      4  C   UNL     1       2.416   1.875   3.276  0.00  0.00    +0.023 A 
ATOM      5  C   UNL     1       2.049   0.901   4.207  0.00  0.00    +0.033 A 
ATOM      6  C   UNL     1       0.800   0.313   4.116  0.00  0.00    -0.026 A 
ATOM      7  C   UNL     1      -0.070   0.691   3.105  0.00  0.00    +0.007 A 
ATOM      8  C   UNL     1       0.338  -0.737   5.095  0.00  0.00    +0.038 C 
ATOM      9  C   UNL     1       1.540  -1.282   5.871  0.00  0.00    +0.024 C 
ATOM     10  C   UNL     1       2.371  -0.086   6.354  0.00  0.00    +0.105 C 
ATOM     11  N   UNL     1       2.977   0.563   5.190  0.00  0.00    -0.333 N 
ATOM     12  C   UNL     1       3.767   1.734   5.593  0.00  0.00    +0.129 C 
ENDBRANCH   1   2
BRANCH   1  17
ATOM     13  C   UNL     1      -1.491   3.939  -0.204  0.00  0.00    -0.078 C 
ATOM     14  C   UNL     1      -1.692   5.450   0.075  0.00  0.00    -0.020 C 
ATOM     15  C   UNL     1      -1.747   5.511   1.619  0.00  0.00    -0.020 C 
ATOM     16  C   UNL     1      -1.038   4.231   2.098  0.00  0.00    -0.078 C 
ATOM     17  N   UNL     1      -0.594   3.534   0.890  0.00  0.00    +0.385 N 
ATOM     18  H   UNL     1       0.370   3.807   0.667  0.00  0.00    -0.081 HD
ENDBRANCH   1  17
BRANCH   1  19
ATOM     19  C   UNL     1      -0.264   1.343  -0.208  0.00  0.00    +0.095 C 
BRANCH  19  20
ATOM     20  N   UNL     1       1.043   1.827  -0.658  0.00  0.00    -0.191 NA
ATOM     21  H   UNL     1       1.404   2.653  -0.301  0.00  0.00    +0.148 HD
BRANCH  20  22
ATOM     22  S   UNL     1       1.906   0.961  -1.776  0.00  0.00    +0.062 S 
ATOM     23  O   UNL     1       3.099   1.692  -2.023  0.00  0.00    -0.153 OA
ATOM     24  O   UNL     1       1.917  -0.387  -1.327  0.00  0.00    -0.153 OA
BRANCH  22  30
ATOM     25  C   UNL     1      -0.254   0.359  -3.341  0.00  0.00    +0.147 A 
ATOM     26  C   UNL     1      -0.981   0.383  -4.523  0.00  0.00    +0.048 A 
ATOM     27  C   UNL     1      -0.466   1.018  -5.636  0.00  0.00    +0.007 A 
ATOM     28  C   UNL     1       0.770   1.636  -5.571  0.00  0.00    -0.048 A 
ATOM     29  C   UNL     1       1.493   1.619  -4.393  0.00  0.00    +0.035 A 
ATOM     30  C   UNL     1       0.983   0.984  -3.277  0.00  0.00    +0.147 A 
ATOM     31  C   UNL     1       1.329   2.329  -6.787  0.00  0.00    +0.044 C 
BRANCH  25  32
ATOM     32  O   UNL     1      -0.755  -0.271  -2.246  0.00  0.00    -0.490 OA
BRANCH  32  34
ATOM     33  C   UNL     1      -2.430  -1.546  -1.059  0.00  0.00    +0.048 C 
ATOM     34  C   UNL     1      -2.034  -0.893  -2.385  0.00  0.00    +0.226 C 
ENDBRANCH  32  34
ENDBRANCH  25  32
ENDBRANCH  22  30
ENDBRANCH  20  22
ENDBRANCH  19  20
ENDBRANCH   1  19
TORSDOF 8
