REMARK  Name = ZINC53854160
REMARK  7 active torsions:
REMARK  status: ('A' for Active; 'I' for Inactive)
REMARK    1  A    between atoms: C_1  and  C_2
REMARK    2  A    between atoms: C_4  and  C_7
REMARK    3  A    between atoms: C_10  and  C_13
REMARK    4  A    between atoms: C_13  and  C_14
REMARK    5  A    between atoms: N_16  and  C_17
REMARK    6  A    between atoms: C_17  and  C_19
REMARK    7  A    between atoms: C_17  and  C_20
REMARK                            x       y       z     vdW  Elec       q    Type
REMARK                         _______ _______ _______ _____ _____    ______ ____
ROOT
ATOM      1  C   UNL     1      -5.670  -6.120   1.417  0.00  0.00    +0.218 C 
ATOM      2  O   UNL     1      -5.059  -5.621   2.339  0.00  0.00    -0.275 OA
ATOM      3  N   UNL     1      -6.693  -6.962   1.664  0.00  0.00    -0.308 N 
ATOM      4  H   UNL     1      -7.182  -7.361   0.927  0.00  0.00    +0.149 HD
ENDROOT
BRANCH   3   5
ATOM      5  C   UNL     1      -7.068  -7.274   3.046  0.00  0.00    +0.100 C 
ATOM      6  C   UNL     1      -6.194  -8.418   3.565  0.00  0.00    +0.033 C 
BRANCH   5   7
ATOM      7  C   UNL     1      -8.516  -7.688   3.093  0.00  0.00    -0.025 A 
ATOM      8  C   UNL     1      -9.034  -8.498   2.097  0.00  0.00    +0.007 A 
ATOM      9  C   UNL     1     -10.360  -8.883   2.131  0.00  0.00    +0.028 A 
ATOM     10  C   UNL     1     -11.176  -8.455   3.167  0.00  0.00    +0.067 A 
ATOM     11  C   UNL     1     -10.654  -7.637   4.171  0.00  0.00    +0.067 A 
ATOM     12  C   UNL     1      -9.320  -7.261   4.131  0.00  0.00    +0.033 A 
ATOM     13  N   UNL     1     -11.694  -7.376   5.059  0.00  0.00    -0.306 N 
ATOM     14  H   UNL     1     -11.634  -6.833   5.861  0.00  0.00    +0.170 HD
ATOM     15  C   UNL     1     -12.799  -8.005   4.616  0.00  0.00    +0.325 A 
ATOM     16  O   UNL     1     -13.886  -7.982   5.162  0.00  0.00    -0.247 OA
ATOM     17  N   UNL     1     -12.518  -8.665   3.476  0.00  0.00    -0.306 N 
ATOM     18  H   UNL     1     -13.143  -9.196   2.958  0.00  0.00    +0.170 HD
ENDBRANCH   5   7
ENDBRANCH   3   5
BRANCH   1  19
ATOM     19  C   UNL     1      -5.285  -5.798  -0.004  0.00  0.00    +0.130 C 
BRANCH  19  23
ATOM     20  C   UNL     1      -1.982  -3.083  -0.006  0.00  0.00    +0.001 A 
ATOM     21  C   UNL     1      -1.757  -4.458  -0.009  0.00  0.00    +0.010 A 
ATOM     22  C   UNL     1      -2.827  -5.330  -0.008  0.00  0.00    +0.005 A 
ATOM     23  C   UNL     1      -4.121  -4.841  -0.004  0.00  0.00    -0.039 A 
ATOM     24  C   UNL     1      -4.351  -3.477  -0.002  0.00  0.00    +0.005 A 
ATOM     25  C   UNL     1      -3.288  -2.596   0.003  0.00  0.00    +0.010 A 
BRANCH  20  29
ATOM     26  C   UNL     1      -0.018   1.503   0.010  0.00  0.00    +0.073 C 
ATOM     27  C   UNL     1       0.002  -0.004   0.002  0.00  0.00    +0.076 A 
ATOM     28  N   UNL     1      -1.013  -0.828   0.002  0.00  0.00    -0.244 NA
ATOM     29  C   UNL     1      -0.837  -2.141  -0.006  0.00  0.00    +0.078 A 
ATOM     30  C   UNL     1       0.460  -2.583  -0.015  0.00  0.00    +0.075 A 
ATOM     31  S   UNL     1       1.337  -1.028  -0.017  0.00  0.00    -0.080 S 
ENDBRANCH  20  29
ENDBRANCH  19  23
ENDBRANCH   1  19
TORSDOF 5
