REMARK  Name = ZINC39670470
REMARK  6 active torsions:
REMARK  status: ('A' for Active; 'I' for Inactive)
REMARK    1  A    between atoms: C_1  and  C_2
REMARK    2  A    between atoms: C_7  and  C_11
REMARK    3  A    between atoms: C_11  and  N_12
REMARK    4  A    between atoms: C_13  and  C_15
REMARK    5  A    between atoms: C_26  and  C_28
REMARK    6  A    between atoms: C_28  and  C_29
REMARK                            x       y       z     vdW  Elec       q    Type
REMARK                         _______ _______ _______ _____ _____    ______ ____
ROOT
ATOM      1  C   UNL     1      -2.915  -7.692   3.280  0.00  0.00    +0.100 C 
ATOM      2  C   UNL     1      -3.727  -6.786   4.234  0.00  0.00    +0.121 C 
ATOM      3  N   UNL     1      -4.587  -7.721   4.996  0.00  0.00    -0.300 N 
ATOM      4  C   UNL     1      -3.717  -8.893   5.258  0.00  0.00    +0.115 C 
ATOM      5  C   UNL     1      -2.911  -9.073   3.956  0.00  0.00    -0.004 C 
ATOM      6  C   UNL     1      -3.586 -10.104   3.056  0.00  0.00    -0.010 C 
ATOM      7  C   UNL     1      -3.519 -11.480   3.725  0.00  0.00    -0.082 C 
ATOM      8  N   UNL     1      -2.116 -11.846   3.956  0.00  0.00    +0.379 N 
ATOM      9  C   UNL     1      -1.500 -10.902   4.896  0.00  0.00    -0.082 C 
ATOM     10  C   UNL     1      -1.482  -9.501   4.277  0.00  0.00    -0.010 C 
ATOM     11  C   UNL     1      -5.870  -7.545   5.368  0.00  0.00    +0.220 C 
ATOM     12  O   UNL     1      -6.444  -8.411   5.995  0.00  0.00    -0.275 OA
ATOM     13  H   UNL     1      -2.072 -12.778   4.340  0.00  0.00    -0.086 HD
ATOM     14  H   UNL     1      -1.615 -11.822   3.080  0.00  0.00    -0.086 HD
ENDROOT
BRANCH   1  16
ATOM     15  N   UNL     1      -0.819  -7.402   2.000  0.00  0.00    -0.309 N 
ATOM     16  C   UNL     1      -1.507  -7.174   3.136  0.00  0.00    +0.219 C 
ATOM     17  O   UNL     1      -0.994  -6.552   4.042  0.00  0.00    -0.275 OA
ATOM     18  H   UNL     1      -1.229  -7.900   1.276  0.00  0.00    +0.149 HD
BRANCH  15  19
ATOM     19  C   UNL     1       0.550  -6.899   1.860  0.00  0.00    +0.161 C 
BRANCH  19  26
ATOM     20  C   UNL     1       2.774  -7.532  -5.160  0.00  0.00    +0.045 C 
ATOM     21  C   UNL     1       2.510  -7.859  -3.713  0.00  0.00    -0.034 A 
ATOM     22  C   UNL     1       2.896  -9.107  -3.196  0.00  0.00    +0.008 A 
ATOM     23  C   UNL     1       2.657  -9.399  -1.889  0.00  0.00    +0.047 A 
ATOM     24  C   UNL     1       2.023  -8.441  -1.073  0.00  0.00    +0.138 A 
ATOM     25  N   UNL     1       1.671  -8.450   0.205  0.00  0.00    -0.231 NA
ATOM     26  C   UNL     1       1.091  -7.286   0.508  0.00  0.00    +0.077 A 
ATOM     27  C   UNL     1       1.072  -6.513  -0.600  0.00  0.00    +0.117 A 
ATOM     28  N   UNL     1       1.658  -7.232  -1.606  0.00  0.00    -0.306 N 
ATOM     29  C   UNL     1       1.909  -6.950  -2.917  0.00  0.00    +0.096 A 
ENDBRANCH  19  26
ENDBRANCH  15  19
ENDBRANCH   1  16
BRANCH  11  30
ATOM     30  C   UNL     1      -6.593  -6.274   5.005  0.00  0.00    +0.131 C 
BRANCH  30  31
ATOM     31  C   UNL     1      -8.003  -6.329   5.535  0.00  0.00    -0.039 A 
ATOM     32  C   UNL     1      -9.014  -6.859   4.755  0.00  0.00    +0.005 A 
ATOM     33  C   UNL     1     -10.307  -6.909   5.240  0.00  0.00    +0.020 A 
ATOM     34  C   UNL     1     -10.590  -6.429   6.506  0.00  0.00    +0.041 A 
ATOM     35  C   UNL     1      -9.578  -5.898   7.286  0.00  0.00    +0.020 A 
ATOM     36  C   UNL     1      -8.284  -5.853   6.802  0.00  0.00    +0.005 A 
ATOM     37 CL   UNL     1     -12.214  -6.491   7.116  0.00  0.00    -0.084 Cl
ENDBRANCH  30  31
ENDBRANCH  11  30
TORSDOF 5
