REMARK  Name = ZINC63303351
REMARK  9 active torsions:
REMARK  status: ('A' for Active; 'I' for Inactive)
REMARK    1  A    between atoms: C_1  and  C_2
REMARK    2  A    between atoms: C_2  and  O_3
REMARK    3  A    between atoms: O_3  and  C_4
REMARK    4  A    between atoms: C_4  and  C_6
REMARK    5  A    between atoms: C_8  and  C_28
REMARK    6  A    between atoms: C_11  and  N_14
REMARK    7  A    between atoms: C_15  and  C_17
REMARK    8  A    between atoms: C_17  and  S_18
REMARK    9  A    between atoms: S_18  and  C_19
REMARK                            x       y       z     vdW  Elec       q    Type
REMARK                         _______ _______ _______ _____ _____    ______ ____
ROOT
ATOM      1  C   UNL     1       1.516  -2.381   2.500  0.00  0.00    +0.179 C 
ATOM      2  C   UNL     1       0.983  -3.790   2.841  0.00  0.00    +0.110 C 
ATOM      3  N   UNL     1       2.019  -4.825   2.867  0.00  0.00    -0.282 NA
ATOM      4  C   UNL     1       3.113  -4.560   1.886  0.00  0.00    +0.203 C 
ATOM      5  S   UNL     1       3.283  -2.732   2.107  0.00  0.00    -0.106 S 
ATOM      6  H   UNL     1       2.389  -4.942   3.798  0.00  0.00    +0.125 HD
ENDROOT
BRANCH   2   7
ATOM      7  C   UNL     1       0.323  -3.740   4.194  0.00  0.00    -0.029 A 
ATOM      8  C   UNL     1       1.094  -3.775   5.341  0.00  0.00    +0.005 A 
ATOM      9  C   UNL     1       0.488  -3.730   6.583  0.00  0.00    +0.000 A 
ATOM     10  C   UNL     1      -0.888  -3.649   6.678  0.00  0.00    +0.000 A 
ATOM     11  C   UNL     1      -1.659  -3.613   5.532  0.00  0.00    +0.000 A 
ATOM     12  C   UNL     1      -1.054  -3.655   4.290  0.00  0.00    +0.005 A 
ENDBRANCH   2   7
BRANCH   4  13
ATOM     13  N   UNL     1       4.345  -5.261   2.257  0.00  0.00    -0.291 N 
ATOM     14  C   UNL     1       5.339  -5.396   1.358  0.00  0.00    +0.225 C 
ATOM     15  O   UNL     1       5.215  -4.938   0.242  0.00  0.00    -0.275 OA
ATOM     16  H   UNL     1       4.444  -5.628   3.149  0.00  0.00    +0.151 HD
BRANCH  14  17
ATOM     17  C   UNL     1       6.606  -6.117   1.739  0.00  0.00    +0.168 C 
BRANCH  17  18
ATOM     18  S   UNL     1       7.742  -6.132   0.324  0.00  0.00    -0.106 S 
BRANCH  18  19
ATOM     19  C   UNL     1       9.197  -7.024   0.940  0.00  0.00    +0.236 C 
ATOM     20  N   UNL     1       8.806  -8.356   1.419  0.00  0.00    -0.355 N 
ATOM     21  C   UNL     1       9.110  -8.420   2.684  0.00  0.00    +0.061 A 
ATOM     22  C   UNL     1       8.963  -9.477   3.694  0.00  0.00    +0.027 A 
ATOM     23  C   UNL     1       9.378  -9.252   4.957  0.00  0.00    +0.002 A 
ATOM     24  C   UNL     1       9.954  -8.034   5.360  0.00  0.00    +0.002 A 
ATOM     25  C   UNL     1      10.136  -7.000   4.514  0.00  0.00    +0.027 A 
ATOM     26  C   UNL     1       9.720  -7.131   3.111  0.00  0.00    +0.061 A 
ATOM     27  N   UNL     1       9.770  -6.320   2.094  0.00  0.00    -0.355 N 
ATOM     28  H   UNL     1       8.397  -9.059   0.891  0.00  0.00    +0.162 HD
ATOM     29  H   UNL     1      10.121  -5.415   2.098  0.00  0.00    +0.162 HD
ENDBRANCH  18  19
ENDBRANCH  17  18
ENDBRANCH  14  17
ENDBRANCH   4  13
BRANCH   1  30
ATOM     30  C   UNL     1       0.801  -1.808   1.304  0.00  0.00    +0.322 C 
ATOM     31  O   UNL     1       0.324  -2.546   0.475  0.00  0.00    -0.250 OA
BRANCH  30  32
ATOM     32  O   UNL     1       0.693  -0.477   1.160  0.00  0.00    -0.464 OA
BRANCH  32  34
ATOM     33  C   UNL     1      -0.019   1.526   0.010  0.00  0.00    +0.048 C 
ATOM     34  C   UNL     1       0.002  -0.004   0.002  0.00  0.00    +0.229 C 
ENDBRANCH  32  34
ENDBRANCH  30  32
ENDBRANCH   1  30
TORSDOF 8
