REMARK  Name = ZINC05408221
REMARK  5 active torsions:
REMARK  status: ('A' for Active; 'I' for Inactive)
REMARK    1  A    between atoms: C_1  and  C_2
REMARK    2  A    between atoms: C_2  and  C_29
REMARK    3  A    between atoms: C_6  and  C_19
REMARK    4  A    between atoms: C_8  and  C_17
REMARK    5  A    between atoms: C_9  and  N_16
REMARK                            x       y       z     vdW  Elec       q    Type
REMARK                         _______ _______ _______ _____ _____    ______ ____
ROOT
ATOM      1  C   UNL     1       0.331  -5.410  -2.808  0.00  0.00    +0.011 C 
ATOM      2  C   UNL     1      -0.370  -4.213  -3.453  0.00  0.00    -0.023 C 
ATOM      3  C   UNL     1      -1.405  -3.639  -2.483  0.00  0.00    +0.058 C 
ATOM      4  C   UNL     1      -0.715  -3.161  -1.230  0.00  0.00    +0.028 C 
ATOM      5  C   UNL     1       0.547  -2.683  -1.271  0.00  0.00    +0.025 C 
ATOM      6  C   UNL     1       1.229  -2.186  -0.021  0.00  0.00    +0.099 C 
ATOM      7  C   UNL     1       0.539  -2.694   1.211  0.00  0.00    +0.077 C 
ATOM      8  C   UNL     1      -0.728  -3.180   1.155  0.00  0.00    +0.109 C 
ATOM      9  N   UNL     1      -1.401  -3.220  -0.045  0.00  0.00    -0.228 N 
ATOM     10  C   UNL     1      -2.796  -3.321  -0.056  0.00  0.00    +0.246 A 
ATOM     11  N   UNL     1      -3.565  -3.364  -1.149  0.00  0.00    -0.202 NA
ATOM     12  C   UNL     1      -4.823  -3.464  -0.802  0.00  0.00    +0.217 A 
ATOM     13  N   UNL     1      -4.887  -3.488   0.541  0.00  0.00    -0.264 N 
ATOM     14  N   UNL     1      -3.565  -3.391   1.005  0.00  0.00    -0.136 NA
ATOM     15  C   UNL     1       1.265  -2.635  -2.479  0.00  0.00    +0.162 C 
ATOM     16  O   UNL     1       2.397  -2.192  -2.482  0.00  0.00    -0.292 OA
ATOM     17  C   UNL     1       0.659  -3.122  -3.767  0.00  0.00    +0.086 C 
ATOM     18  C   UNL     1      -1.064  -4.657  -4.742  0.00  0.00    +0.011 C 
ATOM     19  H   UNL     1      -5.862  -3.571   1.043  0.00  0.00    +0.190 HD
ENDROOT
BRANCH   6  20
ATOM     20  C   UNL     1       1.208  -0.679  -0.013  0.00  0.00    -0.016 A 
ATOM     21  C   UNL     1       0.002  -0.004   0.002  0.00  0.00    +0.006 A 
ATOM     22  C   UNL     1      -0.017   1.378   0.010  0.00  0.00    +0.000 A 
ATOM     23  C   UNL     1       1.171   2.086   0.002  0.00  0.00    +0.001 A 
ATOM     24  C   UNL     1       2.377   1.412  -0.013  0.00  0.00    +0.020 A 
ATOM     25  C   UNL     1       2.397   0.029  -0.021  0.00  0.00    +0.045 A 
ATOM     26 CL   UNL     1       3.912  -0.818  -0.040  0.00  0.00    -0.083 Cl
ENDBRANCH   6  20
BRANCH   8  27
ATOM     27  N   UNL     1      -1.340  -3.632   2.300  0.00  0.00    -0.345 N 
ATOM     28  H   UNL     1      -2.366  -4.026   2.256  0.00  0.00    +0.144 HD
ATOM     29  H   UNL     1      -0.804  -3.600   3.260  0.00  0.00    +0.144 HD
ENDBRANCH   8  27
BRANCH   7  30
ATOM     30  C   UNL     1       1.228  -2.665   2.466  0.00  0.00    +0.099 C 
ATOM     31  N   UNL     1       1.774  -2.643   3.461  0.00  0.00    -0.191 NA
ENDBRANCH   7  30
TORSDOF 3
