REMARK  Name = ZINC64605375
REMARK  9 active torsions:
REMARK  status: ('A' for Active; 'I' for Inactive)
REMARK    1  A    between atoms: C_1  and  C_2
REMARK    2  A    between atoms: C_5  and  C_8
REMARK    3  A    between atoms: C_10  and  N_29
REMARK    4  A    between atoms: N_13  and  C_15
REMARK    5  A    between atoms: C_15  and  C_17
REMARK    6  A    between atoms: C_15  and  C_18
REMARK    7  A    between atoms: C_30  and  C_32
REMARK    8  A    between atoms: C_32  and  C_33
REMARK    9  A    between atoms: C_32  and  C_34
REMARK                            x       y       z     vdW  Elec       q    Type
REMARK                         _______ _______ _______ _____ _____    ______ ____
ROOT
ATOM      1  C   UNL     1       0.960  -4.945   1.089  0.00  0.00    +0.093 A 
ATOM      2  C   UNL     1       0.762  -5.944   2.064  0.00  0.00    +0.059 A 
ATOM      3  C   UNL     1       0.157  -7.117   1.716  0.00  0.00    +0.102 A 
ATOM      4  C   UNL     1      -0.262  -7.306   0.375  0.00  0.00    +0.289 A 
ATOM      5  O   UNL     1      -0.806  -8.347   0.043  0.00  0.00    -0.264 OA
ATOM      6  N   UNL     1      -0.057  -6.329  -0.530  0.00  0.00    -0.216 N 
ATOM      7  N   UNL     1       0.561  -5.132  -0.148  0.00  0.00    -0.167 NA
ENDROOT
BRANCH   1  12
ATOM      8  C   UNL     1       3.512   0.007   2.550  0.00  0.00    +0.044 C 
ATOM      9  C   UNL     1       2.844  -1.288   2.168  0.00  0.00    -0.050 A 
ATOM     10  C   UNL     1       2.423  -1.489   0.866  0.00  0.00    +0.004 A 
ATOM     11  C   UNL     1       1.811  -2.674   0.510  0.00  0.00    +0.010 A 
ATOM     12  C   UNL     1       1.618  -3.669   1.466  0.00  0.00    +0.002 A 
ATOM     13  C   UNL     1       2.043  -3.462   2.776  0.00  0.00    +0.010 A 
ATOM     14  C   UNL     1       2.659  -2.275   3.120  0.00  0.00    +0.004 A 
ENDBRANCH   1  12
BRANCH   3  15
ATOM     15  N   UNL     1      -0.046  -8.118   2.668  0.00  0.00    -0.281 N 
ATOM     16  C   UNL     1       0.494  -9.340   2.488  0.00  0.00    +0.220 C 
ATOM     17  O   UNL     1       1.236  -9.542   1.550  0.00  0.00    -0.275 OA
ATOM     18  H   UNL     1      -0.576  -7.935   3.460  0.00  0.00    +0.155 HD
BRANCH  16  19
ATOM     19  C   UNL     1       0.178 -10.454   3.452  0.00  0.00    +0.069 C 
ATOM     20  C   UNL     1       0.913 -11.725   3.022  0.00  0.00    +0.017 C 
ATOM     21  C   UNL     1       0.628 -10.055   4.859  0.00  0.00    +0.017 C 
ENDBRANCH  16  19
ENDBRANCH   3  15
BRANCH   6  22
ATOM     22  C   UNL     1      -0.488  -6.517  -1.917  0.00  0.00    +0.194 C 
ATOM     23  C   UNL     1      -1.504  -5.434  -2.287  0.00  0.00    +0.043 C 
BRANCH  22  24
ATOM     24  C   UNL     1       0.706  -6.419  -2.832  0.00  0.00    +0.244 C 
ATOM     25  O   UNL     1       1.741  -5.933  -2.428  0.00  0.00    -0.273 OA
ATOM     26  N   UNL     1       0.623  -6.872  -4.098  0.00  0.00    -0.269 N 
ATOM     27  C   UNL     1      -0.538  -7.558  -4.671  0.00  0.00    +0.118 C 
ATOM     28  C   UNL     1      -0.146  -7.870  -6.125  0.00  0.00    +0.056 C 
ATOM     29  C   UNL     1       1.255  -7.319  -6.268  0.00  0.00    -0.024 A 
ATOM     30  C   UNL     1       1.632  -6.752  -5.060  0.00  0.00    +0.040 A 
ATOM     31  C   UNL     1       2.895  -6.169  -4.949  0.00  0.00    +0.024 A 
ATOM     32  C   UNL     1       3.751  -6.154  -6.030  0.00  0.00    +0.002 A 
ATOM     33  C   UNL     1       3.364  -6.718  -7.232  0.00  0.00    +0.000 A 
ATOM     34  C   UNL     1       2.118  -7.306  -7.346  0.00  0.00    +0.005 A 
ENDBRANCH  22  24
ENDBRANCH   6  22
TORSDOF 5
