REMARK  Name = ZINC20753775
REMARK  6 active torsions:
REMARK  status: ('A' for Active; 'I' for Inactive)
REMARK    1  A    between atoms: C_4  and  O_7
REMARK    2  A    between atoms: O_7  and  C_8
REMARK    3  A    between atoms: C_8  and  C_9
REMARK    4  A    between atoms: C_9  and  O_10
REMARK    5  A    between atoms: O_10  and  C_11
REMARK    6  A    between atoms: C_18  and  C_27
REMARK                            x       y       z     vdW  Elec       q    Type
REMARK                         _______ _______ _______ _____ _____    ______ ____
ROOT
ATOM      1  C   UNL     1       1.186   2.059   0.002  0.00  0.00    +0.142 A 
ATOM      2  C   UNL     1       2.354   1.319  -0.013  0.00  0.00    +0.047 A 
ATOM      3  C   UNL     1       3.576   1.966  -0.021  0.00  0.00    +0.004 A 
ATOM      4  C   UNL     1       3.627   3.345  -0.013  0.00  0.00    +0.006 A 
ATOM      5  C   UNL     1       2.460   4.099   0.003  0.00  0.00    -0.016 A 
ATOM      6  C   UNL     1       1.237   3.456   0.003  0.00  0.00    +0.074 A 
ATOM      7  N   UNL     1       0.027   4.156   0.007  0.00  0.00    -0.334 N 
ATOM      8  C   UNL     1       0.162   5.490   0.592  0.00  0.00    +0.106 C 
ATOM      9  C   UNL     1       1.219   6.281  -0.182  0.00  0.00    +0.029 C 
ATOM     10  C   UNL     1       2.589   5.594   0.013  0.00  0.00    +0.049 C 
ATOM     11  C   UNL     1       3.072   6.086   1.345  0.00  0.00    -0.023 C 
ATOM     12  C   UNL     1       2.458   7.195   1.674  0.00  0.00    -0.030 C 
ATOM     13  C   UNL     1       1.482   7.605   0.589  0.00  0.00    +0.033 C 
ATOM     14  H   UNL     1      -0.950   3.814  -0.365  0.00  0.00    +0.147 HD
ENDROOT
BRANCH   8  15
ATOM     15  C   UNL     1      -1.161   6.209   0.514  0.00  0.00    -0.012 A 
ATOM     16  C   UNL     1      -1.906   6.180  -0.663  0.00  0.00    -0.012 A 
ATOM     17  C   UNL     1      -1.450   5.474  -1.797  0.00  0.00    +0.009 A 
ATOM     18  C   UNL     1      -2.204   5.461  -2.926  0.00  0.00    +0.001 A 
ATOM     19  C   UNL     1      -3.428   6.127  -2.998  0.00  0.00    +0.001 A 
ATOM     20  C   UNL     1      -3.927   6.820  -1.943  0.00  0.00    +0.008 A 
ATOM     21  C   UNL     1      -3.196   6.875  -0.737  0.00  0.00    -0.017 A 
ATOM     22  C   UNL     1      -3.678   7.577   0.366  0.00  0.00    +0.017 A 
ATOM     23  C   UNL     1      -2.930   7.610   1.542  0.00  0.00    -0.017 A 
ATOM     24  C   UNL     1      -1.643   6.911   1.617  0.00  0.00    -0.012 A 
ATOM     25  C   UNL     1      -0.912   6.965   2.824  0.00  0.00    +0.009 A 
ATOM     26  C   UNL     1      -1.411   7.657   3.879  0.00  0.00    +0.001 A 
ATOM     27  C   UNL     1      -2.635   8.323   3.807  0.00  0.00    +0.001 A 
ATOM     28  C   UNL     1      -3.389   8.312   2.678  0.00  0.00    +0.008 A 
ENDBRANCH   8  15
BRANCH   1  29
ATOM     29  O   UNL     1      -0.017   1.425   0.010  0.00  0.00    -0.487 OA
BRANCH  29  30
ATOM     30  C   UNL     1       0.002  -0.004   0.002  0.00  0.00    +0.270 C 
BRANCH  30  31
ATOM     31  C   UNL     1      -1.433  -0.534   0.013  0.00  0.00    +0.270 C 
BRANCH  31  32
ATOM     32  O   UNL     1      -2.089  -0.158  -1.200  0.00  0.00    -0.489 OA
BRANCH  32  36
ATOM     33  C   UNL     1      -6.010  -1.356  -1.659  0.00  0.00    +0.000 A 
ATOM     34  C   UNL     1      -5.390  -0.625  -2.655  0.00  0.00    +0.004 A 
ATOM     35  C   UNL     1      -4.078  -0.222  -2.504  0.00  0.00    +0.045 A 
ATOM     36  C   UNL     1      -3.380  -0.553  -1.351  0.00  0.00    +0.121 A 
ATOM     37  C   UNL     1      -4.002  -1.292  -0.355  0.00  0.00    +0.045 A 
ATOM     38  C   UNL     1      -5.317  -1.687  -0.508  0.00  0.00    +0.004 A 
ENDBRANCH  32  36
ENDBRANCH  31  32
ENDBRANCH  30  31
ENDBRANCH  29  30
ENDBRANCH   1  29
TORSDOF 6
