REMARK  Name = ZINC04176398
REMARK  6 active torsions:
REMARK  status: ('A' for Active; 'I' for Inactive)
REMARK    1  A    between atoms: C_1  and  C_2
REMARK    2  A    between atoms: C_7  and  O_27
REMARK    3  A    between atoms: C_8  and  C_10
REMARK    4  A    between atoms: C_10  and  C_12
REMARK    5  A    between atoms: C_10  and  N_47
REMARK    6  A    between atoms: C_21  and  C_24
REMARK                            x       y       z     vdW  Elec       q    Type
REMARK                         _______ _______ _______ _____ _____    ______ ____
ROOT
ATOM      1  C   UNL     1      -1.154  -0.971   0.009  0.00  0.00    +0.005 C 
ENDROOT
BRANCH   1   9
ATOM      2  C   UNL     1       5.247   2.859  -0.034  0.00  0.00    +0.090 C 
ATOM      3  C   UNL     1       3.878   2.229  -0.024  0.00  0.00    +0.150 A 
ATOM      4  N   UNL     1       2.724   2.893  -0.009  0.00  0.00    -0.205 NA
ATOM      5  C   UNL     1       1.736   2.040  -0.004  0.00  0.00    +0.199 A 
ATOM      6  N   UNL     1       2.228   0.771  -0.015  0.00  0.00    -0.173 N 
ATOM      7  N   UNL     1       3.636   0.945  -0.027  0.00  0.00    -0.147 NA
ATOM      8  C   UNL     1       1.316  -0.258  -0.012  0.00  0.00    +0.225 A 
ATOM      9  C   UNL     1       0.002  -0.004   0.002  0.00  0.00    +0.045 A 
ATOM     10  S   UNL     1      -0.022   1.782   0.012  0.00  0.00    -0.050 S 
BRANCH   8  11
ATOM     11  O   UNL     1       1.753  -1.546  -0.023  0.00  0.00    -0.492 OA
ATOM     12  H   UNL     1       1.871  -1.913  -0.909  0.00  0.00    +0.294 HD
ENDBRANCH   8  11
ENDBRANCH   1   9
BRANCH   1  13
ATOM     13  C   UNL     1      -1.761  -1.019   1.387  0.00  0.00    -0.056 A 
ATOM     14  C   UNL     1      -2.630  -0.023   1.794  0.00  0.00    +0.003 A 
ATOM     15  C   UNL     1      -3.191  -0.069   3.056  0.00  0.00    +0.015 A 
ATOM     16  C   UNL     1      -2.875  -1.105   3.916  0.00  0.00    +0.018 A 
ATOM     17  C   UNL     1      -2.002  -2.098   3.510  0.00  0.00    +0.015 A 
ATOM     18  C   UNL     1      -1.445  -2.054   2.246  0.00  0.00    +0.003 A 
ATOM     19 BR   UNL     1      -3.637  -1.164   5.646  0.00  0.00    -0.050 Br
ENDBRANCH   1  13
BRANCH   1  25
ATOM     20  C   UNL     1      -3.354  -1.393  -0.909  0.00  0.00    -0.077 C 
ATOM     21  C   UNL     1      -4.442  -0.821  -1.820  0.00  0.00    -0.006 C 
ATOM     22  C   UNL     1      -3.909  -0.737  -3.253  0.00  0.00    +0.071 C 
ATOM     23  C   UNL     1      -2.646   0.129  -3.269  0.00  0.00    -0.006 C 
ATOM     24  C   UNL     1      -1.610  -0.471  -2.316  0.00  0.00    -0.077 C 
ATOM     25  N   UNL     1      -2.175  -0.502  -0.950  0.00  0.00    +0.387 N 
ATOM     26  H   UNL     1      -2.466   0.447  -0.689  0.00  0.00    -0.080 HD
BRANCH  22  27
ATOM     27  C   UNL     1      -4.954  -0.119  -4.145  0.00  0.00    +0.213 C 
ATOM     28  O   UNL     1      -4.714   0.912  -4.737  0.00  0.00    -0.276 OA
ATOM     29  N   UNL     1      -6.156  -0.712  -4.286  0.00  0.00    -0.329 N 
ATOM     30  H   UNL     1      -6.348  -1.537  -3.813  0.00  0.00    +0.145 HD
ATOM     31  H   UNL     1      -6.829  -0.314  -4.860  0.00  0.00    +0.145 HD
ENDBRANCH  22  27
ENDBRANCH   1  25
TORSDOF 5
