REMARK  Name = ZINC12833113
REMARK  8 active torsions:
REMARK  status: ('A' for Active; 'I' for Inactive)
REMARK    1  A    between atoms: C_1  and  C_2
REMARK    2  A    between atoms: C_5  and  C_33
REMARK    3  A    between atoms: C_9  and  C_14
REMARK    4  A    between atoms: C_14  and  N_69
REMARK    5  A    between atoms: C_15  and  C_16
REMARK    6  A    between atoms: C_15  and  N_69
REMARK    7  A    between atoms: N_20  and  C_21
REMARK    8  A    between atoms: C_27  and  N_69
REMARK                            x       y       z     vdW  Elec       q    Type
REMARK                         _______ _______ _______ _____ _____    ______ ____
ROOT
ATOM      1  N   UNL     1       3.023   3.891   1.391  0.00  0.00    +0.389 N 
ATOM      2  H   UNL     1       3.164   3.016   1.909  0.00  0.00    -0.080 HD
ENDROOT
BRANCH   1   3
ATOM      3  C   UNL     1       2.146   4.781   2.179  0.00  0.00    -0.068 C 
ATOM      4  C   UNL     1       2.087   6.173   1.548  0.00  0.00    -0.015 C 
ATOM      5  C   UNL     1       1.177   7.075   2.385  0.00  0.00    -0.002 C 
ATOM      6  C   UNL     1       1.733   7.182   3.806  0.00  0.00    -0.000 C 
ATOM      7  C   UNL     1       1.791   5.790   4.437  0.00  0.00    -0.002 C 
ATOM      8  C   UNL     1       2.701   4.888   3.601  0.00  0.00    -0.015 C 
ENDBRANCH   1   3
BRANCH   1   9
ATOM      9  C   UNL     1       2.393   3.582   0.090  0.00  0.00    -0.037 C 
BRANCH   9  18
ATOM     10  C   UNL     1      -2.711   4.491   0.587  0.00  0.00    +0.044 C 
ATOM     11  C   UNL     1      -2.504   3.005   0.732  0.00  0.00    -0.041 A 
ATOM     12  C   UNL     1      -3.574   2.180   0.936  0.00  0.00    +0.004 A 
ATOM     13  C   UNL     1      -3.395   0.810   1.071  0.00  0.00    +0.005 A 
ATOM     14  C   UNL     1      -2.136   0.255   0.992  0.00  0.00    -0.026 A 
ATOM     15  C   UNL     1      -1.032   1.073   0.775  0.00  0.00    +0.052 A 
ATOM     16  C   UNL     1      -1.218   2.463   0.643  0.00  0.00    +0.002 A 
ATOM     17  C   UNL     1      -0.051   3.315   0.409  0.00  0.00    +0.017 A 
ATOM     18  C   UNL     1       1.171   2.733   0.331  0.00  0.00    +0.001 A 
ATOM     19  C   UNL     1       1.304   1.336   0.476  0.00  0.00    +0.251 A 
ATOM     20  O   UNL     1       2.412   0.833   0.403  0.00  0.00    -0.268 OA
ATOM     21  N   UNL     1       0.238   0.545   0.691  0.00  0.00    -0.322 N 
ATOM     22  H   UNL     1       0.364  -0.412   0.785  0.00  0.00    +0.169 HD
ATOM     23  C   UNL     1      -1.955  -1.234   1.141  0.00  0.00    +0.046 C 
ENDBRANCH   9  18
ENDBRANCH   1   9
BRANCH   1  24
ATOM     24  C   UNL     1       4.335   4.537   1.175  0.00  0.00    +0.001 C 
BRANCH  24  25
ATOM     25  C   UNL     1       5.336   3.479   0.785  0.00  0.00    +0.135 A 
ATOM     26  N   UNL     1       5.701   3.158  -0.432  0.00  0.00    -0.115 NA
ATOM     27  N   UNL     1       6.572   2.212  -0.349  0.00  0.00    -0.023 NA
ATOM     28  N   UNL     1       6.773   1.923   0.889  0.00  0.00    -0.044 NA
ATOM     29  N   UNL     1       6.033   2.686   1.620  0.00  0.00    -0.228 N 
BRANCH  29  30
ATOM     30  C   UNL     1       5.961   2.686   3.083  0.00  0.00    +0.111 C 
ATOM     31  C   UNL     1       7.363   2.889   3.662  0.00  0.00    +0.027 C 
ATOM     32  C   UNL     1       7.289   2.889   5.191  0.00  0.00    +0.002 C 
ATOM     33  C   UNL     1       6.726   1.551   5.674  0.00  0.00    +0.000 C 
ATOM     34  C   UNL     1       5.324   1.349   5.095  0.00  0.00    +0.002 C 
ATOM     35  C   UNL     1       5.398   1.348   3.567  0.00  0.00    +0.027 C 
ENDBRANCH  29  30
ENDBRANCH  24  25
ENDBRANCH   1  24
TORSDOF 6
