REMARK  Name = ZINC06493961
REMARK  6 active torsions:
REMARK  status: ('A' for Active; 'I' for Inactive)
REMARK    1  A    between atoms: C_4  and  C_7
REMARK    2  A    between atoms: C_7  and  C_8
REMARK    3  A    between atoms: C_8  and  C_9
REMARK    4  A    between atoms: C_13  and  C_23
REMARK    5  A    between atoms: C_18  and  N_22
REMARK    6  A    between atoms: C_19  and  C_20
REMARK                            x       y       z     vdW  Elec       q    Type
REMARK                         _______ _______ _______ _____ _____    ______ ____
ROOT
ATOM      1  C   UNL     1       5.565  -1.826   1.102  0.00  0.00    +0.053 C 
ATOM      2  C   UNL     1       5.996  -2.142   2.539  0.00  0.00    +0.136 C 
ATOM      3  C   UNL     1       5.465  -3.488   2.976  0.00  0.00    +0.083 C 
ATOM      4  N   UNL     1       6.512  -4.240   3.184  0.00  0.00    -0.150 NA
ATOM      5  N   UNL     1       7.705  -3.575   2.903  0.00  0.00    -0.115 NA
ATOM      6  C   UNL     1       7.505  -2.363   2.482  0.00  0.00    +0.227 C 
ATOM      7  O   UNL     1       8.334  -1.417   1.988  0.00  0.00    -0.425 OA
ATOM      8  C   UNL     1       7.840  -0.748   0.914  0.00  0.00    +0.200 C 
ATOM      9  C   UNL     1       6.573  -0.899   0.476  0.00  0.00    +0.090 C 
ENDROOT
BRANCH   3  10
ATOM     10  C   UNL     1       4.053  -3.872   3.135  0.00  0.00    -0.001 A 
ATOM     11  C   UNL     1       3.655  -5.194   2.913  0.00  0.00    +0.010 A 
ATOM     12  C   UNL     1       2.331  -5.546   3.065  0.00  0.00    +0.001 A 
ATOM     13  C   UNL     1       1.396  -4.595   3.435  0.00  0.00    +0.000 A 
ATOM     14  C   UNL     1       1.782  -3.285   3.656  0.00  0.00    +0.001 A 
ATOM     15  C   UNL     1       3.104  -2.918   3.515  0.00  0.00    +0.010 A 
ENDBRANCH   3  10
BRANCH   8  16
ATOM     16  N   UNL     1       8.667   0.119   0.244  0.00  0.00    -0.328 N 
ATOM     17  H   UNL     1       9.583   0.243   0.541  0.00  0.00    +0.145 HD
ATOM     18  H   UNL     1       8.336   0.608  -0.525  0.00  0.00    +0.145 HD
ENDBRANCH   8  16
BRANCH   9  19
ATOM     19  C   UNL     1       6.158  -0.127  -0.656  0.00  0.00    +0.100 C 
ATOM     20  N   UNL     1       5.829   0.486  -1.554  0.00  0.00    -0.191 NA
ENDBRANCH   9  19
BRANCH   1  21
ATOM     21  C   UNL     1       4.191  -1.152   1.117  0.00  0.00    +0.015 C 
BRANCH  21  22
ATOM     22  C   UNL     1       4.271   0.154   1.910  0.00  0.00    +0.036 C 
BRANCH  22  26
ATOM     23  C   UNL     1       0.540   2.216   1.644  0.00  0.00    +0.000 A 
ATOM     24  C   UNL     1       0.758   1.310   2.666  0.00  0.00    +0.000 A 
ATOM     25  C   UNL     1       1.966   0.643   2.752  0.00  0.00    +0.003 A 
ATOM     26  C   UNL     1       2.955   0.880   1.816  0.00  0.00    -0.047 A 
ATOM     27  C   UNL     1       2.736   1.785   0.793  0.00  0.00    +0.003 A 
ATOM     28  C   UNL     1       1.529   2.454   0.708  0.00  0.00    +0.000 A 
ENDBRANCH  22  26
ENDBRANCH  21  22
ENDBRANCH   1  21
TORSDOF 6
