REMARK  Name = ZINC25080083
REMARK  11 active torsions:
REMARK  status: ('A' for Active; 'I' for Inactive)
REMARK    1  A    between atoms: C_1  and  C_2
REMARK    2  A    between atoms: C_2  and  C_3
REMARK    3  A    between atoms: C_2  and  C_4
REMARK    4  A    between atoms: C_4  and  C_6
REMARK    5  A    between atoms: C_4  and  N_22
REMARK    6  A    between atoms: N_8  and  C_9
REMARK    7  A    between atoms: C_9  and  C_10
REMARK    8  A    between atoms: C_10  and  C_12
REMARK    9  A    between atoms: C_10  and  N_17
REMARK   10  A    between atoms: N_22  and  S_23
REMARK   11  A    between atoms: S_23  and  C_26
REMARK                            x       y       z     vdW  Elec       q    Type
REMARK                         _______ _______ _______ _____ _____    ______ ____
ROOT
ATOM      1  C   UNL     1       2.410  -1.789  -3.305  0.00  0.00    +0.232 C 
ATOM      2  O   UNL     1       1.255  -2.068  -3.548  0.00  0.00    -0.274 OA
ATOM      3  N   UNL     1       3.169  -1.187  -4.242  0.00  0.00    -0.315 N 
ATOM      4  H   UNL     1       4.217  -0.934  -4.021  0.00  0.00    +0.149 HD
ENDROOT
BRANCH   1   5
ATOM      5  C   UNL     1       2.996  -2.115  -1.955  0.00  0.00    +0.165 C 
BRANCH   5   7
ATOM      6  C   UNL     1       4.857  -3.292  -0.776  0.00  0.00    +0.009 C 
ATOM      7  C   UNL     1       4.185  -3.062  -2.131  0.00  0.00    +0.010 C 
ATOM      8  C   UNL     1       3.695  -4.398  -2.691  0.00  0.00    +0.009 C 
ENDBRANCH   5   7
BRANCH   5   9
ATOM      9  N   UNL     1       1.977  -2.760  -1.123  0.00  0.00    -0.178 NA
ATOM     10  H   UNL     1       1.441  -3.645  -1.497  0.00  0.00    +0.149 HD
BRANCH   9  11
ATOM     11  S   UNL     1       1.453  -2.024   0.264  0.00  0.00    +0.059 S 
ATOM     12  O   UNL     1       2.616  -1.669   1.000  0.00  0.00    -0.153 OA
ATOM     13  O   UNL     1       0.433  -2.853   0.804  0.00  0.00    -0.153 OA
BRANCH  11  14
ATOM     14  C   UNL     1       0.676  -0.514  -0.208  0.00  0.00    +0.105 A 
ATOM     15  C   UNL     1      -0.678  -0.492  -0.488  0.00  0.00    +0.030 A 
ATOM     16  C   UNL     1      -1.288   0.692  -0.858  0.00  0.00    +0.022 A 
ATOM     17  C   UNL     1      -0.543   1.854  -0.950  0.00  0.00    +0.041 A 
ATOM     18  C   UNL     1       0.812   1.831  -0.671  0.00  0.00    +0.022 A 
ATOM     19  C   UNL     1       1.421   0.647  -0.300  0.00  0.00    +0.030 A 
ATOM     20 CL   UNL     1      -1.308   3.341  -1.415  0.00  0.00    -0.084 Cl
ENDBRANCH  11  14
ENDBRANCH   9  11
ENDBRANCH   5   9
ENDBRANCH   1   5
BRANCH   3  21
ATOM     21  C   UNL     1       2.600  -0.870  -5.554  0.00  0.00    +0.094 C 
BRANCH  21  22
ATOM     22  C   UNL     1       3.703  -0.345  -6.475  0.00  0.00    -0.013 C 
BRANCH  22  23
ATOM     23  N   UNL     1       4.710  -1.394  -6.681  0.00  0.00    +0.386 N 
ATOM     24  C   UNL     1       5.649  -1.025  -7.771  0.00  0.00    -0.078 C 
ATOM     25  C   UNL     1       6.882  -1.921  -7.497  0.00  0.00    -0.020 C 
ATOM     26  C   UNL     1       6.963  -1.935  -5.953  0.00  0.00    -0.020 C 
ATOM     27  C   UNL     1       5.545  -1.571  -5.473  0.00  0.00    -0.078 C 
ATOM     28  H   UNL     1       4.146  -2.308  -6.918  0.00  0.00    -0.081 HD
ENDBRANCH  22  23
BRANCH  22  29
ATOM     29  C   UNL     1       3.105   0.045  -7.802  0.00  0.00    -0.022 A 
ATOM     30  C   UNL     1       2.873   1.282  -8.304  0.00  0.00    +0.009 A 
ATOM     31  C   UNL     1       2.310   1.402  -9.560  0.00  0.00    +0.008 A 
ATOM     32  C   UNL     1       2.006   0.278 -10.254  0.00  0.00    +0.045 A 
ATOM     33  S   UNL     1       2.526  -1.004  -9.126  0.00  0.00    -0.103 S 
ENDBRANCH  22  29
ENDBRANCH  21  22
ENDBRANCH   3  21
TORSDOF 9
