REMARK  Name = ZINC21284296
REMARK  7 active torsions:
REMARK  status: ('A' for Active; 'I' for Inactive)
REMARK    1  A    between atoms: C_1  and  C_2
REMARK    2  A    between atoms: C_2  and  C_4
REMARK    3  A    between atoms: C_2  and  O_16
REMARK    4  A    between atoms: O_16  and  C_17
REMARK    5  A    between atoms: C_17  and  C_19
REMARK    6  A    between atoms: C_23  and  S_25
REMARK    7  A    between atoms: S_25  and  N_28
REMARK                            x       y       z     vdW  Elec       q    Type
REMARK                         _______ _______ _______ _____ _____    ______ ____
ROOT
ATOM      1  C   UNL     1       0.041  -2.095   1.184  0.00  0.00    +0.061 A 
ATOM      2  C   UNL     1       0.039  -2.778  -0.033  0.00  0.00    +0.015 A 
ATOM      3  C   UNL     1       0.018  -2.071  -1.218  0.00  0.00    +0.003 A 
ATOM      4  C   UNL     1      -0.006  -0.688  -1.201  0.00  0.00    +0.029 A 
ATOM      5  C   UNL     1       0.002  -0.004   0.002  0.00  0.00    +0.109 A 
ATOM      6  C   UNL     1       0.023  -0.699   1.194  0.00  0.00    +0.043 A 
ENDROOT
BRANCH   5   7
ATOM      7  S   UNL     1      -0.022   1.758   0.012  0.00  0.00    +0.075 S 
ATOM      8  O   UNL     1      -0.590   2.163  -1.226  0.00  0.00    -0.150 OA
ATOM      9  O   UNL     1      -0.566   2.150   1.264  0.00  0.00    -0.150 OA
BRANCH   7  10
ATOM     10  N   UNL     1       1.553   2.269  -0.001  0.00  0.00    -0.202 N 
ATOM     11  C   UNL     1       2.340   2.534  -1.208  0.00  0.00    +0.136 C 
ATOM     12  C   UNL     1       3.721   2.979  -0.699  0.00  0.00    +0.058 C 
ATOM     13  C   UNL     1       3.605   2.929   0.808  0.00  0.00    -0.023 A 
ATOM     14  C   UNL     1       2.323   2.515   1.137  0.00  0.00    +0.054 A 
ATOM     15  C   UNL     1       1.974   2.398   2.484  0.00  0.00    +0.025 A 
ATOM     16  C   UNL     1       2.893   2.693   3.469  0.00  0.00    +0.002 A 
ATOM     17  C   UNL     1       4.167   3.108   3.130  0.00  0.00    +0.000 A 
ATOM     18  C   UNL     1       4.523   3.218   1.798  0.00  0.00    +0.005 A 
ENDBRANCH   7  10
ENDBRANCH   5   7
BRANCH   1  19
ATOM     19  C   UNL     1       0.063  -2.845   2.457  0.00  0.00    +0.340 C 
ATOM     20  O   UNL     1       0.065  -2.248   3.514  0.00  0.00    -0.245 OA
BRANCH  19  21
ATOM     21  O   UNL     1       0.081  -4.192   2.444  0.00  0.00    -0.450 OA
BRANCH  21  23
ATOM     22  C   UNL     1       1.551  -5.080   4.170  0.00  0.00    +0.060 C 
ATOM     23  C   UNL     1       0.102  -4.863   3.731  0.00  0.00    +0.239 C 
BRANCH  23  24
ATOM     24  C   UNL     1      -0.592  -6.196   3.614  0.00  0.00    +0.151 A 
ATOM     25  N   UNL     1      -1.949  -6.212   3.546  0.00  0.00    -0.307 N 
ATOM     26  H   UNL     1      -2.513  -5.268   3.582  0.00  0.00    +0.170 HD
ATOM     27  C   UNL     1      -2.619  -7.383   3.435  0.00  0.00    +0.259 A 
ATOM     28  O   UNL     1      -3.834  -7.412   3.369  0.00  0.00    -0.267 OA
ATOM     29  C   UNL     1      -1.823  -8.618   3.403  0.00  0.00    +0.065 A 
ATOM     30  C   UNL     1      -2.415  -9.875   3.297  0.00  0.00    +0.015 A 
ATOM     31  C   UNL     1      -1.621 -11.000   3.272  0.00  0.00    +0.001 A 
ATOM     32  C   UNL     1      -0.239 -10.891   3.352  0.00  0.00    +0.002 A 
ATOM     33  C   UNL     1       0.366  -9.659   3.458  0.00  0.00    +0.028 A 
ATOM     34  C   UNL     1      -0.417  -8.504   3.485  0.00  0.00    +0.078 A 
ATOM     35  N   UNL     1       0.137  -7.270   3.589  0.00  0.00    -0.230 NA
ENDBRANCH  23  24
ENDBRANCH  21  23
ENDBRANCH  19  21
ENDBRANCH   1  19
TORSDOF 6
