REMARK  Name = ZINC38687667
REMARK  8 active torsions:
REMARK  status: ('A' for Active; 'I' for Inactive)
REMARK    1  A    between atoms: C_1  and  C_2
REMARK    2  A    between atoms: C_8  and  C_35
REMARK    3  A    between atoms: C_9  and  C_11
REMARK    4  A    between atoms: C_11  and  O_13
REMARK    5  A    between atoms: O_13  and  C_14
REMARK    6  A    between atoms: C_21  and  N_34
REMARK    7  A    between atoms: C_22  and  C_32
REMARK    8  A    between atoms: C_23  and  C_25
REMARK                            x       y       z     vdW  Elec       q    Type
REMARK                         _______ _______ _______ _____ _____    ______ ____
ROOT
ATOM      1  C   UNL     1       0.086  -7.890   2.204  0.00  0.00    +0.136 A 
ATOM      2  C   UNL     1       0.015  -7.830   3.589  0.00  0.00    +0.047 A 
ATOM      3  C   UNL     1      -0.000  -8.994   4.330  0.00  0.00    +0.012 A 
ATOM      4  C   UNL     1       0.055 -10.224   3.698  0.00  0.00    +0.008 A 
ATOM      5  C   UNL     1       0.127 -10.290   2.316  0.00  0.00    +0.138 A 
ATOM      6  C   UNL     1       0.136  -9.119   1.568  0.00  0.00    +0.093 A 
ATOM      7  O   UNL     1       0.183 -11.485   1.678  0.00  0.00    -0.441 OA
ATOM      8  C   UNL     1      -0.210 -12.602   2.313  0.00  0.00    +0.199 C 
ATOM      9  C   UNL     1      -0.301 -12.666   3.662  0.00  0.00    +0.098 C 
ATOM     10  C   UNL     1       0.038 -11.483   4.525  0.00  0.00    +0.099 C 
ENDROOT
BRANCH  10  11
ATOM     11  C   UNL     1       1.396 -11.690   5.146  0.00  0.00    -0.016 A 
ATOM     12  C   UNL     1       2.511 -11.827   4.340  0.00  0.00    +0.006 A 
ATOM     13  C   UNL     1       3.756 -12.017   4.910  0.00  0.00    +0.000 A 
ATOM     14  C   UNL     1       3.886 -12.072   6.285  0.00  0.00    +0.001 A 
ATOM     15  C   UNL     1       2.772 -11.935   7.091  0.00  0.00    +0.020 A 
ATOM     16  C   UNL     1       1.526 -11.739   6.522  0.00  0.00    +0.045 A 
ATOM     17 CL   UNL     1       0.127 -11.561   7.534  0.00  0.00    -0.083 Cl
ENDBRANCH  10  11
BRANCH   8  18
ATOM     18  N   UNL     1      -0.530 -13.712   1.571  0.00  0.00    -0.328 N 
ATOM     19  H   UNL     1      -0.471 -13.682   0.603  0.00  0.00    +0.145 HD
ATOM     20  H   UNL     1      -0.816 -14.526   2.014  0.00  0.00    +0.145 HD
ENDBRANCH   8  18
BRANCH   9  21
ATOM     21  C   UNL     1      -0.728 -13.885   4.280  0.00  0.00    +0.101 C 
ATOM     22  N   UNL     1      -1.067 -14.852   4.770  0.00  0.00    -0.191 NA
ENDBRANCH   9  21
BRANCH   1  23
ATOM     23  O   UNL     1       0.101  -6.744   1.473  0.00  0.00    -0.420 OA
BRANCH  23  24
ATOM     24  C   UNL     1      -1.038  -6.375   0.852  0.00  0.00    +0.380 C 
ATOM     25  O   UNL     1      -2.011  -7.104   0.881  0.00  0.00    -0.241 OA
BRANCH  24  34
ATOM     26  C   UNL     1      -2.491  -0.164  -3.016  0.00  0.00    +0.044 C 
ATOM     27  C   UNL     1      -1.789  -1.213  -2.193  0.00  0.00    -0.050 A 
ATOM     28  C   UNL     1      -0.470  -1.017  -1.806  0.00  0.00    +0.007 A 
ATOM     29  C   UNL     1       0.192  -1.963  -1.054  0.00  0.00    +0.047 A 
ATOM     30  C   UNL     1      -0.465  -3.128  -0.673  0.00  0.00    +0.136 A 
ATOM     31  C   UNL     1      -1.802  -3.321  -1.067  0.00  0.00    +0.024 A 
ATOM     32  C   UNL     1      -2.456  -2.347  -1.827  0.00  0.00    +0.015 A 
ATOM     33  C   UNL     1      -2.194  -4.618  -0.518  0.00  0.00    +0.010 A 
ATOM     34  C   UNL     1      -1.104  -5.093   0.141  0.00  0.00    +0.216 A 
ATOM     35  O   UNL     1      -0.091  -4.206   0.043  0.00  0.00    -0.448 OA
ATOM     36  C   UNL     1      -3.534  -5.293  -0.656  0.00  0.00    +0.048 C 
ENDBRANCH  24  34
ENDBRANCH  23  24
ENDBRANCH   1  23
TORSDOF 6
