REMARK  Name = ZINC10768674
REMARK  6 active torsions:
REMARK  status: ('A' for Active; 'I' for Inactive)
REMARK    1  A    between atoms: C_1  and  C_2
REMARK    2  A    between atoms: C_9  and  N_14
REMARK    3  A    between atoms: C_10  and  C_11
REMARK    4  A    between atoms: C_15  and  C_17
REMARK    5  A    between atoms: N_22  and  S_24
REMARK    6  A    between atoms: S_24  and  C_27
REMARK                            x       y       z     vdW  Elec       q    Type
REMARK                         _______ _______ _______ _____ _____    ______ ____
ROOT
ATOM      1  N   UNL     1      -1.166   5.367   0.045  0.00  0.00    -0.279 N 
ATOM      2  C   UNL     1      -2.505   5.518   0.059  0.00  0.00    +0.222 C 
ATOM      3  O   UNL     1      -3.225   4.543   0.061  0.00  0.00    -0.275 OA
ATOM      4  H   UNL     1      -0.590   6.147   0.044  0.00  0.00    +0.155 HD
ENDROOT
BRANCH   1  12
ATOM      5  C   UNL     1       1.559  -1.965   0.067  0.00  0.00    +0.008 C 
ATOM      6  C   UNL     1       1.420  -0.471   0.364  0.00  0.00    -0.009 C 
ATOM      7  C   UNL     1       2.428   0.317  -0.478  0.00  0.00    +0.008 C 
ATOM      8  C   UNL     1       2.469   1.773  -0.013  0.00  0.00    +0.037 C 
ATOM      9  C   UNL     1       1.048   2.323   0.004  0.00  0.00    -0.023 A 
ATOM     10  C   UNL     1      -0.018   1.493   0.010  0.00  0.00    -0.004 A 
ATOM     11  S   UNL     1      -1.426   2.567   0.037  0.00  0.00    -0.077 S 
ATOM     12  C   UNL     1      -0.612   4.096   0.032  0.00  0.00    +0.084 A 
ATOM     13  C   UNL     1       0.729   3.740   0.017  0.00  0.00    +0.068 A 
ATOM     14  C   UNL     1       0.002  -0.004   0.002  0.00  0.00    +0.046 C 
BRANCH  13  15
ATOM     15  C   UNL     1       1.786   4.757   0.013  0.00  0.00    +0.244 C 
ATOM     16  O   UNL     1       2.214   5.186  -1.043  0.00  0.00    -0.270 OA
ATOM     17  N   UNL     1       2.283   5.217   1.178  0.00  0.00    -0.325 N 
ATOM     18  H   UNL     1       1.942   4.875   2.019  0.00  0.00    +0.145 HD
ATOM     19  H   UNL     1       2.982   5.889   1.175  0.00  0.00    +0.145 HD
ENDBRANCH  13  15
ENDBRANCH   1  12
BRANCH   2  20
ATOM     20  C   UNL     1      -3.107   6.900   0.073  0.00  0.00    +0.091 C 
ATOM     21  C   UNL     1      -2.666   7.662  -1.178  0.00  0.00    +0.015 C 
ATOM     22  C   UNL     1      -3.250   9.076  -1.148  0.00  0.00    +0.018 C 
ATOM     23  C   UNL     1      -4.779   8.993  -1.148  0.00  0.00    +0.109 C 
ATOM     24  N   UNL     1      -5.206   8.140  -0.030  0.00  0.00    -0.175 NA
ATOM     25  C   UNL     1      -4.635   6.792   0.088  0.00  0.00    +0.122 C 
BRANCH  24  26
ATOM     26  S   UNL     1      -6.309   8.689   1.077  0.00  0.00    +0.067 S 
ATOM     27  O   UNL     1      -7.060   9.707   0.431  0.00  0.00    -0.152 OA
ATOM     28  O   UNL     1      -6.918   7.539   1.648  0.00  0.00    -0.152 OA
BRANCH  26  29
ATOM     29  C   UNL     1      -5.404   9.474   2.369  0.00  0.00    +0.144 A 
ATOM     30  C   UNL     1      -5.021  10.769   2.478  0.00  0.00    +0.038 A 
ATOM     31  C   UNL     1      -4.313  11.168   3.596  0.00  0.00    +0.030 A 
ATOM     32  C   UNL     1      -4.012  10.248   4.546  0.00  0.00    +0.080 A 
ATOM     33  S   UNL     1      -4.746   8.767   3.871  0.00  0.00    -0.057 S 
ATOM     34 CL   UNL     1      -3.141  10.456   6.033  0.00  0.00    -0.076 Cl
ENDBRANCH  26  29
ENDBRANCH  24  26
ENDBRANCH   2  20
TORSDOF 5
