REMARK  Name = ZINC56173850
REMARK  9 active torsions:
REMARK  status: ('A' for Active; 'I' for Inactive)
REMARK    1  A    between atoms: C_1  and  C_2
REMARK    2  A    between atoms: C_2  and  C_4
REMARK    3  A    between atoms: C_2  and  N_19
REMARK    4  A    between atoms: N_6  and  C_7
REMARK    5  A    between atoms: C_7  and  C_8
REMARK    6  A    between atoms: C_8  and  C_9
REMARK    7  A    between atoms: C_12  and  S_15
REMARK    8  A    between atoms: S_15  and  N_18
REMARK    9  A    between atoms: N_19  and  C_20
REMARK                            x       y       z     vdW  Elec       q    Type
REMARK                         _______ _______ _______ _____ _____    ______ ____
ROOT
ATOM      1  C   UNL     1      -1.412  -0.526   0.013  0.00  0.00    +0.233 C 
ATOM      2  O   UNL     1      -1.808  -1.223  -0.897  0.00  0.00    -0.274 OA
ATOM      3  N   UNL     1      -2.236  -0.217   1.033  0.00  0.00    -0.313 N 
ATOM      4  H   UNL     1      -1.920   0.341   1.761  0.00  0.00    +0.149 HD
ENDROOT
BRANCH   1   6
ATOM      5  C   UNL     1      -0.019   1.526   0.010  0.00  0.00    +0.038 C 
ATOM      6  C   UNL     1       0.002  -0.004   0.002  0.00  0.00    +0.154 C 
BRANCH   6   7
ATOM      7  N   UNL     1       0.688  -0.476  -1.203  0.00  0.00    -0.333 N 
ATOM      8  H   UNL     1       0.175  -0.710  -1.993  0.00  0.00    +0.147 HD
BRANCH   7   9
ATOM      9  C   UNL     1       2.080  -0.591  -1.215  0.00  0.00    +0.030 A 
ATOM     10  C   UNL     1       2.815  -0.263  -0.083  0.00  0.00    +0.024 A 
ATOM     11  C   UNL     1       4.192  -0.377  -0.096  0.00  0.00    +0.024 A 
ATOM     12  C   UNL     1       4.840  -0.817  -1.236  0.00  0.00    +0.076 A 
ATOM     13  C   UNL     1       4.111  -1.146  -2.368  0.00  0.00    +0.143 A 
ATOM     14  C   UNL     1       2.731  -1.039  -2.357  0.00  0.00    +0.062 A 
ATOM     15  F   UNL     1       4.746  -1.575  -3.480  0.00  0.00    -0.204 F 
ATOM     16 CL   UNL     1       6.570  -0.959  -1.249  0.00  0.00    -0.081 Cl
ENDBRANCH   7   9
ENDBRANCH   6   7
ENDBRANCH   1   6
BRANCH   3  17
ATOM     17  C   UNL     1      -3.611  -0.724   1.044  0.00  0.00    +0.109 C 
BRANCH  17  18
ATOM     18  C   UNL     1      -4.327  -0.231   2.302  0.00  0.00    +0.054 C 
BRANCH  18  19
ATOM     19  C   UNL     1      -5.741  -0.752   2.313  0.00  0.00    -0.046 A 
ATOM     20  C   UNL     1      -6.753  -0.018   1.723  0.00  0.00    +0.005 A 
ATOM     21  C   UNL     1      -8.050  -0.497   1.733  0.00  0.00    +0.029 A 
ATOM     22  C   UNL     1      -8.334  -1.709   2.332  0.00  0.00    +0.105 A 
ATOM     23  C   UNL     1      -7.322  -2.444   2.921  0.00  0.00    +0.029 A 
ATOM     24  C   UNL     1      -6.024  -1.967   2.908  0.00  0.00    +0.005 A 
BRANCH  22  25
ATOM     25  S   UNL     1      -9.988  -2.319   2.346  0.00  0.00    +0.056 S 
ATOM     26  O   UNL     1     -10.081  -3.214   3.445  0.00  0.00    -0.153 OA
ATOM     27  O   UNL     1     -10.838  -1.188   2.209  0.00  0.00    -0.153 OA
BRANCH  25  28
ATOM     28  N   UNL     1     -10.185  -3.228   0.976  0.00  0.00    -0.204 NA
ATOM     29  H   UNL     1      -9.449  -3.333   0.353  0.00  0.00    +0.144 HD
ATOM     30  H   UNL     1     -11.037  -3.656   0.797  0.00  0.00    +0.144 HD
ENDBRANCH  25  28
ENDBRANCH  22  25
ENDBRANCH  18  19
ENDBRANCH  17  18
ENDBRANCH   3  17
TORSDOF 8
