REMARK  Name = ZINC39919012
REMARK  11 active torsions:
REMARK  status: ('A' for Active; 'I' for Inactive)
REMARK    1  A    between atoms: C_1  and  C_2
REMARK    2  A    between atoms: C_5  and  C_8
REMARK    3  A    between atoms: C_8  and  N_9
REMARK    4  A    between atoms: C_22  and  C_31
REMARK    5  A    between atoms: N_23  and  C_26
REMARK    6  A    between atoms: C_26  and  C_27
REMARK    7  A    between atoms: C_27  and  N_28
REMARK    8  A    between atoms: N_28  and  C_29
REMARK    9  A    between atoms: N_28  and  C_30
REMARK   10  A    between atoms: C_33  and  N_37
REMARK   11  A    between atoms: C_34  and  C_35
REMARK                            x       y       z     vdW  Elec       q    Type
REMARK                         _______ _______ _______ _____ _____    ______ ____
ROOT
ATOM      1  N   UNL     1       1.447  -4.746  -0.032  0.00  0.00    -0.265 N 
ATOM      2  C   UNL     1       2.174  -4.983  -1.184  0.00  0.00    +0.041 A 
ATOM      3  C   UNL     1       1.793  -4.838  -2.519  0.00  0.00    +0.024 A 
ATOM      4  C   UNL     1       2.736  -5.152  -3.486  0.00  0.00    +0.002 A 
ATOM      5  C   UNL     1       4.002  -5.589  -3.156  0.00  0.00    +0.000 A 
ATOM      6  C   UNL     1       4.395  -5.736  -1.830  0.00  0.00    +0.007 A 
ATOM      7  C   UNL     1       3.463  -5.425  -0.864  0.00  0.00    -0.001 A 
ATOM      8  C   UNL     1       3.537  -5.459   0.631  0.00  0.00    +0.147 C 
ATOM      9  C   UNL     1       2.167  -4.993   1.081  0.00  0.00    +0.241 C 
ATOM     10  O   UNL     1       1.789  -4.870   2.227  0.00  0.00    -0.274 OA
ATOM     11  C   UNL     1       3.800  -6.851   1.127  0.00  0.00    +0.084 A 
ATOM     12  C   UNL     1       5.032  -7.189   1.647  0.00  0.00    +0.142 A 
ATOM     13  C   UNL     1       5.242  -8.506   2.105  0.00  0.00    +0.068 A 
ATOM     14  C   UNL     1       4.242  -9.411   2.026  0.00  0.00    +0.022 A 
ATOM     15  N   UNL     1       3.032  -9.072   1.509  0.00  0.00    -0.314 N 
ATOM     16  C   UNL     1       2.793  -7.824   1.064  0.00  0.00    +0.260 A 
ATOM     17  O   UNL     1       1.698  -7.540   0.605  0.00  0.00    -0.267 OA
ATOM     18  C   UNL     1       4.473 -10.818   2.515  0.00  0.00    +0.064 C 
ATOM     19  O   UNL     1       6.029  -6.283   1.720  0.00  0.00    -0.441 OA
ATOM     20  C   UNL     1       5.754  -4.969   1.646  0.00  0.00    +0.199 C 
ATOM     21  C   UNL     1       4.585  -4.510   1.137  0.00  0.00    +0.110 C 
ENDROOT
BRANCH  20  22
ATOM     22  N   UNL     1       6.685  -4.067   2.098  0.00  0.00    -0.328 N 
ATOM     23  H   UNL     1       7.526  -4.380   2.465  0.00  0.00    +0.145 HD
ATOM     24  H   UNL     1       6.501  -3.115   2.050  0.00  0.00    +0.145 HD
ENDBRANCH  20  22
BRANCH  21  25
ATOM     25  C   UNL     1       4.346  -3.099   1.080  0.00  0.00    +0.102 C 
ATOM     26  N   UNL     1       4.157  -1.980   1.035  0.00  0.00    -0.191 NA
ENDBRANCH  21  25
BRANCH   1  27
ATOM     27  C   UNL     1       0.059  -4.275  -0.021  0.00  0.00    +0.148 C 
BRANCH  27  32
ATOM     28  C   UNL     1      -0.018   1.503   0.010  0.00  0.00    +0.044 C 
ATOM     29  C   UNL     1       0.002  -0.004   0.002  0.00  0.00    -0.050 A 
ATOM     30  C   UNL     1       0.006  -0.689  -1.199  0.00  0.00    +0.003 A 
ATOM     31  C   UNL     1       0.025  -2.071  -1.206  0.00  0.00    +0.005 A 
ATOM     32  C   UNL     1       0.040  -2.768  -0.013  0.00  0.00    -0.030 A 
ATOM     33  C   UNL     1       0.037  -2.084   1.188  0.00  0.00    +0.005 A 
ATOM     34  C   UNL     1       0.023  -0.702   1.195  0.00  0.00    +0.003 A 
ENDBRANCH  27  32
ENDBRANCH   1  27
BRANCH  15  35
ATOM     35  C   UNL     1       1.971 -10.079   1.437  0.00  0.00    +0.106 C 
BRANCH  35  36
ATOM     36  C   UNL     1       1.148 -10.047   2.726  0.00  0.00    -0.058 C 
BRANCH  36  37
ATOM     37  N   UNL     1       0.084 -11.057   2.653  0.00  0.00    +0.377 N 
ATOM     38  C   UNL     1       0.683 -12.397   2.607  0.00  0.00    -0.097 C 
ATOM     39  C   UNL     1      -0.778 -10.946   3.837  0.00  0.00    -0.097 C 
ATOM     40  H   UNL     1      -0.466 -10.906   1.821  0.00  0.00    -0.083 HD
ENDBRANCH  36  37
ENDBRANCH  35  36
ENDBRANCH  15  35
TORSDOF 7
