REMARK  Name = ZINC00914890
REMARK  12 active torsions:
REMARK  status: ('A' for Active; 'I' for Inactive)
REMARK    1  A    between atoms: C_1  and  C_2
REMARK    2  A    between atoms: C_2  and  O_3
REMARK    3  A    between atoms: O_3  and  C_4
REMARK    4  A    between atoms: C_4  and  C_6
REMARK    5  A    between atoms: C_10  and  S_12
REMARK    6  A    between atoms: S_12  and  N_15
REMARK    7  A    between atoms: N_15  and  C_16
REMARK    8  A    between atoms: N_15  and  C_26
REMARK    9  A    between atoms: C_16  and  C_17
REMARK   10  A    between atoms: C_26  and  C_27
REMARK   11  A    between atoms: C_31  and  C_40
REMARK   12  A    between atoms: C_32  and  C_39
REMARK                            x       y       z     vdW  Elec       q    Type
REMARK                         _______ _______ _______ _____ _____    ______ ____
ROOT
ATOM      1  N   UNL     1      -4.596  -5.071  -1.562  0.00  0.00    -0.168 NA
ENDROOT
BRANCH   1   2
ATOM      2  S   UNL     1      -4.043  -4.961  -0.005  0.00  0.00    +0.061 S 
ATOM      3  O   UNL     1      -3.744  -6.285   0.415  0.00  0.00    -0.153 OA
ATOM      4  O   UNL     1      -4.960  -4.129   0.693  0.00  0.00    -0.153 OA
BRANCH   2   9
ATOM      5  C   UNL     1      -1.268  -2.047   0.157  0.00  0.00    +0.061 A 
ATOM      6  C   UNL     1      -0.092  -2.736  -0.146  0.00  0.00    +0.015 A 
ATOM      7  C   UNL     1      -0.136  -4.092  -0.393  0.00  0.00    +0.003 A 
ATOM      8  C   UNL     1      -1.343  -4.768  -0.350  0.00  0.00    +0.028 A 
ATOM      9  C   UNL     1      -2.512  -4.091  -0.056  0.00  0.00    +0.106 A 
ATOM     10  C   UNL     1      -2.482  -2.735   0.198  0.00  0.00    +0.043 A 
BRANCH   5  11
ATOM     11  C   UNL     1      -1.229  -0.595   0.428  0.00  0.00    +0.339 C 
ATOM     12  O   UNL     1      -2.254   0.003   0.687  0.00  0.00    -0.245 OA
BRANCH  11  13
ATOM     13  O   UNL     1      -0.056   0.066   0.388  0.00  0.00    -0.461 OA
BRANCH  13  15
ATOM     14  C   UNL     1       1.324   2.064   0.573  0.00  0.00    +0.048 C 
ATOM     15  C   UNL     1      -0.092   1.491   0.664  0.00  0.00    +0.229 C 
ENDBRANCH  13  15
ENDBRANCH  11  13
ENDBRANCH   5  11
ENDBRANCH   2   9
ENDBRANCH   1   2
BRANCH   1  16
ATOM     16  C   UNL     1      -5.319  -3.949  -2.164  0.00  0.00    +0.145 C 
BRANCH  16  17
ATOM     17  C   UNL     1      -4.374  -3.139  -3.013  0.00  0.00    -0.028 A 
ATOM     18  C   UNL     1      -3.760  -2.018  -2.485  0.00  0.00    +0.009 A 
ATOM     19  C   UNL     1      -2.888  -1.276  -3.259  0.00  0.00    +0.050 A 
ATOM     20  C   UNL     1      -2.635  -1.646  -4.569  0.00  0.00    +0.166 A 
ATOM     21  C   UNL     1      -3.258  -2.772  -5.103  0.00  0.00    +0.167 A 
ATOM     22  C   UNL     1      -4.126  -3.515  -4.320  0.00  0.00    +0.054 A 
ATOM     23  O   UNL     1      -2.850  -2.924  -6.397  0.00  0.00    -0.453 OA
ATOM     24  C   UNL     1      -2.291  -1.652  -6.776  0.00  0.00    +0.466 C 
ATOM     25  O   UNL     1      -1.837  -1.093  -5.529  0.00  0.00    -0.453 OA
ENDBRANCH  16  17
ENDBRANCH   1  16
BRANCH   1  26
ATOM     26  C   UNL     1      -4.361  -6.292  -2.338  0.00  0.00    +0.150 C 
BRANCH  26  27
ATOM     27  C   UNL     1      -5.562  -7.195  -2.229  0.00  0.00    +0.033 A 
ATOM     28  C   UNL     1      -6.526  -7.155  -3.182  0.00  0.00    +0.020 A 
ATOM     29  C   UNL     1      -7.677  -8.050  -3.049  0.00  0.00    -0.001 A 
ATOM     30  C   UNL     1      -8.701  -8.058  -4.003  0.00  0.00    +0.013 A 
ATOM     31  C   UNL     1      -9.765  -8.901  -3.847  0.00  0.00    -0.047 A 
ATOM     32  C   UNL     1      -9.839  -9.749  -2.751  0.00  0.00    -0.046 A 
ATOM     33  C   UNL     1      -8.842  -9.759  -1.800  0.00  0.00    +0.030 A 
ATOM     34  C   UNL     1      -7.749  -8.910  -1.937  0.00  0.00    +0.049 A 
ATOM     35  N   UNL     1      -6.738  -8.898  -1.000  0.00  0.00    -0.322 N 
ATOM     36  H   UNL     1      -6.791  -9.508  -0.210  0.00  0.00    +0.169 HD
ATOM     37  C   UNL     1      -5.682  -8.076  -1.133  0.00  0.00    +0.254 A 
ATOM     38  O   UNL     1      -4.807  -8.092  -0.284  0.00  0.00    -0.268 OA
ATOM     39  C   UNL     1     -11.023 -10.670  -2.600  0.00  0.00    +0.044 C 
ATOM     40  C   UNL     1     -10.867  -8.909  -4.874  0.00  0.00    +0.044 C 
ENDBRANCH  26  27
ENDBRANCH   1  26
TORSDOF 9
