REMARK  Name = ZINC00709258
REMARK  11 active torsions:
REMARK  status: ('A' for Active; 'I' for Inactive)
REMARK    1  A    between atoms: C_1  and  C_2
REMARK    2  A    between atoms: C_2  and  O_3
REMARK    3  A    between atoms: O_3  and  C_4
REMARK    4  A    between atoms: C_4  and  C_6
REMARK    5  A    between atoms: C_11  and  N_12
REMARK    6  A    between atoms: C_11  and  N_62
REMARK    7  A    between atoms: N_20  and  C_21
REMARK    8  A    between atoms: C_24  and  O_29
REMARK    9  A    between atoms: C_26  and  O_27
REMARK   10  A    between atoms: O_27  and  C_28
REMARK   11  A    between atoms: O_29  and  C_30
REMARK                            x       y       z     vdW  Elec       q    Type
REMARK                         _______ _______ _______ _____ _____    ______ ____
ROOT
ATOM      1  N   UNL     1      -0.057   1.487   0.577  0.00  0.00    -0.282 N 
ATOM      2  C   UNL     1       1.067   2.295   0.715  0.00  0.00    +0.044 A 
ATOM      3  C   UNL     1       2.396   1.989   0.984  0.00  0.00    +0.024 A 
ATOM      4  C   UNL     1       3.336   2.997   1.071  0.00  0.00    +0.002 A 
ATOM      5  C   UNL     1       2.969   4.321   0.893  0.00  0.00    +0.001 A 
ATOM      6  C   UNL     1       1.654   4.645   0.626  0.00  0.00    +0.012 A 
ATOM      7  C   UNL     1       0.700   3.636   0.536  0.00  0.00    +0.027 A 
ATOM      8  C   UNL     1      -0.755   3.640   0.269  0.00  0.00    +0.135 C 
ATOM      9  N   UNL     1      -1.524   4.680   0.042  0.00  0.00    -0.238 NA
ATOM     10  C   UNL     1      -1.155   2.215   0.309  0.00  0.00    +0.268 C 
ATOM     11  O   UNL     1      -2.277   1.780   0.134  0.00  0.00    -0.268 OA
ENDROOT
BRANCH   9  12
ATOM     12  C   UNL     1      -2.861   4.524  -0.048  0.00  0.00    +0.108 A 
ATOM     13  C   UNL     1      -3.565   3.871   0.975  0.00  0.00    +0.055 A 
ATOM     14  C   UNL     1      -4.918   3.715   0.881  0.00  0.00    +0.085 A 
ATOM     15  C   UNL     1      -5.609   4.201  -0.228  0.00  0.00    +0.142 A 
ATOM     16  C   UNL     1      -4.929   4.850  -1.249  0.00  0.00    +0.095 A 
ATOM     17  C   UNL     1      -3.558   5.021  -1.167  0.00  0.00    +0.149 A 
ATOM     18 CL   UNL     1      -5.784   2.906   2.150  0.00  0.00    -0.080 Cl
BRANCH  17  19
ATOM     19  O   UNL     1      -2.889   5.660  -2.159  0.00  0.00    -0.493 OA
ATOM     20  C   UNL     1      -3.664   6.136  -3.262  0.00  0.00    +0.277 C 
ENDBRANCH  17  19
BRANCH  15  21
ATOM     21  O   UNL     1      -6.954   4.040  -0.310  0.00  0.00    -0.494 OA
ATOM     22  C   UNL     1      -7.601   4.561  -1.472  0.00  0.00    +0.277 C 
ENDBRANCH  15  21
ENDBRANCH   9  12
BRANCH   1  23
ATOM     23  C   UNL     1      -0.044   0.027   0.701  0.00  0.00    +0.039 C 
BRANCH  23  29
ATOM     24  C   UNL     1       0.015  -1.891   4.522  0.00  0.00    +0.094 C 
ATOM     25  C   UNL     1      -1.236  -1.995   3.645  0.00  0.00    -0.004 C 
ATOM     26  C   UNL     1      -0.861  -1.696   2.192  0.00  0.00    -0.076 C 
ATOM     27  C   UNL     1       0.941  -0.237   2.897  0.00  0.00    -0.076 C 
ATOM     28  C   UNL     1       0.619  -0.492   4.371  0.00  0.00    -0.004 C 
ATOM     29  N   UNL     1      -0.308  -0.328   2.111  0.00  0.00    +0.390 N 
ATOM     30  H   UNL     1      -0.994   0.332   2.498  0.00  0.00    -0.080 HD
BRANCH  24  31
ATOM     31  C   UNL     1      -0.359  -2.127   5.962  0.00  0.00    +0.310 C 
ATOM     32  O   UNL     1      -1.508  -2.355   6.259  0.00  0.00    -0.251 OA
BRANCH  31  33
ATOM     33  O   UNL     1       0.585  -2.084   6.916  0.00  0.00    -0.465 OA
BRANCH  33  35
ATOM     34  C   UNL     1       1.357  -2.232   9.221  0.00  0.00    +0.048 C 
ATOM     35  C   UNL     1       0.153  -2.321   8.282  0.00  0.00    +0.229 C 
ENDBRANCH  33  35
ENDBRANCH  31  33
ENDBRANCH  24  31
ENDBRANCH  23  29
ENDBRANCH   1  23
TORSDOF 8
