REMARK  Name = ZINC38651154
REMARK  8 active torsions:
REMARK  status: ('A' for Active; 'I' for Inactive)
REMARK    1  A    between atoms: C_3  and  C_8
REMARK    2  A    between atoms: C_13  and  O_22
REMARK    3  A    between atoms: C_17  and  N_21
REMARK    4  A    between atoms: C_18  and  C_19
REMARK    5  A    between atoms: O_22  and  C_23
REMARK    6  A    between atoms: C_23  and  C_25
REMARK    7  A    between atoms: C_25  and  O_26
REMARK    8  A    between atoms: O_26  and  C_27
REMARK                            x       y       z     vdW  Elec       q    Type
REMARK                         _______ _______ _______ _____ _____    ______ ____
ROOT
ATOM      1  C   UNL     1       3.692   2.129  -0.049  0.00  0.00    +0.098 C 
ATOM      2  C   UNL     1       4.487   1.788   1.183  0.00  0.00    +0.008 A 
ATOM      3  C   UNL     1       4.180   2.404   2.383  0.00  0.00    +0.012 A 
ATOM      4  C   UNL     1       4.898   2.103   3.524  0.00  0.00    +0.047 A 
ATOM      5  C   UNL     1       5.932   1.179   3.469  0.00  0.00    +0.135 A 
ATOM      6  C   UNL     1       6.242   0.560   2.269  0.00  0.00    +0.093 A 
ATOM      7  C   UNL     1       5.518   0.864   1.123  0.00  0.00    +0.138 A 
ATOM      8  O   UNL     1       5.834   0.249  -0.044  0.00  0.00    -0.441 OA
ATOM      9  C   UNL     1       5.437   0.783  -1.211  0.00  0.00    +0.199 C 
ATOM     10  C   UNL     1       4.428   1.678  -1.280  0.00  0.00    +0.098 C 
ENDROOT
BRANCH   1  13
ATOM     11  C   UNL     1      -0.038   1.555   0.063  0.00  0.00    +0.002 A 
ATOM     12  C   UNL     1       1.191   2.187   0.006  0.00  0.00    +0.004 A 
ATOM     13  C   UNL     1       2.353   1.440   0.013  0.00  0.00    -0.033 A 
ATOM     14  C   UNL     1       2.289   0.060   0.076  0.00  0.00    +0.024 A 
ATOM     15  C   UNL     1       1.060  -0.573   0.133  0.00  0.00    +0.041 A 
ATOM     16  C   UNL     1      -0.104   0.176   0.127  0.00  0.00    +0.020 A 
ATOM     17 CL   UNL     1       0.978  -2.305   0.211  0.00  0.00    -0.084 Cl
ENDBRANCH   1  13
BRANCH   9  18
ATOM     18  N   UNL     1       6.076   0.407  -2.366  0.00  0.00    -0.328 N 
ATOM     19  H   UNL     1       6.802  -0.235  -2.332  0.00  0.00    +0.145 HD
ATOM     20  H   UNL     1       5.801   0.784  -3.217  0.00  0.00    +0.145 HD
ENDBRANCH   9  18
BRANCH  10  21
ATOM     21  C   UNL     1       4.052   2.208  -2.556  0.00  0.00    +0.101 C 
ATOM     22  N   UNL     1       3.754   2.629  -3.568  0.00  0.00    -0.191 NA
ENDBRANCH  10  21
BRANCH   5  23
ATOM     23  O   UNL     1       6.640   0.883   4.591  0.00  0.00    -0.423 OA
BRANCH  23  24
ATOM     24  C   UNL     1       7.918   1.288   4.655  0.00  0.00    +0.350 C 
ATOM     25  O   UNL     1       8.375   1.986   3.781  0.00  0.00    -0.247 OA
BRANCH  24  26
ATOM     26  C   UNL     1       8.783   0.874   5.818  0.00  0.00    +0.349 C 
BRANCH  26  27
ATOM     27  O   UNL     1      10.091   1.427   5.660  0.00  0.00    -0.479 OA
BRANCH  27  28
ATOM     28  C   UNL     1      11.001   1.147   6.630  0.00  0.00    +0.140 A 
ATOM     29  C   UNL     1      10.643   0.351   7.708  0.00  0.00    +0.048 A 
ATOM     30  C   UNL     1      11.569   0.067   8.693  0.00  0.00    +0.023 A 
ATOM     31  C   UNL     1      12.853   0.576   8.605  0.00  0.00    +0.043 A 
ATOM     32  C   UNL     1      13.212   1.370   7.531  0.00  0.00    +0.043 A 
ATOM     33  C   UNL     1      12.290   1.652   6.540  0.00  0.00    +0.084 A 
ATOM     34 CL   UNL     1      12.743   2.642   5.188  0.00  0.00    -0.080 Cl
ATOM     35 CL   UNL     1      14.014   0.218   9.845  0.00  0.00    -0.083 Cl
ENDBRANCH  27  28
ENDBRANCH  26  27
ENDBRANCH  24  26
ENDBRANCH  23  24
ENDBRANCH   5  23
TORSDOF 8
