REMARK  Name = ZINC15642765
REMARK  6 active torsions:
REMARK  status: ('A' for Active; 'I' for Inactive)
REMARK    1  A    between atoms: C_1  and  C_2
REMARK    2  A    between atoms: C_2  and  C_4
REMARK    3  A    between atoms: C_2  and  O_17
REMARK    4  A    between atoms: O_17  and  C_18
REMARK    5  A    between atoms: C_18  and  C_20
REMARK    6  A    between atoms: C_25  and  N_26
REMARK                            x       y       z     vdW  Elec       q    Type
REMARK                         _______ _______ _______ _____ _____    ______ ____
ROOT
ATOM      1  C   UNL     1       1.381   2.903  -1.288  0.00  0.00    +0.062 C 
ATOM      2  C   UNL     1       1.299   2.001  -0.055  0.00  0.00    +0.259 C 
ENDROOT
BRANCH   2   3
ATOM      3  C   UNL     1       0.002   1.234  -0.079  0.00  0.00    +0.261 C 
ATOM      4  O   UNL     1       0.015   0.021  -0.100  0.00  0.00    -0.271 OA
ATOM      5  N   UNL     1      -1.172   1.895  -0.084  0.00  0.00    -0.258 N 
ATOM      6  C   UNL     1      -1.216   3.365  -0.059  0.00  0.00    +0.209 C 
ATOM      7  C   UNL     1      -2.302   3.809   0.887  0.00  0.00    +0.235 C 
ATOM      8  O   UNL     1      -2.197   4.870   1.464  0.00  0.00    -0.274 OA
ATOM      9  N   UNL     1      -3.388   3.041   1.098  0.00  0.00    -0.283 N 
ATOM     10  C   UNL     1      -3.511   1.791   0.483  0.00  0.00    +0.055 A 
ATOM     11  C   UNL     1      -2.393   1.203  -0.118  0.00  0.00    +0.058 A 
ATOM     12  C   UNL     1      -2.497  -0.033  -0.729  0.00  0.00    +0.025 A 
ATOM     13  C   UNL     1      -3.715  -0.688  -0.750  0.00  0.00    +0.002 A 
ATOM     14  C   UNL     1      -4.826  -0.110  -0.163  0.00  0.00    +0.002 A 
ATOM     15  C   UNL     1      -4.728   1.128   0.461  0.00  0.00    +0.025 A 
ATOM     16  H   UNL     1      -4.094   3.360   1.683  0.00  0.00    +0.155 HD
ENDBRANCH   2   3
BRANCH   2  17
ATOM     17  O   UNL     1       2.413   1.069  -0.061  0.00  0.00    -0.449 OA
BRANCH  17  18
ATOM     18  C   UNL     1       3.544   1.464   0.556  0.00  0.00    +0.342 C 
ATOM     19  O   UNL     1       3.598   2.557   1.085  0.00  0.00    -0.245 OA
BRANCH  18  20
ATOM     20  C   UNL     1       4.715   0.571   0.589  0.00  0.00    +0.082 A 
ATOM     21  C   UNL     1       4.619  -0.733   0.091  0.00  0.00    +0.037 A 
ATOM     22  C   UNL     1       5.718  -1.563   0.125  0.00  0.00    +0.043 A 
ATOM     23  C   UNL     1       6.921  -1.114   0.651  0.00  0.00    +0.042 A 
ATOM     24  C   UNL     1       7.031   0.170   1.145  0.00  0.00    +0.064 A 
ATOM     25  C   UNL     1       5.934   1.025   1.115  0.00  0.00    +0.057 A 
ATOM     26 CL   UNL     1       8.541   0.721   1.800  0.00  0.00    -0.082 Cl
ATOM     27 CL   UNL     1       5.597  -3.181  -0.493  0.00  0.00    -0.083 Cl
BRANCH  25  28
ATOM     28  N   UNL     1       6.044   2.320   1.607  0.00  0.00    -0.356 N 
ATOM     29  H   UNL     1       5.258   2.886   1.661  0.00  0.00    +0.142 HD
ATOM     30  H   UNL     1       6.906   2.657   1.895  0.00  0.00    +0.142 HD
ENDBRANCH  25  28
ENDBRANCH  18  20
ENDBRANCH  17  18
ENDBRANCH   2  17
TORSDOF 5
