REMARK  Name = ZINC48374938
REMARK  7 active torsions:
REMARK  status: ('A' for Active; 'I' for Inactive)
REMARK    1  A    between atoms: C_1  and  C_2
REMARK    2  A    between atoms: C_2  and  C_3
REMARK    3  A    between atoms: C_3  and  N_4
REMARK    4  A    between atoms: C_8  and  C_11
REMARK    5  A    between atoms: C_11  and  O_13
REMARK    6  A    between atoms: O_13  and  C_14
REMARK    7  A    between atoms: C_14  and  C_15
REMARK                            x       y       z     vdW  Elec       q    Type
REMARK                         _______ _______ _______ _____ _____    ______ ____
ROOT
ATOM      1  N   UNL     1       0.738  -1.962  -1.265  0.00  0.00    -0.278 N 
ATOM      2  C   UNL     1       1.790  -2.633  -0.673  0.00  0.00    +0.150 A 
ATOM      3  C   UNL     1       1.785  -4.042  -0.694  0.00  0.00    +0.083 A 
ATOM      4  C   UNL     1       2.832  -4.743  -0.106  0.00  0.00    +0.033 A 
ATOM      5  C   UNL     1       3.861  -4.002   0.490  0.00  0.00    +0.078 A 
ATOM      6  C   UNL     1       3.793  -2.605   0.470  0.00  0.00    +0.128 A 
ATOM      7  N   UNL     1       2.785  -1.976  -0.097  0.00  0.00    -0.236 NA
ATOM      8  C   UNL     1       0.658  -4.731  -1.346  0.00  0.00    +0.263 A 
ATOM      9  O   UNL     1       0.609  -5.945  -1.389  0.00  0.00    -0.267 OA
ATOM     10  N   UNL     1      -0.320  -3.976  -1.894  0.00  0.00    -0.274 N 
ATOM     11  H   UNL     1      -1.071  -4.409  -2.329  0.00  0.00    +0.173 HD
ATOM     12  C   UNL     1      -0.270  -2.635  -1.843  0.00  0.00    +0.331 A 
ATOM     13  O   UNL     1      -1.177  -2.002  -2.347  0.00  0.00    -0.246 OA
ENDROOT
BRANCH   5  14
ATOM     14  C   UNL     1       4.999  -4.686   1.131  0.00  0.00    +0.341 C 
ATOM     15  O   UNL     1       5.050  -5.900   1.145  0.00  0.00    -0.245 OA
BRANCH  14  16
ATOM     16  O   UNL     1       5.984  -3.965   1.702  0.00  0.00    -0.457 OA
BRANCH  16  17
ATOM     17  C   UNL     1       7.056  -4.693   2.304  0.00  0.00    +0.280 C 
BRANCH  17  18
ATOM     18  C   UNL     1       8.070  -3.712   2.895  0.00  0.00    +0.248 C 
ATOM     19  C   UNL     1       9.166  -4.486   3.639  0.00  0.00    +0.277 C 
ATOM     20  O   UNL     1      10.104  -3.541   4.166  0.00  0.00    -0.485 OA
ATOM     21  C   UNL     1      10.521  -2.558   3.322  0.00  0.00    +0.162 A 
ATOM     22  C   UNL     1      11.670  -1.843   3.626  0.00  0.00    +0.049 A 
ATOM     23  C   UNL     1      12.104  -0.839   2.781  0.00  0.00    +0.004 A 
ATOM     24  C   UNL     1      11.396  -0.546   1.630  0.00  0.00    +0.004 A 
ATOM     25  C   UNL     1      10.252  -1.257   1.321  0.00  0.00    +0.049 A 
ATOM     26  C   UNL     1       9.810  -2.266   2.165  0.00  0.00    +0.163 A 
ATOM     27  O   UNL     1       8.686  -2.961   1.843  0.00  0.00    -0.478 OA
ENDBRANCH  17  18
ENDBRANCH  16  17
ENDBRANCH  14  16
ENDBRANCH   5  14
BRANCH   1  28
ATOM     28  C   UNL     1       0.718  -0.497  -1.257  0.00  0.00    +0.128 C 
BRANCH  28  30
ATOM     29  C   UNL     1      -0.019   1.526   0.010  0.00  0.00    +0.005 C 
ATOM     30  C   UNL     1       0.002  -0.004   0.002  0.00  0.00    +0.018 C 
ENDBRANCH  28  30
ENDBRANCH   1  28
TORSDOF 6
