REMARK  Name = ZINC08749964
REMARK  11 active torsions:
REMARK  status: ('A' for Active; 'I' for Inactive)
REMARK    1  A    between atoms: C_1  and  C_2
REMARK    2  A    between atoms: C_2  and  C_3
REMARK    3  A    between atoms: C_6  and  N_9
REMARK    4  A    between atoms: C_12  and  C_15
REMARK    5  A    between atoms: C_15  and  N_66
REMARK    6  A    between atoms: C_16  and  C_18
REMARK    7  A    between atoms: C_16  and  C_29
REMARK    8  A    between atoms: C_16  and  N_66
REMARK    9  A    between atoms: C_29  and  C_30
REMARK   10  A    between atoms: C_29  and  C_31
REMARK   11  A    between atoms: C_32  and  C_34
REMARK                            x       y       z     vdW  Elec       q    Type
REMARK                         _______ _______ _______ _____ _____    ______ ____
ROOT
ATOM      1  C   UNL     1      -2.273   5.456   8.043  0.00  0.00    -0.025 C 
ENDROOT
BRANCH   1   5
ATOM      2  N   UNL     1      -2.147   1.391   5.305  0.00  0.00    -0.219 N 
ATOM      3  C   UNL     1      -1.755   2.667   5.696  0.00  0.00    +0.172 A 
ATOM      4  N   UNL     1      -2.221   3.412   6.679  0.00  0.00    -0.231 NA
ATOM      5  C   UNL     1      -1.733   4.613   6.917  0.00  0.00    +0.034 A 
ATOM      6  C   UNL     1      -0.732   5.072   6.125  0.00  0.00    +0.070 A 
ATOM      7  S   UNL     1      -0.520   3.684   5.020  0.00  0.00    -0.060 S 
ATOM      8  C   UNL     1      -3.142   0.761   5.960  0.00  0.00    +0.223 C 
ATOM      9  O   UNL     1      -3.742   1.333   6.845  0.00  0.00    -0.275 OA
ATOM     10  C   UNL     1      -3.510  -0.653   5.592  0.00  0.00    +0.110 C 
BRANCH   2  14
ATOM     11  C   UNL     1      -0.243  -0.485   2.107  0.00  0.00    -0.048 A 
ATOM     12  C   UNL     1      -1.506   0.051   1.939  0.00  0.00    +0.005 A 
ATOM     13  C   UNL     1      -2.143   0.668   2.999  0.00  0.00    +0.024 A 
ATOM     14  C   UNL     1      -1.507   0.760   4.230  0.00  0.00    +0.043 A 
ATOM     15  C   UNL     1      -0.236   0.226   4.394  0.00  0.00    +0.024 A 
ATOM     16  C   UNL     1       0.393  -0.395   3.332  0.00  0.00    +0.005 A 
BRANCH  11  18
ATOM     17  C   UNL     1       0.098  -2.653   0.953  0.00  0.00    +0.009 C 
ATOM     18  C   UNL     1       0.446  -1.163   0.951  0.00  0.00    +0.032 C 
ENDBRANCH  11  18
ENDBRANCH   2  14
ENDBRANCH   1   5
BRANCH   1  19
ATOM     19  N   UNL     1      -3.462   6.191   7.569  0.00  0.00    +0.387 N 
ATOM     20  H   UNL     1      -4.200   5.520   7.328  0.00  0.00    -0.084 HD
ATOM     21  H   UNL     1      -3.212   6.739   6.738  0.00  0.00    -0.084 HD
BRANCH  19  22
ATOM     22  C   UNL     1      -3.955   7.099   8.622  0.00  0.00    -0.038 C 
BRANCH  22  23
ATOM     23  C   UNL     1      -4.732   8.221   7.982  0.00  0.00    -0.057 A 
ATOM     24  C   UNL     1      -5.566   7.958   6.912  0.00  0.00    +0.006 A 
ATOM     25  C   UNL     1      -6.288   8.982   6.324  0.00  0.00    +0.049 A 
ATOM     26  C   UNL     1      -6.162  10.274   6.804  0.00  0.00    +0.162 A 
ATOM     27  C   UNL     1      -5.320  10.539   7.875  0.00  0.00    +0.162 A 
ATOM     28  C   UNL     1      -4.604   9.511   8.465  0.00  0.00    +0.051 A 
ATOM     29  O   UNL     1      -5.204  11.816   8.342  0.00  0.00    -0.488 OA
ATOM     30  C   UNL     1      -4.557  12.744   7.469  0.00  0.00    +0.232 C 
ATOM     31  C   UNL     1      -5.544  13.319   6.466  0.00  0.00    +0.082 C 
ATOM     32  C   UNL     1      -6.089  12.262   5.518  0.00  0.00    +0.232 C 
ATOM     33  O   UNL     1      -6.863  11.294   6.230  0.00  0.00    -0.488 OA
ENDBRANCH  22  23
BRANCH  22  34
ATOM     34  C   UNL     1      -4.867   6.327   9.577  0.00  0.00    -0.027 C 
ATOM     35  C   UNL     1      -5.428   7.283  10.631  0.00  0.00    +0.006 C 
ATOM     36  C   UNL     1      -6.020   5.702   8.789  0.00  0.00    +0.006 C 
ENDBRANCH  22  34
ENDBRANCH  19  22
ENDBRANCH   1  19
TORSDOF 7
