REMARK  Name = ZINC15911309
REMARK  8 active torsions:
REMARK  status: ('A' for Active; 'I' for Inactive)
REMARK    1  A    between atoms: C_1  and  C_2
REMARK    2  A    between atoms: C_2  and  N_3
REMARK    3  A    between atoms: N_5  and  N_16
REMARK    4  A    between atoms: C_6  and  C_9
REMARK    5  A    between atoms: C_12  and  C_15
REMARK    6  A    between atoms: C_17  and  C_18
REMARK    7  A    between atoms: C_21  and  O_25
REMARK    8  A    between atoms: C_23  and  O_24
REMARK                            x       y       z     vdW  Elec       q    Type
REMARK                         _______ _______ _______ _____ _____    ______ ____
ROOT
ATOM      1  N   UNL     1       7.243   4.482   1.236  0.00  0.00    -0.260 NA
ATOM      2  C   UNL     1       7.624   4.542  -0.015  0.00  0.00    +0.190 A 
ATOM      3  N   UNL     1       6.888   4.323  -1.162  0.00  0.00    -0.208 N 
ATOM      4  C   UNL     1       7.514   4.452  -2.374  0.00  0.00    +0.082 A 
ATOM      5  C   UNL     1       8.821   4.781  -2.419  0.00  0.00    +0.077 A 
ATOM      6  S   UNL     1       9.233   4.926  -0.688  0.00  0.00    -0.056 S 
ENDROOT
BRANCH   4   7
ATOM      7  C   UNL     1       6.759   4.231  -3.627  0.00  0.00    +0.001 A 
ATOM      8  C   UNL     1       5.733   3.287  -3.670  0.00  0.00    +0.010 A 
ATOM      9  C   UNL     1       5.029   3.090  -4.840  0.00  0.00    +0.004 A 
ATOM     10  C   UNL     1       5.347   3.818  -5.973  0.00  0.00    -0.050 A 
ATOM     11  C   UNL     1       6.367   4.753  -5.938  0.00  0.00    +0.004 A 
ATOM     12  C   UNL     1       7.074   4.963  -4.773  0.00  0.00    +0.010 A 
ATOM     13  C   UNL     1       4.578   3.593  -7.249  0.00  0.00    +0.044 C 
ENDBRANCH   4   7
BRANCH   1  15
ATOM     14  C   UNL     1       7.718   5.947   3.137  0.00  0.00    +0.029 C 
ATOM     15  C   UNL     1       8.204   4.756   2.308  0.00  0.00    +0.141 C 
ENDBRANCH   1  15
BRANCH   3  16
ATOM     16  N   UNL     1       5.531   3.982  -1.089  0.00  0.00    -0.172 NA
ATOM     17  C   UNL     1       5.062   3.409  -0.022  0.00  0.00    +0.145 C 
BRANCH  17  18
ATOM     18  C   UNL     1       3.616   3.163   0.107  0.00  0.00    +0.036 A 
ATOM     19  C   UNL     1       3.118   2.470   1.214  0.00  0.00    +0.016 A 
ATOM     20  C   UNL     1       1.764   2.246   1.332  0.00  0.00    +0.046 A 
ATOM     21  C   UNL     1       0.891   2.698   0.349  0.00  0.00    +0.120 A 
ATOM     22  C   UNL     1       1.376   3.387  -0.753  0.00  0.00    +0.091 A 
ATOM     23  C   UNL     1       2.733   3.622  -0.881  0.00  0.00    +0.129 A 
BRANCH  23  24
ATOM     24  O   UNL     1       3.209   4.296  -1.960  0.00  0.00    -0.506 OA
ATOM     25  H   UNL     1       3.182   5.258  -1.867  0.00  0.00    +0.292 HD
ENDBRANCH  23  24
BRANCH  21  26
ATOM     26  O   UNL     1      -0.442   2.468   0.471  0.00  0.00    -0.507 OA
ATOM     27  H   UNL     1      -0.737   1.639   0.069  0.00  0.00    +0.292 HD
ENDBRANCH  21  26
ENDBRANCH  17  18
ENDBRANCH   3  16
TORSDOF 6
