REMARK  Name = ZINC56134350
REMARK  3 active torsions:
REMARK  status: ('A' for Active; 'I' for Inactive)
REMARK    1  A    between atoms: C_3  and  N_17
REMARK    2  A    between atoms: C_6  and  N_7
REMARK    3  A    between atoms: C_8  and  C_10
REMARK                            x       y       z     vdW  Elec       q    Type
REMARK                         _______ _______ _______ _____ _____    ______ ____
ROOT
ATOM      1  C   UNL     1       0.767  -0.307  -1.465  0.00  0.00    +0.025 A 
ATOM      2  C   UNL     1       1.902   0.426  -1.750  0.00  0.00    +0.025 A 
ATOM      3  C   UNL     1       2.295   1.454  -0.904  0.00  0.00    +0.040 A 
ATOM      4  C   UNL     1       1.547   1.746   0.230  0.00  0.00    +0.025 A 
ATOM      5  C   UNL     1       0.412   1.013   0.515  0.00  0.00    +0.025 A 
ATOM      6  C   UNL     1       0.019  -0.015  -0.332  0.00  0.00    +0.034 A 
ENDROOT
BRANCH   3   7
ATOM      7  N   UNL     1       3.447   2.197  -1.193  0.00  0.00    -0.234 N 
ATOM      8  C   UNL     1       3.990   3.310  -0.388  0.00  0.00    +0.158 C 
ATOM      9  C   UNL     1       5.418   3.464  -0.965  0.00  0.00    +0.253 C 
ATOM     10  O   UNL     1       5.270   2.908  -2.286  0.00  0.00    -0.448 OA
ATOM     11  C   UNL     1       4.260   2.021  -2.251  0.00  0.00    +0.407 C 
ATOM     12  O   UNL     1       4.098   1.155  -3.087  0.00  0.00    -0.226 OA
ENDBRANCH   3   7
BRANCH   6  13
ATOM     13  N   UNL     1      -1.132  -0.758  -0.042  0.00  0.00    -0.282 N 
ATOM     14  C   UNL     1      -1.194  -2.062  -0.378  0.00  0.00    +0.241 C 
ATOM     15  O   UNL     1      -0.212  -2.623  -0.825  0.00  0.00    -0.270 OA
ATOM     16  H   UNL     1      -1.885  -0.335   0.399  0.00  0.00    +0.155 HD
BRANCH  14  17
ATOM     17  C   UNL     1      -2.450  -2.808  -0.202  0.00  0.00    +0.067 C 
ATOM     18  C   UNL     1      -2.441  -4.138  -0.210  0.00  0.00    -0.065 C 
ATOM     19  C   UNL     1      -1.137  -4.904  -0.220  0.00  0.00    +0.031 C 
ATOM     20  C   UNL     1      -1.171  -5.939   0.909  0.00  0.00    +0.004 C 
ATOM     21  C   UNL     1      -2.417  -6.813   0.760  0.00  0.00    +0.001 C 
ATOM     22  C   UNL     1      -3.674  -5.957   0.922  0.00  0.00    +0.004 C 
ATOM     23  C   UNL     1      -3.734  -4.922  -0.201  0.00  0.00    +0.031 C 
ENDBRANCH  14  17
ENDBRANCH   6  13
TORSDOF 3
