REMARK  Name = ZINC39675330
REMARK  10 active torsions:
REMARK  status: ('A' for Active; 'I' for Inactive)
REMARK    1  A    between atoms: C_1  and  C_2
REMARK    2  A    between atoms: C_6  and  C_9
REMARK    3  A    between atoms: C_13  and  C_22
REMARK    4  A    between atoms: N_24  and  C_25
REMARK    5  A    between atoms: C_25  and  C_27
REMARK    6  A    between atoms: C_25  and  C_28
REMARK    7  A    between atoms: C_28  and  C_29
REMARK    8  A    between atoms: C_29  and  C_30
REMARK    9  A    between atoms: C_33  and  O_36
REMARK   10  A    between atoms: O_36  and  C_37
REMARK                            x       y       z     vdW  Elec       q    Type
REMARK                         _______ _______ _______ _____ _____    ______ ____
ROOT
ATOM      1  C   UNL     1       0.083  -2.892   2.584  0.00  0.00    +0.251 C 
ATOM      2  O   UNL     1       1.129  -3.238   3.098  0.00  0.00    -0.270 OA
ATOM      3  N   UNL     1      -1.092  -3.262   3.132  0.00  0.00    -0.296 N 
ATOM      4  C   UNL     1      -2.458  -2.945   2.651  0.00  0.00    +0.121 C 
ATOM      5  C   UNL     1      -3.264  -4.243   2.883  0.00  0.00    +0.100 C 
ATOM      6  C   UNL     1      -2.506  -4.981   4.000  0.00  0.00    -0.004 C 
ATOM      7  C   UNL     1      -1.310  -4.083   4.347  0.00  0.00    +0.115 C 
ATOM      8  C   UNL     1      -3.405  -5.158   5.220  0.00  0.00    -0.010 C 
ATOM      9  C   UNL     1      -2.650  -5.945   6.295  0.00  0.00    -0.082 C 
ATOM     10  N   UNL     1      -2.254  -7.253   5.759  0.00  0.00    +0.379 N 
ATOM     11  C   UNL     1      -1.316  -7.075   4.645  0.00  0.00    -0.082 C 
ATOM     12  C   UNL     1      -2.015  -6.336   3.500  0.00  0.00    -0.010 C 
ATOM     13  H   UNL     1      -1.811  -7.793   6.487  0.00  0.00    -0.086 HD
ATOM     14  H   UNL     1      -3.074  -7.743   5.433  0.00  0.00    -0.086 HD
ENDROOT
BRANCH   1  20
ATOM     15  C   UNL     1       0.128   1.601   0.404  0.00  0.00    +0.047 C 
ATOM     16  C   UNL     1       0.121   0.097   0.306  0.00  0.00    -0.014 A 
ATOM     17  C   UNL     1       0.129  -0.513  -0.935  0.00  0.00    +0.007 A 
ATOM     18  C   UNL     1       0.122  -1.893  -1.036  0.00  0.00    +0.021 A 
ATOM     19  C   UNL     1       0.107  -2.673   0.103  0.00  0.00    +0.056 A 
ATOM     20  C   UNL     1       0.099  -2.065   1.361  0.00  0.00    +0.091 A 
ATOM     21  C   UNL     1       0.112  -0.669   1.456  0.00  0.00    +0.140 A 
ATOM     22  F   UNL     1       0.109  -0.072   2.668  0.00  0.00    -0.204 F 
ATOM     23 CL   UNL     1       0.098  -4.404  -0.028  0.00  0.00    -0.083 Cl
ENDBRANCH   1  20
BRANCH   5  24
ATOM     24  C   UNL     1      -4.667  -3.917   3.324  0.00  0.00    +0.218 C 
ATOM     25  O   UNL     1      -4.881  -2.918   3.977  0.00  0.00    -0.275 OA
ATOM     26  N   UNL     1      -5.685  -4.737   2.993  0.00  0.00    -0.312 N 
ATOM     27  H   UNL     1      -5.513  -5.537   2.472  0.00  0.00    +0.149 HD
BRANCH  26  28
ATOM     28  C   UNL     1      -7.049  -4.420   3.422  0.00  0.00    +0.070 C 
ATOM     29  C   UNL     1      -7.690  -3.460   2.417  0.00  0.00    +0.028 C 
BRANCH  28  30
ATOM     30  C   UNL     1      -7.873  -5.708   3.494  0.00  0.00    +0.026 C 
BRANCH  30  31
ATOM     31  C   UNL     1      -7.306  -6.616   4.586  0.00  0.00    +0.037 C 
BRANCH  31  32
ATOM     32  C   UNL     1      -8.117  -7.884   4.657  0.00  0.00    -0.047 A 
ATOM     33  C   UNL     1      -9.221  -7.952   5.487  0.00  0.00    +0.007 A 
ATOM     34  C   UNL     1      -9.966  -9.113   5.554  0.00  0.00    +0.046 A 
ATOM     35  C   UNL     1      -9.607 -10.212   4.787  0.00  0.00    +0.120 A 
ATOM     36  C   UNL     1      -8.499 -10.141   3.954  0.00  0.00    +0.046 A 
ATOM     37  C   UNL     1      -7.761  -8.975   3.887  0.00  0.00    +0.007 A 
BRANCH  35  38
ATOM     38  O   UNL     1     -10.338 -11.355   4.851  0.00  0.00    -0.495 OA
ATOM     39  C   UNL     1      -9.910 -12.446   4.033  0.00  0.00    +0.277 C 
ENDBRANCH  35  38
ENDBRANCH  31  32
ENDBRANCH  30  31
ENDBRANCH  28  30
ENDBRANCH  26  28
ENDBRANCH   5  24
TORSDOF 7
