REMARK  Name = ZINC39665619
REMARK  9 active torsions:
REMARK  status: ('A' for Active; 'I' for Inactive)
REMARK    1  A    between atoms: C_1  and  C_2
REMARK    2  A    between atoms: C_2  and  C_4
REMARK    3  A    between atoms: C_2  and  O_29
REMARK    4  A    between atoms: C_4  and  N_5
REMARK    5  A    between atoms: C_6  and  C_8
REMARK    6  A    between atoms: C_19  and  C_21
REMARK    7  A    between atoms: O_29  and  C_30
REMARK    8  A    between atoms: C_33  and  O_36
REMARK    9  A    between atoms: O_36  and  C_37
REMARK                            x       y       z     vdW  Elec       q    Type
REMARK                         _______ _______ _______ _____ _____    ______ ____
ROOT
ATOM      1  C   UNL     1       0.990  -4.173  -2.551  0.00  0.00    +0.100 C 
ATOM      2  C   UNL     1      -0.454  -4.623  -2.868  0.00  0.00    +0.121 C 
ATOM      3  N   UNL     1      -0.476  -4.800  -4.340  0.00  0.00    -0.296 N 
ATOM      4  C   UNL     1       0.836  -5.414  -4.657  0.00  0.00    +0.115 C 
ATOM      5  C   UNL     1       1.834  -4.697  -3.725  0.00  0.00    -0.004 C 
ATOM      6  C   UNL     1       2.886  -5.681  -3.222  0.00  0.00    -0.010 C 
ATOM      7  C   UNL     1       3.750  -6.144  -4.399  0.00  0.00    -0.082 C 
ATOM      8  N   UNL     1       4.396  -4.981  -5.021  0.00  0.00    +0.379 N 
ATOM      9  C   UNL     1       3.378  -4.086  -5.585  0.00  0.00    -0.082 C 
ATOM     10  C   UNL     1       2.498  -3.536  -4.458  0.00  0.00    -0.010 C 
ATOM     11  C   UNL     1      -1.466  -4.477  -5.196  0.00  0.00    +0.247 C 
ATOM     12  O   UNL     1      -2.444  -3.878  -4.795  0.00  0.00    -0.270 OA
ATOM     13  H   UNL     1       4.932  -4.484  -4.326  0.00  0.00    -0.086 HD
ATOM     14  H   UNL     1       5.011  -5.294  -5.757  0.00  0.00    -0.086 HD
ENDROOT
BRANCH  11  15
ATOM     15  C   UNL     1      -1.361  -4.852  -6.622  0.00  0.00    +0.042 A 
ATOM     16  C   UNL     1      -0.566  -5.933  -7.005  0.00  0.00    +0.051 A 
ATOM     17  C   UNL     1      -0.472  -6.279  -8.340  0.00  0.00    +0.127 A 
ATOM     18  C   UNL     1      -1.164  -5.554  -9.297  0.00  0.00    +0.076 A 
ATOM     19  C   UNL     1      -1.954  -4.480  -8.922  0.00  0.00    +0.127 A 
ATOM     20  C   UNL     1      -2.060  -4.129  -7.589  0.00  0.00    +0.051 A 
ATOM     21  F   UNL     1      -2.626  -3.777  -9.860  0.00  0.00    -0.205 F 
ATOM     22  F   UNL     1       0.297  -7.325  -8.713  0.00  0.00    -0.205 F 
ENDBRANCH  11  15
BRANCH   1  24
ATOM     23  N   UNL     1       2.087  -2.078  -1.825  0.00  0.00    -0.312 N 
ATOM     24  C   UNL     1       1.068  -2.670  -2.479  0.00  0.00    +0.218 C 
ATOM     25  O   UNL     1       0.213  -1.993  -3.010  0.00  0.00    -0.275 OA
ATOM     26  H   UNL     1       2.771  -2.620  -1.401  0.00  0.00    +0.149 HD
BRANCH  23  27
ATOM     27  C   UNL     1       2.163  -0.617  -1.756  0.00  0.00    +0.148 C 
BRANCH  27  29
ATOM     28  C   UNL     1       3.418   1.312  -0.783  0.00  0.00    +0.053 C 
ATOM     29  C   UNL     1       3.405  -0.208  -0.963  0.00  0.00    +0.187 C 
BRANCH  29  30
ATOM     30  O   UNL     1       4.578  -0.613  -1.672  0.00  0.00    -0.488 OA
BRANCH  30  31
ATOM     31  C   UNL     1       5.706  -0.811  -0.939  0.00  0.00    +0.121 A 
ATOM     32  C   UNL     1       6.904  -1.102  -1.574  0.00  0.00    +0.049 A 
ATOM     33  C   UNL     1       8.050  -1.302  -0.829  0.00  0.00    +0.049 A 
ATOM     34  C   UNL     1       8.002  -1.212   0.554  0.00  0.00    +0.120 A 
ATOM     35  C   UNL     1       6.804  -0.919   1.189  0.00  0.00    +0.049 A 
ATOM     36  C   UNL     1       5.660  -0.715   0.444  0.00  0.00    +0.049 A 
BRANCH  34  37
ATOM     37  O   UNL     1       9.130  -1.410   1.288  0.00  0.00    -0.495 OA
ATOM     38  C   UNL     1       9.008  -1.301   2.707  0.00  0.00    +0.277 C 
ENDBRANCH  34  37
ENDBRANCH  30  31
ENDBRANCH  29  30
ENDBRANCH  27  29
ENDBRANCH  23  27
ENDBRANCH   1  24
TORSDOF 7
