REMARK  Name = ZINC35831007
REMARK  8 active torsions:
REMARK  status: ('A' for Active; 'I' for Inactive)
REMARK    1  A    between atoms: C_1  and  C_2
REMARK    2  A    between atoms: C_5  and  N_8
REMARK    3  A    between atoms: N_8  and  C_9
REMARK    4  A    between atoms: N_8  and  S_25
REMARK    5  A    between atoms: N_12  and  C_15
REMARK    6  A    between atoms: C_15  and  C_16
REMARK    7  A    between atoms: C_21  and  N_22
REMARK    8  A    between atoms: S_25  and  C_28
REMARK                            x       y       z     vdW  Elec       q    Type
REMARK                         _______ _______ _______ _____ _____    ______ ____
ROOT
ATOM      1  N   UNL     1       0.054  -4.154  -0.027  0.00  0.00    -0.200 N 
ENDROOT
BRANCH   1   6
ATOM      2  C   UNL     1      -0.942   1.411   0.415  0.00  0.00    +0.044 C 
ATOM      3  C   UNL     1      -0.677  -0.068   0.297  0.00  0.00    -0.050 A 
ATOM      4  C   UNL     1       0.613  -0.524   0.094  0.00  0.00    +0.005 A 
ATOM      5  C   UNL     1       0.859  -1.879  -0.014  0.00  0.00    +0.025 A 
ATOM      6  C   UNL     1      -0.191  -2.783   0.082  0.00  0.00    +0.052 A 
ATOM      7  C   UNL     1      -1.485  -2.322   0.286  0.00  0.00    +0.025 A 
ATOM      8  C   UNL     1      -1.724  -0.966   0.399  0.00  0.00    +0.005 A 
ENDBRANCH   1   6
BRANCH   1   9
ATOM      9  C   UNL     1       0.732  -4.866   1.059  0.00  0.00    +0.095 C 
ATOM     10  C   UNL     1      -0.010  -4.618   2.375  0.00  0.00    +0.006 C 
ATOM     11  C   UNL     1       0.748  -5.298   3.517  0.00  0.00    -0.077 C 
ATOM     12  N   UNL     1       2.105  -4.745   3.607  0.00  0.00    +0.383 N 
ATOM     13  C   UNL     1       2.846  -5.042   2.375  0.00  0.00    -0.077 C 
ATOM     14  C   UNL     1       2.169  -4.352   1.189  0.00  0.00    +0.006 C 
ATOM     15  H   UNL     1       2.052  -3.745   3.733  0.00  0.00    -0.081 HD
BRANCH  12  16
ATOM     16  C   UNL     1       2.802  -5.344   4.753  0.00  0.00    -0.041 C 
BRANCH  16  17
ATOM     17  C   UNL     1       4.149  -4.690   4.920  0.00  0.00    -0.034 A 
ATOM     18  C   UNL     1       5.286  -5.315   4.441  0.00  0.00    +0.004 A 
ATOM     19  C   UNL     1       6.521  -4.714   4.594  0.00  0.00    +0.000 A 
ATOM     20  C   UNL     1       6.620  -3.488   5.226  0.00  0.00    +0.002 A 
ATOM     21  C   UNL     1       5.484  -2.863   5.704  0.00  0.00    +0.033 A 
ATOM     22  C   UNL     1       4.248  -3.462   5.546  0.00  0.00    +0.128 A 
BRANCH  22  23
ATOM     23  N   UNL     1       3.030  -2.790   6.053  0.00  0.00    +0.057 N 
ATOM     24  O   UNL     1       3.116  -1.716   6.602  0.00  0.00    -0.126 OA
ATOM     25  O   UNL     1       1.949  -3.315   5.919  0.00  0.00    -0.126 OA
ENDBRANCH  22  23
ENDBRANCH  16  17
ENDBRANCH  12  16
ENDBRANCH   1   9
BRANCH   1  26
ATOM     26  S   UNL     1      -0.422  -4.975  -1.385  0.00  0.00    +0.075 S 
ATOM     27  O   UNL     1      -0.708  -6.305  -0.975  0.00  0.00    -0.150 OA
ATOM     28  O   UNL     1      -1.382  -4.156  -2.039  0.00  0.00    -0.150 OA
BRANCH  26  29
ATOM     29  C   UNL     1       0.975  -5.066  -2.455  0.00  0.00    +0.109 A 
ATOM     30  C   UNL     1       1.152  -4.115  -3.443  0.00  0.00    +0.030 A 
ATOM     31  C   UNL     1       2.247  -4.187  -4.282  0.00  0.00    +0.022 A 
ATOM     32  C   UNL     1       3.166  -5.210  -4.134  0.00  0.00    +0.041 A 
ATOM     33  C   UNL     1       2.989  -6.161  -3.146  0.00  0.00    +0.022 A 
ATOM     34  C   UNL     1       1.896  -6.086  -2.303  0.00  0.00    +0.030 A 
ATOM     35 CL   UNL     1       4.542  -5.301  -5.189  0.00  0.00    -0.084 Cl
ENDBRANCH  26  29
ENDBRANCH   1  26
TORSDOF 7
