REMARK  Name = ZINC49751506
REMARK  1 active torsions:
REMARK  status: ('A' for Active; 'I' for Inactive)
REMARK    1  A    between atoms: C_1  and  C_2
REMARK                            x       y       z     vdW  Elec       q    Type
REMARK                         _______ _______ _______ _____ _____    ______ ____
ROOT
ATOM      1  C   UNL     1      -0.018   1.503   0.010  0.00  0.00    +0.089 C 
ATOM      2  C   UNL     1       0.002  -0.004   0.002  0.00  0.00    +0.136 A 
ATOM      3  C   UNL     1      -1.076  -0.807   0.003  0.00  0.00    +0.091 A 
ATOM      4  C   UNL     1      -0.625  -2.147  -0.007  0.00  0.00    +0.167 A 
ATOM      5  N   UNL     1       0.683  -2.130  -0.013  0.00  0.00    -0.063 NA
ATOM      6  O   UNL     1       1.100  -0.776  -0.013  0.00  0.00    -0.358 OA
ATOM      7  N   UNL     1      -1.431  -3.283  -0.009  0.00  0.00    -0.281 N 
ATOM      8  C   UNL     1      -2.810  -3.154  -0.001  0.00  0.00    +0.136 A 
ATOM      9  C   UNL     1      -3.642  -4.307   0.004  0.00  0.00    +0.051 A 
ATOM     10  C   UNL     1      -3.243  -5.724  -0.000  0.00  0.00    -0.025 A 
ATOM     11  C   UNL     1      -4.232  -6.633   0.005  0.00  0.00    -0.004 A 
ATOM     12  S   UNL     1      -5.735  -5.682   0.018  0.00  0.00    -0.073 S 
ATOM     13  C   UNL     1      -5.027  -4.058   0.013  0.00  0.00    +0.114 A 
ATOM     14  N   UNL     1      -5.505  -2.828   0.017  0.00  0.00    -0.228 NA
ATOM     15  C   UNL     1      -4.684  -1.796   0.012  0.00  0.00    +0.224 A 
ATOM     16  N   UNL     1      -3.373  -1.956   0.009  0.00  0.00    -0.220 NA
ATOM     17  C   UNL     1      -3.708  -8.043  -0.004  0.00  0.00    +0.043 C 
ATOM     18  C   UNL     1      -2.236  -7.907  -0.452  0.00  0.00    +0.010 C 
ATOM     19  C   UNL     1      -1.905  -6.469  -0.006  0.00  0.00    +0.037 C 
ATOM     20  H   UNL     1      -1.026  -4.165  -0.015  0.00  0.00    +0.155 HD
ENDROOT
TORSDOF 0
