REMARK  Name = ZINC45410340
REMARK  7 active torsions:
REMARK  status: ('A' for Active; 'I' for Inactive)
REMARK    1  A    between atoms: C_3  and  S_8
REMARK    2  A    between atoms: S_8  and  C_9
REMARK    3  A    between atoms: C_9  and  C_10
REMARK    4  A    between atoms: C_10  and  C_11
REMARK    5  A    between atoms: N_13  and  N_14
REMARK    6  A    between atoms: N_17  and  C_18
REMARK    7  A    between atoms: N_21  and  C_24
REMARK                            x       y       z     vdW  Elec       q    Type
REMARK                         _______ _______ _______ _____ _____    ______ ____
ROOT
ATOM      1  N   UNL     1       9.906  -0.049  -0.093  0.00  0.00    -0.218 N 
ATOM      2  C   UNL     1      11.209   0.293  -0.104  0.00  0.00    +0.316 C 
ATOM      3  O   UNL     1      12.065  -0.571  -0.117  0.00  0.00    -0.251 OA
ATOM      4  N   UNL     1      11.565   1.593  -0.101  0.00  0.00    -0.296 N 
ATOM      5  H   UNL     1       9.650  -0.985  -0.096  0.00  0.00    +0.174 HD
ATOM      6  H   UNL     1      10.882   2.283  -0.091  0.00  0.00    +0.151 HD
ENDROOT
BRANCH   4   7
ATOM      7  C   UNL     1      12.981   1.966  -0.113  0.00  0.00    +0.071 C 
ATOM      8  C   UNL     1      13.520   1.977   1.320  0.00  0.00    +0.004 C 
ATOM      9  C   UNL     1      14.977   2.443   1.308  0.00  0.00    -0.077 C 
ATOM     10  N   UNL     1      15.057   3.796   0.743  0.00  0.00    +0.382 N 
ATOM     11  C   UNL     1      14.610   3.779  -0.654  0.00  0.00    -0.077 C 
ATOM     12  C   UNL     1      13.138   3.364  -0.718  0.00  0.00    +0.004 C 
ATOM     13  H   UNL     1      14.468   4.417   1.277  0.00  0.00    -0.081 HD
BRANCH  10  14
ATOM     14  C   UNL     1      16.447   4.269   0.806  0.00  0.00    -0.069 C 
ATOM     15  C   UNL     1      16.760   5.415   1.770  0.00  0.00    -0.017 C 
ATOM     16  C   UNL     1      16.741   5.669   0.262  0.00  0.00    -0.017 C 
ENDBRANCH  10  14
ENDBRANCH   4   7
BRANCH   1  19
ATOM     17  C   UNL     1       7.617   0.604  -0.068  0.00  0.00    +0.230 C 
ATOM     18  O   UNL     1       7.297  -0.566  -0.071  0.00  0.00    -0.274 OA
ATOM     19  N   UNL     1       8.920   0.946  -0.079  0.00  0.00    -0.233 N 
ATOM     20  H   UNL     1       9.176   1.882  -0.077  0.00  0.00    +0.173 HD
BRANCH  17  21
ATOM     21  C   UNL     1       6.556   1.674  -0.052  0.00  0.00    +0.108 C 
BRANCH  21  22
ATOM     22  C   UNL     1       5.173   1.022  -0.042  0.00  0.00    +0.083 C 
BRANCH  22  23
ATOM     23  S   UNL     1       3.896   2.310  -0.023  0.00  0.00    -0.125 S 
BRANCH  23  26
ATOM     24  C   UNL     1      -0.017   1.381   0.010  0.00  0.00    +0.039 A 
ATOM     25  C   UNL     1       1.169   2.088   0.002  0.00  0.00    +0.017 A 
ATOM     26  C   UNL     1       2.382   1.410  -0.013  0.00  0.00    +0.008 A 
ATOM     27  C   UNL     1       2.398   0.021  -0.021  0.00  0.00    +0.017 A 
ATOM     28  C   UNL     1       1.209  -0.682  -0.013  0.00  0.00    +0.039 A 
ATOM     29  C   UNL     1       0.002  -0.004   0.002  0.00  0.00    +0.123 A 
ATOM     30  F   UNL     1      -1.159  -0.694   0.009  0.00  0.00    -0.205 F 
ENDBRANCH  23  26
ENDBRANCH  22  23
ENDBRANCH  21  22
ENDBRANCH  17  21
ENDBRANCH   1  19
TORSDOF 7
