REMARK  Name = ZINC16563329
REMARK  15 active torsions:
REMARK  status: ('A' for Active; 'I' for Inactive)
REMARK    1  A    between atoms: C_1  and  C_2
REMARK    2  A    between atoms: C_2  and  N_3
REMARK    3  A    between atoms: N_3  and  C_4
REMARK    4  A    between atoms: N_3  and  C_25
REMARK    5  A    between atoms: C_4  and  C_5
REMARK    6  A    between atoms: N_7  and  C_8
REMARK    7  A    between atoms: C_9  and  C_20
REMARK    8  A    between atoms: C_10  and  C_14
REMARK    9  A    between atoms: C_20  and  O_22
REMARK   10  A    between atoms: O_22  and  C_23
REMARK   11  A    between atoms: C_23  and  C_24
REMARK   12  A    between atoms: C_25  and  C_26
REMARK   13  A    between atoms: N_28  and  C_29
REMARK   14  A    between atoms: C_29  and  C_30
REMARK   15  A    between atoms: C_29  and  C_31
REMARK                            x       y       z     vdW  Elec       q    Type
REMARK                         _______ _______ _______ _____ _____    ______ ____
ROOT
ATOM      1  C   UNL     1      -1.944   1.486  -1.141  0.00  0.00    +0.201 C 
ATOM      2  O   UNL     1      -1.428   2.100  -0.231  0.00  0.00    -0.278 OA
ATOM      3  N   UNL     1      -2.457   2.149  -2.196  0.00  0.00    -0.281 N 
ATOM      4  H   UNL     1      -2.870   1.658  -2.923  0.00  0.00    +0.155 HD
ENDROOT
BRANCH   3   5
ATOM      5  C   UNL     1      -2.395   3.533  -2.242  0.00  0.00    +0.088 A 
ATOM      6  C   UNL     1      -2.872   4.371  -3.236  0.00  0.00    +0.097 A 
ATOM      7  C   UNL     1      -2.676   5.796  -3.034  0.00  0.00    +0.023 A 
ATOM      8  C   UNL     1      -2.041   6.139  -1.881  0.00  0.00    +0.088 A 
ATOM      9  S   UNL     1      -1.732   4.570  -1.102  0.00  0.00    -0.060 S 
ATOM     10 CL   UNL     1      -1.635   7.726  -1.306  0.00  0.00    -0.075 Cl
BRANCH   7  11
ATOM     11  C   UNL     1      -3.135   6.807  -4.016  0.00  0.00    -0.015 A 
ATOM     12  C   UNL     1      -2.574   6.848  -5.292  0.00  0.00    +0.008 A 
ATOM     13  C   UNL     1      -3.005   7.792  -6.202  0.00  0.00    +0.001 A 
ATOM     14  C   UNL     1      -3.992   8.695  -5.851  0.00  0.00    +0.000 A 
ATOM     15  C   UNL     1      -4.552   8.659  -4.586  0.00  0.00    +0.001 A 
ATOM     16  C   UNL     1      -4.134   7.716  -3.670  0.00  0.00    +0.008 A 
ENDBRANCH   7  11
BRANCH   6  17
ATOM     17  C   UNL     1      -3.539   3.849  -4.428  0.00  0.00    +0.342 C 
ATOM     18  O   UNL     1      -4.745   3.689  -4.430  0.00  0.00    -0.245 OA
BRANCH  17  19
ATOM     19  O   UNL     1      -2.817   3.543  -5.526  0.00  0.00    -0.461 OA
BRANCH  19  20
ATOM     20  C   UNL     1      -3.533   3.037  -6.654  0.00  0.00    +0.229 C 
ATOM     21  C   UNL     1      -2.553   2.750  -7.794  0.00  0.00    +0.048 C 
ENDBRANCH  19  20
ENDBRANCH  17  19
ENDBRANCH   6  17
ENDBRANCH   3   5
BRANCH   1  22
ATOM     22  C   UNL     1      -2.011  -0.019  -1.091  0.00  0.00    +0.020 C 
BRANCH  22  23
ATOM     23  N   UNL     1      -1.528  -0.488   0.215  0.00  0.00    +0.391 N 
ATOM     24  H   UNL     1      -0.617  -0.095   0.397  0.00  0.00    -0.080 HD
BRANCH  23  26
ATOM     25  C   UNL     1      -0.362  -2.391  -0.792  0.00  0.00    -0.017 C 
ATOM     26  C   UNL     1      -1.436  -1.954   0.205  0.00  0.00    -0.081 C 
ENDBRANCH  23  26
BRANCH  23  27
ATOM     27  C   UNL     1      -2.463  -0.062   1.264  0.00  0.00    +0.019 C 
BRANCH  27  28
ATOM     28  C   UNL     1      -1.907  -0.436   2.614  0.00  0.00    +0.197 C 
ATOM     29  O   UNL     1      -0.836  -1.000   2.694  0.00  0.00    -0.278 OA
ATOM     30  N   UNL     1      -2.598  -0.142   3.733  0.00  0.00    -0.315 N 
ATOM     31  H   UNL     1      -3.454   0.310   3.670  0.00  0.00    +0.149 HD
BRANCH  30  32
ATOM     32  C   UNL     1      -2.057  -0.505   5.045  0.00  0.00    +0.067 C 
ATOM     33  C   UNL     1      -1.102   0.591   5.524  0.00  0.00    +0.027 C 
ATOM     34  C   UNL     1      -3.205  -0.654   6.046  0.00  0.00    +0.027 C 
ENDBRANCH  30  32
ENDBRANCH  27  28
ENDBRANCH  23  27
ENDBRANCH  22  23
ENDBRANCH   1  22
TORSDOF 11
