REMARK  Name = ZINC39412511
REMARK  7 active torsions:
REMARK  status: ('A' for Active; 'I' for Inactive)
REMARK    1  A    between atoms: C_1  and  C_2
REMARK    2  A    between atoms: C_5  and  S_14
REMARK    3  A    between atoms: N_7  and  C_8
REMARK    4  A    between atoms: S_14  and  C_15
REMARK    5  A    between atoms: C_15  and  C_16
REMARK    6  A    between atoms: N_18  and  N_19
REMARK    7  A    between atoms: C_20  and  C_21
REMARK                            x       y       z     vdW  Elec       q    Type
REMARK                         _______ _______ _______ _____ _____    ______ ____
ROOT
ATOM      1  C   UNL     1       4.507  -1.773   0.367  0.00  0.00    +0.242 C 
ATOM      2  O   UNL     1       4.826  -2.762   0.992  0.00  0.00    -0.273 OA
ATOM      3  N   UNL     1       5.456  -0.971  -0.155  0.00  0.00    -0.206 N 
ATOM      4  H   UNL     1       5.201  -0.179  -0.655  0.00  0.00    +0.177 HD
ENDROOT
BRANCH   3   5
ATOM      5  N   UNL     1       6.811  -1.279   0.025  0.00  0.00    -0.188 NA
ATOM      6  C   UNL     1       7.733  -0.500  -0.482  0.00  0.00    +0.136 C 
BRANCH   6   7
ATOM      7  C   UNL     1       9.088  -0.808  -0.301  0.00  0.00    +0.000 C 
ATOM      8  C   UNL     1      10.185  -0.087  -0.767  0.00  0.00    +0.004 A 
ATOM      9  C   UNL     1      10.296   1.104  -1.518  0.00  0.00    +0.010 A 
ATOM     10  C   UNL     1      11.523   1.588  -1.835  0.00  0.00    +0.001 A 
ATOM     11  C   UNL     1      12.693   0.936  -1.437  0.00  0.00    +0.002 A 
ATOM     12  C   UNL     1      12.664  -0.210  -0.716  0.00  0.00    +0.026 A 
ATOM     13  C   UNL     1      11.416  -0.779  -0.344  0.00  0.00    +0.043 A 
ATOM     14  N   UNL     1      11.123  -1.863   0.341  0.00  0.00    -0.380 N 
ATOM     15  C   UNL     1       9.666  -1.991   0.444  0.00  0.00    +0.150 C 
ATOM     16  H   UNL     1      11.769  -2.479   0.721  0.00  0.00    +0.160 HD
ENDBRANCH   6   7
ENDBRANCH   3   5
BRANCH   1  17
ATOM     17  C   UNL     1       3.050  -1.441   0.173  0.00  0.00    +0.170 C 
BRANCH  17  18
ATOM     18  S   UNL     1       2.030  -2.701   0.987  0.00  0.00    -0.108 S 
BRANCH  18  23
ATOM     19  C   UNL     1      -0.514   1.448   0.075  0.00  0.00    +0.085 C 
ATOM     20  C   UNL     1      -0.215  -0.028   0.030  0.00  0.00    +0.119 C 
ATOM     21  N   UNL     1      -0.239  -0.733  -1.041  0.00  0.00    -0.174 NA
ATOM     22  N   UNL     1       0.079  -2.072  -0.785  0.00  0.00    -0.237 N 
ATOM     23  C   UNL     1       0.328  -2.163   0.664  0.00  0.00    +0.241 C 
ATOM     24  N   UNL     1       0.124  -0.784   1.142  0.00  0.00    -0.258 N 
ATOM     25  H   UNL     1       0.126  -2.794  -1.431  0.00  0.00    +0.171 HD
BRANCH  24  26
ATOM     26  C   UNL     1       0.245  -0.329   2.457  0.00  0.00    +0.037 A 
ATOM     27  C   UNL     1      -0.640  -0.772   3.432  0.00  0.00    +0.023 A 
ATOM     28  C   UNL     1      -0.517  -0.320   4.731  0.00  0.00    +0.002 A 
ATOM     29  C   UNL     1       0.485   0.572   5.062  0.00  0.00    +0.000 A 
ATOM     30  C   UNL     1       1.368   1.016   4.094  0.00  0.00    +0.002 A 
ATOM     31  C   UNL     1       1.255   0.564   2.795  0.00  0.00    +0.023 A 
ENDBRANCH  24  26
ENDBRANCH  18  23
ENDBRANCH  17  18
ENDBRANCH   1  17
TORSDOF 6
