REMARK  Name = ZINC63583828
REMARK  4 active torsions:
REMARK  status: ('A' for Active; 'I' for Inactive)
REMARK    1  A    between atoms: C_1  and  C_2
REMARK    2  A    between atoms: C_4  and  C_8
REMARK    3  A    between atoms: C_13  and  N_16
REMARK    4  A    between atoms: N_16  and  C_17
REMARK                            x       y       z     vdW  Elec       q    Type
REMARK                         _______ _______ _______ _____ _____    ______ ____
ROOT
ATOM      1  C   UNL     1       0.041  -3.356  -1.443  0.00  0.00    +0.265 C 
ATOM      2  O   UNL     1      -0.057  -3.303  -2.655  0.00  0.00    -0.268 OA
ATOM      3  N   UNL     1       0.162  -4.550  -0.829  0.00  0.00    -0.296 N 
ATOM      4  C   UNL     1       0.167  -4.640   0.637  0.00  0.00    +0.110 C 
ATOM      5  C   UNL     1       1.418  -5.405   1.080  0.00  0.00    +0.041 C 
ATOM      6  C   UNL     1       1.463  -6.758   0.367  0.00  0.00    +0.073 C 
ATOM      7  C   UNL     1       1.542  -6.538  -1.145  0.00  0.00    +0.041 C 
ATOM      8  C   UNL     1       0.287  -5.786  -1.613  0.00  0.00    +0.110 C 
ENDROOT
BRANCH   1  12
ATOM      9  C   UNL     1      -1.327   0.487   1.571  0.00  0.00    +0.068 C 
ATOM     10  C   UNL     1      -0.553  -0.435   0.664  0.00  0.00    +0.074 A 
ATOM     11  C   UNL     1      -1.026  -1.624   0.101  0.00  0.00    +0.070 A 
ATOM     12  C   UNL     1       0.027  -2.119  -0.649  0.00  0.00    +0.135 A 
ATOM     13  N   UNL     1       1.052  -1.226  -0.503  0.00  0.00    -0.271 N 
ATOM     14  H   UNL     1       1.927  -1.306  -0.915  0.00  0.00    +0.189 HD
ATOM     15  N   UNL     1       0.679  -0.262   0.260  0.00  0.00    -0.177 NA
ATOM     16 BR   UNL     1      -2.740  -2.393   0.319  0.00  0.00    -0.046 Br
ENDBRANCH   1  12
BRANCH   6  17
ATOM     17  N   UNL     1       2.640  -7.507   0.814  0.00  0.00    -0.341 N 
ATOM     18  H   UNL     1       3.414  -7.033   1.158  0.00  0.00    +0.146 HD
BRANCH  17  19
ATOM     19  C   UNL     1       2.649  -8.903   0.744  0.00  0.00    +0.027 A 
ATOM     20  C   UNL     1       1.544  -9.582   0.246  0.00  0.00    +0.026 A 
ATOM     21  C   UNL     1       1.556 -10.961   0.178  0.00  0.00    +0.040 A 
ATOM     22  C   UNL     1       2.667 -11.668   0.605  0.00  0.00    +0.124 A 
ATOM     23  C   UNL     1       3.770 -10.993   1.101  0.00  0.00    +0.040 A 
ATOM     24  C   UNL     1       3.765  -9.614   1.167  0.00  0.00    +0.026 A 
ATOM     25  F   UNL     1       2.676 -13.017   0.538  0.00  0.00    -0.205 F 
ENDBRANCH  17  19
ENDBRANCH   6  17
TORSDOF 3
