REMARK  Name = ZINC21255804
REMARK  12 active torsions:
REMARK  status: ('A' for Active; 'I' for Inactive)
REMARK    1  A    between atoms: C_1  and  C_2
REMARK    2  A    between atoms: C_2  and  O_3
REMARK    3  A    between atoms: O_3  and  C_4
REMARK    4  A    between atoms: C_7  and  C_12
REMARK    5  A    between atoms: C_9  and  O_10
REMARK    6  A    between atoms: O_10  and  C_11
REMARK    7  A    between atoms: C_17  and  C_27
REMARK    8  A    between atoms: C_30  and  O_33
REMARK    9  A    between atoms: O_33  and  C_34
REMARK   10  A    between atoms: C_34  and  C_35
REMARK   11  A    between atoms: C_35  and  C_36
REMARK   12  A    between atoms: C_35  and  C_37
REMARK                            x       y       z     vdW  Elec       q    Type
REMARK                         _______ _______ _______ _____ _____    ______ ____
ROOT
ATOM      1  C   UNL     1      -2.289  -6.727   3.936  0.00  0.00    +0.032 C 
ATOM      2  C   UNL     1      -2.035  -7.767   2.846  0.00  0.00    +0.059 C 
ATOM      3  C   UNL     1      -0.897  -7.312   1.948  0.00  0.00    +0.017 C 
ATOM      4  C   UNL     1       0.107  -6.567   2.442  0.00  0.00    +0.036 C 
ATOM      5  C   UNL     1       1.297  -6.056   1.665  0.00  0.00    +0.136 C 
ATOM      6  N   UNL     1       1.452  -6.639   0.350  0.00  0.00    -0.331 N 
ATOM      7  C   UNL     1       0.500  -6.426  -0.647  0.00  0.00    +0.049 A 
ATOM      8  C   UNL     1       0.790  -5.674  -1.775  0.00  0.00    +0.025 A 
ATOM      9  C   UNL     1      -0.217  -5.392  -2.681  0.00  0.00    +0.002 A 
ATOM     10  C   UNL     1      -1.502  -5.857  -2.467  0.00  0.00    +0.002 A 
ATOM     11  C   UNL     1      -1.790  -6.627  -1.352  0.00  0.00    +0.025 A 
ATOM     12  C   UNL     1      -0.780  -6.924  -0.454  0.00  0.00    +0.052 A 
ATOM     13  N   UNL     1      -0.987  -7.730   0.659  0.00  0.00    -0.316 N 
ATOM     14  C   UNL     1       0.109  -6.190   3.806  0.00  0.00    +0.163 C 
ATOM     15  O   UNL     1       1.039  -5.533   4.231  0.00  0.00    -0.292 OA
ATOM     16  C   UNL     1      -0.996  -6.573   4.745  0.00  0.00    +0.088 C 
ATOM     17  H   UNL     1       2.330  -7.262   0.124  0.00  0.00    +0.147 HD
ATOM     18  H   UNL     1      -1.242  -8.776   0.437  0.00  0.00    +0.152 HD
ENDROOT
BRANCH   1  22
ATOM     19  C   UNL     1      -5.446  -8.057   6.496  0.00  0.00    +0.162 A 
ATOM     20  C   UNL     1      -4.307  -8.830   6.337  0.00  0.00    +0.050 A 
ATOM     21  C   UNL     1      -3.288  -8.397   5.508  0.00  0.00    +0.008 A 
ATOM     22  C   UNL     1      -3.403  -7.194   4.837  0.00  0.00    -0.040 A 
ATOM     23  C   UNL     1      -4.534  -6.416   4.995  0.00  0.00    +0.053 A 
ATOM     24  C   UNL     1      -5.561  -6.846   5.820  0.00  0.00    +0.162 A 
BRANCH  24  25
ATOM     25  O   UNL     1      -6.677  -6.084   5.973  0.00  0.00    -0.491 OA
ATOM     26  C   UNL     1      -6.726  -4.853   5.249  0.00  0.00    +0.277 C 
ENDBRANCH  24  25
BRANCH  19  27
ATOM     27  O   UNL     1      -6.449  -8.481   7.310  0.00  0.00    -0.489 OA
BRANCH  27  29
ATOM     28  C   UNL     1      -7.485 -10.041   8.838  0.00  0.00    +0.048 C 
ATOM     29  C   UNL     1      -6.262  -9.734   7.972  0.00  0.00    +0.226 C 
ENDBRANCH  27  29
ENDBRANCH  19  27
ENDBRANCH   1  22
BRANCH   5  30
ATOM     30  C   UNL     1       1.161  -4.563   1.513  0.00  0.00    -0.023 A 
ATOM     31  C   UNL     1       2.100  -3.724   2.084  0.00  0.00    +0.009 A 
ATOM     32  C   UNL     1       1.978  -2.354   1.946  0.00  0.00    +0.046 A 
ATOM     33  C   UNL     1       0.913  -1.822   1.233  0.00  0.00    +0.121 A 
ATOM     34  C   UNL     1      -0.030  -2.667   0.666  0.00  0.00    +0.046 A 
ATOM     35  C   UNL     1       0.099  -4.035   0.802  0.00  0.00    +0.009 A 
BRANCH  33  36
ATOM     36  O   UNL     1       0.792  -0.476   1.096  0.00  0.00    -0.492 OA
BRANCH  36  37
ATOM     37  C   UNL     1      -0.329   0.001   0.349  0.00  0.00    +0.232 C 
BRANCH  37  38
ATOM     38  C   UNL     1      -0.298   1.530   0.303  0.00  0.00    +0.020 C 
ATOM     39  C   UNL     1      -1.425   2.037  -0.599  0.00  0.00    +0.010 C 
ATOM     40  C   UNL     1      -0.486   2.087   1.715  0.00  0.00    +0.010 C 
ENDBRANCH  37  38
ENDBRANCH  36  37
ENDBRANCH  33  36
ENDBRANCH   5  30
TORSDOF 8
