REMARK  Name = ZINC39303647
REMARK  12 active torsions:
REMARK  status: ('A' for Active; 'I' for Inactive)
REMARK    1  A    between atoms: C_1  and  C_2
REMARK    2  A    between atoms: C_2  and  C_3
REMARK    3  A    between atoms: C_2  and  C_4
REMARK    4  A    between atoms: C_7  and  O_36
REMARK    5  A    between atoms: C_8  and  C_10
REMARK    6  A    between atoms: C_10  and  N_11
REMARK    7  A    between atoms: C_16  and  C_18
REMARK    8  A    between atoms: N_20  and  C_21
REMARK    9  A    between atoms: C_21  and  C_22
REMARK   10  A    between atoms: C_22  and  S_23
REMARK   11  A    between atoms: S_23  and  C_24
REMARK   12  A    between atoms: O_36  and  C_37
REMARK                            x       y       z     vdW  Elec       q    Type
REMARK                         _______ _______ _______ _____ _____    ______ ____
ROOT
ATOM      1  N   UNL     1      -3.598  -3.912  -1.951  0.00  0.00    +0.390 N 
ATOM      2  C   UNL     1      -2.243  -4.443  -1.761  0.00  0.00    -0.077 C 
ATOM      3  C   UNL     1      -2.304  -5.713  -0.909  0.00  0.00    -0.019 C 
ATOM      4  C   UNL     1      -3.169  -6.757  -1.621  0.00  0.00    -0.003 C 
ATOM      5  C   UNL     1      -4.557  -6.165  -1.881  0.00  0.00    -0.006 C 
ATOM      6  C   UNL     1      -4.412  -4.879  -2.697  0.00  0.00    +0.020 C 
ATOM      7  H   UNL     1      -4.020  -3.741  -1.051  0.00  0.00    -0.080 HD
ENDROOT
BRANCH   6   8
ATOM      8  C   UNL     1      -5.776  -4.292  -2.955  0.00  0.00    +0.200 C 
ATOM      9  O   UNL     1      -6.244  -3.482  -2.184  0.00  0.00    -0.278 OA
ATOM     10  N   UNL     1      -6.476  -4.669  -4.044  0.00  0.00    -0.316 N 
ATOM     11  H   UNL     1      -6.103  -5.317  -4.660  0.00  0.00    +0.149 HD
BRANCH  10  12
ATOM     12  C   UNL     1      -7.802  -4.099  -4.295  0.00  0.00    +0.115 C 
BRANCH  12  13
ATOM     13  C   UNL     1      -8.376  -4.690  -5.584  0.00  0.00    +0.089 C 
BRANCH  13  14
ATOM     14  S   UNL     1     -10.018  -3.984  -5.896  0.00  0.00    -0.135 S 
BRANCH  14  15
ATOM     15  C   UNL     1     -10.551  -4.777  -7.438  0.00  0.00    +0.194 C 
ATOM     16  C   UNL     1     -11.864  -4.191  -7.878  0.00  0.00    +0.241 C 
ATOM     17  O   UNL     1     -11.846  -3.277  -8.675  0.00  0.00    -0.273 OA
ATOM     18  N   UNL     1     -13.046  -4.620  -7.441  0.00  0.00    -0.283 N 
ATOM     19  C   UNL     1     -13.262  -5.645  -6.524  0.00  0.00    +0.047 A 
ATOM     20  C   UNL     1     -14.463  -5.695  -5.825  0.00  0.00    +0.024 A 
ATOM     21  C   UNL     1     -14.697  -6.708  -4.916  0.00  0.00    +0.002 A 
ATOM     22  C   UNL     1     -13.742  -7.682  -4.690  0.00  0.00    +0.001 A 
ATOM     23  C   UNL     1     -12.542  -7.643  -5.376  0.00  0.00    +0.016 A 
ATOM     24  C   UNL     1     -12.301  -6.629  -6.288  0.00  0.00    +0.031 A 
ATOM     25  S   UNL     1     -10.765  -6.562  -7.163  0.00  0.00    -0.100 S 
ATOM     26  H   UNL     1     -13.832  -4.176  -7.796  0.00  0.00    +0.155 HD
ENDBRANCH  14  15
ENDBRANCH  13  14
ENDBRANCH  12  13
ENDBRANCH  10  12
ENDBRANCH   6   8
BRANCH   1  27
ATOM     27  C   UNL     1      -3.527  -2.651  -2.703  0.00  0.00    -0.038 C 
BRANCH  27  32
ATOM     28  C   UNL     1      -0.847  -0.314  -1.433  0.00  0.00    -0.044 A 
ATOM     29  C   UNL     1      -1.485   0.289  -0.365  0.00  0.00    +0.007 A 
ATOM     30  C   UNL     1      -2.785  -0.058  -0.050  0.00  0.00    +0.046 A 
ATOM     31  C   UNL     1      -3.450  -1.012  -0.807  0.00  0.00    +0.121 A 
ATOM     32  C   UNL     1      -2.807  -1.615  -1.879  0.00  0.00    -0.022 A 
ATOM     33  C   UNL     1      -1.509  -1.261  -2.192  0.00  0.00    +0.009 A 
BRANCH  28  35
ATOM     34  C   UNL     1       0.636   1.560  -2.093  0.00  0.00    +0.012 C 
ATOM     35  C   UNL     1       0.571   0.065  -1.774  0.00  0.00    +0.013 C 
ATOM     36  C   UNL     1       1.482  -0.242  -0.583  0.00  0.00    +0.012 C 
ENDBRANCH  28  35
BRANCH  31  37
ATOM     37  O   UNL     1      -4.728  -1.355  -0.500  0.00  0.00    -0.495 OA
ATOM     38  C   UNL     1      -5.327  -0.693   0.617  0.00  0.00    +0.277 C 
ENDBRANCH  31  37
ENDBRANCH  27  32
ENDBRANCH   1  27
TORSDOF 9
