REMARK  Name = ZINC53631638
REMARK  10 active torsions:
REMARK  status: ('A' for Active; 'I' for Inactive)
REMARK    1  A    between atoms: C_1  and  C_2
REMARK    2  A    between atoms: C_2  and  C_3
REMARK    3  A    between atoms: C_3  and  C_4
REMARK    4  A    between atoms: C_4  and  C_5
REMARK    5  A    between atoms: C_7  and  C_11
REMARK    6  A    between atoms: C_11  and  N_12
REMARK    7  A    between atoms: C_19  and  C_33
REMARK    8  A    between atoms: N_23  and  C_24
REMARK    9  A    between atoms: C_24  and  C_25
REMARK   10  A    between atoms: C_26  and  C_27
REMARK                            x       y       z     vdW  Elec       q    Type
REMARK                         _______ _______ _______ _____ _____    ______ ____
ROOT
ATOM      1  N   UNL     1       1.586  -2.362  -6.804  0.00  0.00    -0.293 NA
ATOM      2  C   UNL     1       0.458  -1.478  -6.484  0.00  0.00    +0.087 C 
ATOM      3  C   UNL     1       0.609  -0.146  -7.222  0.00  0.00    +0.042 C 
ATOM      4  C   UNL     1       0.543  -0.394  -8.730  0.00  0.00    +0.105 C 
ATOM      5  C   UNL     1       1.582  -1.443  -9.041  0.00  0.00    -0.038 C 
ATOM      6  C   UNL     1       2.468  -1.243  -9.980  0.00  0.00    -0.007 C 
ATOM      7  C   UNL     1       2.466   0.056 -10.749  0.00  0.00    +0.128 C 
ATOM      8  C   UNL     1       1.478   1.134 -10.379  0.00  0.00    +0.228 C 
ATOM      9  O   UNL     1       1.495   2.202 -10.955  0.00  0.00    -0.275 OA
ATOM     10  N   UNL     1       0.581   0.902  -9.404  0.00  0.00    -0.290 N 
ATOM     11  C   UNL     1       1.591  -2.718  -8.233  0.00  0.00    +0.117 C 
ENDROOT
BRANCH   7  12
ATOM     12  C   UNL     1       3.845   0.650 -10.635  0.00  0.00    -0.029 A 
ATOM     13  C   UNL     1       4.382   0.966  -9.396  0.00  0.00    +0.024 A 
ATOM     14  C   UNL     1       5.651   1.510  -9.330  0.00  0.00    +0.111 A 
ATOM     15  N   UNL     1       6.348   1.729 -10.428  0.00  0.00    -0.263 NA
ATOM     16  C   UNL     1       5.870   1.442 -11.623  0.00  0.00    +0.111 A 
ATOM     17  C   UNL     1       4.611   0.890 -11.766  0.00  0.00    +0.024 A 
ENDBRANCH   7  12
BRANCH   1  18
ATOM     18  C   UNL     1       1.568  -3.565  -5.962  0.00  0.00    +0.139 C 
BRANCH  18  21
ATOM     19  C   UNL     1       1.444  -2.513  -2.505  0.00  0.00    +0.084 A 
ATOM     20  N   UNL     1       0.878  -2.763  -3.654  0.00  0.00    -0.346 N 
ATOM     21  C   UNL     1       1.810  -3.176  -4.526  0.00  0.00    +0.047 A 
ATOM     22  H   UNL     1       3.432  -2.652  -1.913  0.00  0.00    +0.166 HD
ATOM     23  C   UNL     1       2.998  -3.182  -3.894  0.00  0.00    +0.106 A 
ATOM     24  N   UNL     1       2.768  -2.757  -2.613  0.00  0.00    -0.350 N 
ATOM     25  H   UNL     1      -0.068  -2.666  -3.847  0.00  0.00    +0.167 HD
BRANCH  19  26
ATOM     26  C   UNL     1       0.739  -2.027  -1.265  0.00  0.00    +0.072 C 
BRANCH  26  27
ATOM     27  C   UNL     1       0.718  -0.497  -1.257  0.00  0.00    +0.007 C 
BRANCH  27  29
ATOM     28  C   UNL     1      -0.019   1.526   0.010  0.00  0.00    +0.004 C 
ATOM     29  C   UNL     1       0.002  -0.004   0.002  0.00  0.00    -0.003 C 
ENDBRANCH  27  29
ENDBRANCH  26  27
ENDBRANCH  19  26
ENDBRANCH  18  21
ENDBRANCH   1  18
BRANCH  10  30
ATOM     30  C   UNL     1      -0.362   1.956  -9.022  0.00  0.00    +0.135 C 
BRANCH  30  31
ATOM     31  C   UNL     1       0.238   2.793  -7.922  0.00  0.00    -0.007 C 
ATOM     32  C   UNL     1       0.338   4.106  -8.068  0.00  0.00    +0.005 C 
BRANCH  32  33
ATOM     33  C   UNL     1       0.927   4.927  -6.989  0.00  0.00    -0.025 A 
ATOM     34  C   UNL     1       1.383   4.322  -5.817  0.00  0.00    +0.008 A 
ATOM     35  C   UNL     1       1.932   5.094  -4.814  0.00  0.00    +0.001 A 
ATOM     36  C   UNL     1       2.029   6.465  -4.967  0.00  0.00    +0.000 A 
ATOM     37  C   UNL     1       1.578   7.072  -6.126  0.00  0.00    +0.001 A 
ATOM     38  C   UNL     1       1.034   6.310  -7.139  0.00  0.00    +0.008 A 
ENDBRANCH  32  33
ENDBRANCH  30  31
ENDBRANCH  10  30
TORSDOF 9
