REMARK  Name = ZINC39491753
REMARK  15 active torsions:
REMARK  status: ('A' for Active; 'I' for Inactive)
REMARK    1  A    between atoms: C_1  and  C_2
REMARK    2  A    between atoms: C_2  and  C_3
REMARK    3  A    between atoms: C_2  and  S_4
REMARK    4  A    between atoms: S_4  and  C_7
REMARK    5  A    between atoms: C_7  and  C_9
REMARK    6  A    between atoms: C_7  and  C_32
REMARK    7  A    between atoms: C_9  and  N_10
REMARK    8  A    between atoms: C_12  and  C_23
REMARK    9  A    between atoms: C_17  and  C_19
REMARK   10  A    between atoms: C_19  and  O_21
REMARK   11  A    between atoms: O_21  and  C_22
REMARK   12  A    between atoms: C_23  and  N_24
REMARK   13  A    between atoms: N_24  and  C_25
REMARK   14  A    between atoms: C_25  and  C_26
REMARK   15  A    between atoms: C_37  and  O_38
REMARK                            x       y       z     vdW  Elec       q    Type
REMARK                         _______ _______ _______ _____ _____    ______ ____
ROOT
ATOM      1  N   UNL     1       1.352   2.036   2.116  0.00  0.00    -0.344 N 
ATOM      2  C   UNL     1       1.715   2.901   3.112  0.00  0.00    +0.088 A 
ATOM      3  C   UNL     1       2.977   3.315   2.922  0.00  0.00    -0.039 A 
ATOM      4  C   UNL     1       3.462   2.661   1.703  0.00  0.00    +0.002 A 
ATOM      5  C   UNL     1       2.397   1.862   1.241  0.00  0.00    +0.049 A 
ATOM      6  C   UNL     1       2.557   1.102   0.084  0.00  0.00    +0.027 A 
ATOM      7  C   UNL     1       3.738   1.127  -0.596  0.00  0.00    +0.017 A 
ATOM      8  C   UNL     1       4.807   1.915  -0.145  0.00  0.00    +0.060 A 
ATOM      9  C   UNL     1       4.665   2.689   1.004  0.00  0.00    +0.025 A 
ENDROOT
BRANCH   8  10
ATOM     10  C   UNL     1       6.078   1.931  -0.893  0.00  0.00    +0.339 C 
ATOM     11  O   UNL     1       7.004   2.613  -0.502  0.00  0.00    -0.245 OA
BRANCH  10  12
ATOM     12  O   UNL     1       6.213   1.188  -2.009  0.00  0.00    -0.464 OA
ATOM     13  C   UNL     1       7.472   1.251  -2.682  0.00  0.00    +0.280 C 
ENDBRANCH  10  12
ENDBRANCH   8  10
BRANCH   1  14
ATOM     14  C   UNL     1       0.044   1.386   2.002  0.00  0.00    +0.153 C 
BRANCH  14  15
ATOM     15  C   UNL     1       0.006   0.155   2.910  0.00  0.00    +0.184 C 
BRANCH  15  16
ATOM     16  C   UNL     1      -1.382  -0.433   2.901  0.00  0.00    +0.020 A 
ATOM     17  C   UNL     1      -1.794  -1.216   1.839  0.00  0.00    +0.009 A 
ATOM     18  C   UNL     1      -3.067  -1.756   1.830  0.00  0.00    +0.001 A 
ATOM     19  C   UNL     1      -3.930  -1.514   2.882  0.00  0.00    +0.004 A 
ATOM     20  C   UNL     1      -3.523  -0.733   3.946  0.00  0.00    +0.046 A 
ATOM     21  C   UNL     1      -2.244  -0.194   3.960  0.00  0.00    +0.122 A 
BRANCH  21  22
ATOM     22  O   UNL     1      -1.839   0.570   5.008  0.00  0.00    -0.506 OA
ATOM     23  H   UNL     1      -2.025   1.513   4.902  0.00  0.00    +0.292 HD
ENDBRANCH  21  22
ENDBRANCH  15  16
BRANCH  15  24
ATOM     24  S   UNL     1       1.190  -1.079   2.305  0.00  0.00    -0.020 S 
ATOM     25  O   UNL     1       2.502  -0.558   2.461  0.00  0.00    -0.173 OA
ATOM     26  O   UNL     1       0.768  -1.515   1.020  0.00  0.00    -0.173 OA
BRANCH  24  28
ATOM     27  C   UNL     1      -0.366  -3.139   3.211  0.00  0.00    +0.031 C 
ATOM     28  C   UNL     1       0.974  -2.449   3.475  0.00  0.00    +0.125 C 
ATOM     29  C   UNL     1       2.111  -3.457   3.296  0.00  0.00    +0.031 C 
ENDBRANCH  24  28
ENDBRANCH  15  24
ENDBRANCH  14  15
ENDBRANCH   1  14
BRANCH   3  30
ATOM     30  C   UNL     1       3.749   4.271   3.794  0.00  0.00    -0.044 C 
BRANCH  30  31
ATOM     31  N   UNL     1       3.733   5.609   3.188  0.00  0.00    +0.384 N 
ATOM     32  H   UNL     1       4.159   5.569   2.274  0.00  0.00    -0.085 HD
ATOM     33  H   UNL     1       2.780   5.928   3.101  0.00  0.00    -0.085 HD
BRANCH  31  34
ATOM     34  C   UNL     1       4.486   6.541   4.038  0.00  0.00    -0.046 C 
BRANCH  34  35
ATOM     35  C   UNL     1       4.469   7.914   3.417  0.00  0.00    -0.064 A 
ATOM     36  C   UNL     1       5.461   8.281   2.526  0.00  0.00    +0.002 A 
ATOM     37  C   UNL     1       5.446   9.540   1.955  0.00  0.00    +0.000 A 
ATOM     38  C   UNL     1       4.439  10.431   2.275  0.00  0.00    +0.000 A 
ATOM     39  C   UNL     1       3.447  10.064   3.165  0.00  0.00    +0.000 A 
ATOM     40  C   UNL     1       3.460   8.804   3.732  0.00  0.00    +0.002 A 
ENDBRANCH  34  35
ENDBRANCH  31  34
ENDBRANCH  30  31
ENDBRANCH   3  30
TORSDOF 12
