REMARK  Name = ZINC59928149
REMARK  8 active torsions:
REMARK  status: ('A' for Active; 'I' for Inactive)
REMARK    1  A    between atoms: C_1  and  C_2
REMARK    2  A    between atoms: C_2  and  C_4
REMARK    3  A    between atoms: C_2  and  S_12
REMARK    4  A    between atoms: S_12  and  C_13
REMARK    5  A    between atoms: C_16  and  C_19
REMARK    6  A    between atoms: N_17  and  N_18
REMARK    7  A    between atoms: C_22  and  O_25
REMARK    8  A    between atoms: O_25  and  C_26
REMARK                            x       y       z     vdW  Elec       q    Type
REMARK                         _______ _______ _______ _____ _____    ______ ____
ROOT
ATOM      1  C   UNL     1      -0.189  -0.057  -2.809  0.00  0.00    +0.209 A 
ATOM      2  N   UNL     1      -1.312   0.615  -2.693  0.00  0.00    -0.121 NA
ATOM      3  N   UNL     1      -1.815   0.839  -3.854  0.00  0.00    -0.127 NA
ATOM      4  C   UNL     1      -1.043   0.325  -4.784  0.00  0.00    +0.182 A 
ATOM      5  N   UNL     1       0.025  -0.260  -4.143  0.00  0.00    -0.224 N 
ENDROOT
BRANCH   4   6
ATOM      6  C   UNL     1      -1.275   0.370  -6.243  0.00  0.00    +0.021 A 
ATOM      7  C   UNL     1      -0.560  -0.477  -7.092  0.00  0.00    +0.015 A 
ATOM      8  C   UNL     1      -0.780  -0.432  -8.452  0.00  0.00    +0.046 A 
ATOM      9  C   UNL     1      -1.710   0.454  -8.978  0.00  0.00    +0.120 A 
ATOM     10  C   UNL     1      -2.424   1.298  -8.137  0.00  0.00    +0.046 A 
ATOM     11  C   UNL     1      -2.214   1.255  -6.775  0.00  0.00    +0.015 A 
BRANCH   9  12
ATOM     12  O   UNL     1      -1.923   0.496 -10.319  0.00  0.00    -0.495 OA
ATOM     13  C   UNL     1      -2.895   1.431 -10.793  0.00  0.00    +0.277 C 
ENDBRANCH   9  12
ENDBRANCH   4   6
BRANCH   5  14
ATOM     14  N   UNL     1       1.078  -0.912  -4.720  0.00  0.00    -0.295 N 
ATOM     15  H   UNL     1       0.880  -1.895  -4.826  0.00  0.00    +0.163 HD
ATOM     16  H   UNL     1       1.319  -0.494  -5.606  0.00  0.00    +0.163 HD
ENDBRANCH   5  14
BRANCH   1  17
ATOM     17  S   UNL     1       0.851  -0.589  -1.490  0.00  0.00    -0.077 S 
BRANCH  17  19
ATOM     18  C   UNL     1      -0.019   1.526   0.010  0.00  0.00    +0.024 C 
ATOM     19  C   UNL     1       0.002  -0.004   0.002  0.00  0.00    +0.081 C 
BRANCH  19  20
ATOM     20  C   UNL     1       0.731  -0.503   1.223  0.00  0.00    -0.033 A 
ATOM     21  C   UNL     1       2.050  -0.147   1.433  0.00  0.00    +0.007 A 
ATOM     22  C   UNL     1       2.720  -0.604   2.553  0.00  0.00    +0.040 A 
ATOM     23  C   UNL     1       2.070  -1.418   3.464  0.00  0.00    +0.142 A 
ATOM     24  C   UNL     1       0.748  -1.774   3.253  0.00  0.00    +0.076 A 
ATOM     25  C   UNL     1       0.078  -1.312   2.134  0.00  0.00    +0.027 A 
ATOM     26 CL   UNL     1      -0.070  -2.795   4.394  0.00  0.00    -0.081 Cl
ATOM     27  F   UNL     1       2.724  -1.865   4.558  0.00  0.00    -0.204 F 
ENDBRANCH  19  20
ENDBRANCH  17  19
ENDBRANCH   1  17
TORSDOF 6
