REMARK  Name = ZINC16267302
REMARK  11 active torsions:
REMARK  status: ('A' for Active; 'I' for Inactive)
REMARK    1  A    between atoms: C_1  and  C_2
REMARK    2  A    between atoms: C_4  and  C_28
REMARK    3  A    between atoms: C_5  and  S_9
REMARK    4  A    between atoms: C_6  and  C_8
REMARK    5  A    between atoms: S_9  and  N_12
REMARK    6  A    between atoms: N_12  and  C_13
REMARK    7  A    between atoms: N_12  and  C_14
REMARK    8  A    between atoms: C_14  and  C_15
REMARK    9  A    between atoms: N_17  and  N_18
REMARK   10  A    between atoms: C_19  and  C_20
REMARK   11  A    between atoms: C_25  and  O_26
REMARK                            x       y       z     vdW  Elec       q    Type
REMARK                         _______ _______ _______ _____ _____    ______ ____
ROOT
ATOM      1  C   UNL     1       3.695   7.190  -0.824  0.00  0.00    +0.206 C 
ENDROOT
BRANCH   1   2
ATOM      2  C   UNL     1       4.068   5.731  -0.885  0.00  0.00    +0.248 C 
ATOM      3  O   UNL     1       5.222   5.393  -0.728  0.00  0.00    -0.273 OA
ATOM      4  N   UNL     1       3.118   4.802  -1.113  0.00  0.00    -0.206 N 
ATOM      5  H   UNL     1       2.195   5.072  -1.239  0.00  0.00    +0.177 HD
BRANCH   4   6
ATOM      6  N   UNL     1       3.465   3.446  -1.170  0.00  0.00    -0.188 NA
ATOM      7  C   UNL     1       2.550   2.551  -1.391  0.00  0.00    +0.142 C 
BRANCH   7   8
ATOM      8  C   UNL     1       2.915   1.124  -1.450  0.00  0.00    +0.037 A 
ATOM      9  C   UNL     1       1.934   0.158  -1.687  0.00  0.00    +0.028 A 
ATOM     10  C   UNL     1       2.282  -1.176  -1.742  0.00  0.00    +0.019 A 
ATOM     11  C   UNL     1       3.601  -1.561  -1.564  0.00  0.00    +0.019 A 
ATOM     12  C   UNL     1       4.580  -0.614  -1.329  0.00  0.00    +0.047 A 
ATOM     13  C   UNL     1       4.247   0.729  -1.271  0.00  0.00    +0.126 A 
ATOM     14 BR   UNL     1       0.954  -2.483  -2.063  0.00  0.00    -0.050 Br
BRANCH  13  15
ATOM     15  O   UNL     1       5.209   1.660  -1.040  0.00  0.00    -0.506 OA
ATOM     16  H   UNL     1       5.627   2.002  -1.842  0.00  0.00    +0.292 HD
ENDBRANCH  13  15
ENDBRANCH   7   8
ENDBRANCH   4   6
ENDBRANCH   1   2
BRANCH   1  17
ATOM     17  N   UNL     1       4.895   7.990  -0.566  0.00  0.00    -0.171 NA
ATOM     18  C   UNL     1       5.357   8.195   0.809  0.00  0.00    +0.132 C 
BRANCH  17  19
ATOM     19  S   UNL     1       5.729   8.663  -1.828  0.00  0.00    +0.062 S 
ATOM     20  O   UNL     1       7.094   8.703  -1.438  0.00  0.00    -0.153 OA
ATOM     21  O   UNL     1       5.293   7.995  -3.005  0.00  0.00    -0.153 OA
BRANCH  19  26
ATOM     22  C   UNL     1       3.904  14.393  -2.319  0.00  0.00    +0.044 C 
ATOM     23  C   UNL     1       4.359  12.961  -2.197  0.00  0.00    -0.050 A 
ATOM     24  C   UNL     1       3.639  11.952  -2.807  0.00  0.00    +0.008 A 
ATOM     25  C   UNL     1       4.057  10.639  -2.694  0.00  0.00    -0.024 A 
ATOM     26  C   UNL     1       5.196  10.336  -1.972  0.00  0.00    +0.111 A 
ATOM     27  C   UNL     1       5.913  11.345  -1.358  0.00  0.00    -0.024 A 
ATOM     28  C   UNL     1       5.498  12.658  -1.474  0.00  0.00    +0.008 A 
ATOM     29  C   UNL     1       7.152  11.014  -0.565  0.00  0.00    +0.046 C 
ATOM     30  C   UNL     1       3.271   9.538  -3.359  0.00  0.00    +0.046 C 
ENDBRANCH  19  26
ENDBRANCH  17  19
ENDBRANCH   1  17
TORSDOF 7
