REMARK  Name = ZINC39600573
REMARK  5 active torsions:
REMARK  status: ('A' for Active; 'I' for Inactive)
REMARK    1  A    between atoms: C_2  and  C_12
REMARK    2  A    between atoms: C_6  and  C_7
REMARK    3  A    between atoms: C_12  and  N_13
REMARK    4  A    between atoms: C_14  and  C_16
REMARK    5  A    between atoms: C_27  and  C_29
REMARK                            x       y       z     vdW  Elec       q    Type
REMARK                         _______ _______ _______ _____ _____    ______ ____
ROOT
ATOM      1  C   UNL     1       1.779   5.696   3.779  0.00  0.00    +0.100 C 
ATOM      2  C   UNL     1       0.260   5.527   4.007  0.00  0.00    +0.121 C 
ATOM      3  N   UNL     1      -0.123   6.683   4.851  0.00  0.00    -0.300 N 
ATOM      4  C   UNL     1       0.670   7.813   4.311  0.00  0.00    +0.115 C 
ATOM      5  C   UNL     1       2.044   7.197   3.978  0.00  0.00    -0.004 C 
ATOM      6  C   UNL     1       2.600   7.811   2.697  0.00  0.00    -0.010 C 
ATOM      7  C   UNL     1       2.910   9.291   2.937  0.00  0.00    -0.082 C 
ATOM      8  N   UNL     1       3.885   9.418   4.027  0.00  0.00    +0.379 N 
ATOM      9  C   UNL     1       3.307   8.910   5.277  0.00  0.00    -0.082 C 
ATOM     10  C   UNL     1       3.013   7.414   5.136  0.00  0.00    -0.010 C 
ATOM     11  C   UNL     1      -0.994   6.702   5.880  0.00  0.00    +0.219 C 
ATOM     12  O   UNL     1      -1.509   5.671   6.257  0.00  0.00    -0.275 OA
ATOM     13  H   UNL     1       4.712   8.886   3.801  0.00  0.00    -0.086 HD
ATOM     14  H   UNL     1       4.134  10.389   4.143  0.00  0.00    -0.086 HD
ENDROOT
BRANCH  11  15
ATOM     15  C   UNL     1      -1.328   8.005   6.560  0.00  0.00    +0.079 C 
ATOM     16  C   UNL     1      -1.783   7.733   7.999  0.00  0.00    +0.017 C 
ATOM     17  C   UNL     1      -1.943   9.075   8.718  0.00  0.00    +0.027 C 
ATOM     18  C   UNL     1      -2.764  10.014   7.883  0.00  0.00    -0.031 C 
ATOM     19  C   UNL     1      -2.990   9.851   6.619  0.00  0.00    -0.030 C 
ATOM     20  C   UNL     1      -2.467   8.699   5.810  0.00  0.00    +0.039 C 
ENDBRANCH  11  15
BRANCH   1  22
ATOM     21  N   UNL     1       3.385   4.809   2.120  0.00  0.00    -0.311 N 
ATOM     22  C   UNL     1       2.149   5.279   2.379  0.00  0.00    +0.218 C 
ATOM     23  O   UNL     1       1.334   5.367   1.484  0.00  0.00    -0.275 OA
ATOM     24  H   UNL     1       4.037   4.739   2.835  0.00  0.00    +0.149 HD
BRANCH  21  25
ATOM     25  C   UNL     1       3.745   4.404   0.759  0.00  0.00    +0.139 C 
BRANCH  25  27
ATOM     26  C   UNL     1       5.451   2.584   0.963  0.00  0.00    +0.017 A 
ATOM     27  C   UNL     1       5.171   3.920   0.739  0.00  0.00    -0.027 A 
ATOM     28  C   UNL     1       6.200   4.810   0.497  0.00  0.00    +0.043 A 
ATOM     29  C   UNL     1       7.511   4.365   0.479  0.00  0.00    +0.124 A 
ATOM     30  C   UNL     1       7.790   3.027   0.703  0.00  0.00    +0.050 A 
ATOM     31  C   UNL     1       6.759   2.138   0.944  0.00  0.00    +0.058 A 
ATOM     32  F   UNL     1       8.517   5.235   0.243  0.00  0.00    -0.205 F 
BRANCH  31  33
ATOM     33  C   UNL     1       7.063   0.682   1.189  0.00  0.00    +0.418 C 
ATOM     34  F   UNL     1       7.058  -0.005  -0.029  0.00  0.00    -0.166 F 
ATOM     35  F   UNL     1       8.321   0.562   1.787  0.00  0.00    -0.166 F 
ATOM     36  F   UNL     1       6.090   0.139   2.035  0.00  0.00    -0.166 F 
ENDBRANCH  31  33
ENDBRANCH  25  27
ENDBRANCH  21  25
ENDBRANCH   1  22
TORSDOF 5
