REMARK  Name = ZINC43041113
REMARK  9 active torsions:
REMARK  status: ('A' for Active; 'I' for Inactive)
REMARK    1  A    between atoms: C_1  and  C_2
REMARK    2  A    between atoms: C_2  and  C_3
REMARK    3  A    between atoms: C_3  and  C_5
REMARK    4  A    between atoms: C_3  and  N_23
REMARK    5  A    between atoms: C_5  and  C_7
REMARK    6  A    between atoms: C_5  and  S_14
REMARK    7  A    between atoms: C_12  and  C_13
REMARK    8  A    between atoms: S_14  and  C_15
REMARK    9  A    between atoms: C_17  and  C_22
REMARK                            x       y       z     vdW  Elec       q    Type
REMARK                         _______ _______ _______ _____ _____    ______ ____
ROOT
ATOM      1  C   UNL     1       0.709  -2.181  -1.440  0.00  0.00    +0.101 C 
ENDROOT
BRANCH   1   2
ATOM      2  C   UNL     1       1.517  -2.464  -2.680  0.00  0.00    -0.030 A 
ATOM      3  C   UNL     1       1.096  -1.981  -3.905  0.00  0.00    +0.005 A 
ATOM      4  C   UNL     1       1.838  -2.241  -5.042  0.00  0.00    +0.000 A 
ATOM      5  C   UNL     1       3.001  -2.983  -4.954  0.00  0.00    +0.000 A 
ATOM      6  C   UNL     1       3.422  -3.465  -3.729  0.00  0.00    +0.003 A 
ATOM      7  C   UNL     1       2.683  -3.202  -2.591  0.00  0.00    -0.046 A 
ATOM      8  C   UNL     1       3.145  -3.723  -1.255  0.00  0.00    +0.044 C 
ENDBRANCH   1   2
BRANCH   1   9
ATOM      9  C   UNL     1       1.084  -0.803  -0.890  0.00  0.00    +0.068 C 
BRANCH   9  10
ATOM     10  N   UNL     1       0.202  -0.468   0.235  0.00  0.00    -0.326 NA
ATOM     11  H   UNL     1       0.288  -1.147   0.977  0.00  0.00    +0.119 HD
ATOM     12  H   UNL     1       0.387   0.464   0.575  0.00  0.00    +0.119 HD
ENDBRANCH   9  10
BRANCH   9  14
ATOM     13  C   UNL     1       2.944   0.579   0.043  0.00  0.00    +0.005 C 
ATOM     14  C   UNL     1       2.537  -0.824  -0.411  0.00  0.00    +0.016 C 
ENDBRANCH   9  14
ENDBRANCH   1   9
BRANCH   1  15
ATOM     15  S   UNL     1      -1.058  -2.207  -1.851  0.00  0.00    -0.076 S 
BRANCH  15  16
ATOM     16  C   UNL     1      -1.385  -3.899  -2.217  0.00  0.00    +0.192 A 
ATOM     17  N   UNL     1      -2.586  -4.245  -2.658  0.00  0.00    -0.227 NA
ATOM     18  C   UNL     1      -2.869  -5.507  -2.943  0.00  0.00    +0.046 A 
ATOM     19  C   UNL     1      -1.893  -6.472  -2.776  0.00  0.00    +0.095 A 
ATOM     20  C   UNL     1      -0.639  -6.078  -2.311  0.00  0.00    +0.274 A 
ATOM     21  O   UNL     1       0.346  -6.991  -2.133  0.00  0.00    -0.266 OA
ATOM     22  N   UNL     1      -0.422  -4.795  -2.049  0.00  0.00    -0.183 NA
ATOM     23  C   UNL     1      -4.239  -5.887  -3.443  0.00  0.00    +0.066 C 
ENDBRANCH  15  16
ENDBRANCH   1  15
TORSDOF 6
