REMARK  Name = ZINC59015566
REMARK  8 active torsions:
REMARK  status: ('A' for Active; 'I' for Inactive)
REMARK    1  A    between atoms: C_1  and  O_2
REMARK    2  A    between atoms: O_2  and  C_3
REMARK    3  A    between atoms: C_8  and  N_9
REMARK    4  A    between atoms: C_10  and  C_12
REMARK    5  A    between atoms: C_12  and  S_13
REMARK    6  A    between atoms: S_13  and  C_14
REMARK    7  A    between atoms: N_19  and  N_20
REMARK    8  A    between atoms: C_21  and  C_22
REMARK                            x       y       z     vdW  Elec       q    Type
REMARK                         _______ _______ _______ _____ _____    ______ ____
ROOT
ATOM      1  C   UNL     1       2.320  -7.476   0.400  0.00  0.00    +0.211 A 
ATOM      2  N   UNL     1       2.524  -8.794   0.496  0.00  0.00    -0.186 NA
ATOM      3  C   UNL     1       3.816  -9.039   0.555  0.00  0.00    +0.232 A 
ATOM      4  N   UNL     1       4.468  -7.858   0.497  0.00  0.00    -0.245 N 
ATOM      5  N   UNL     1       3.481  -6.864   0.392  0.00  0.00    -0.144 NA
ATOM      6  N   UNL     1       4.403 -10.287   0.659  0.00  0.00    -0.205 N 
ATOM      7  H   UNL     1       5.369 -10.367   0.696  0.00  0.00    +0.177 HD
ATOM      8  H   UNL     1       5.428  -7.723   0.519  0.00  0.00    +0.192 HD
ENDROOT
BRANCH   6   9
ATOM      9  N   UNL     1       3.602 -11.435   0.709  0.00  0.00    -0.188 NA
ATOM     10  C   UNL     1       4.153 -12.607   0.807  0.00  0.00    +0.138 C 
BRANCH  10  11
ATOM     11  C   UNL     1       3.310 -13.816   0.860  0.00  0.00    -0.005 A 
ATOM     12  C   UNL     1       1.919 -13.704   0.800  0.00  0.00    +0.010 A 
ATOM     13  C   UNL     1       1.136 -14.839   0.850  0.00  0.00    +0.016 A 
ATOM     14  C   UNL     1       1.727 -16.086   0.959  0.00  0.00    +0.018 A 
ATOM     15  C   UNL     1       3.105 -16.204   1.019  0.00  0.00    +0.016 A 
ATOM     16  C   UNL     1       3.900 -15.078   0.965  0.00  0.00    +0.010 A 
ATOM     17 BR   UNL     1       0.646 -17.637   1.028  0.00  0.00    -0.050 Br
ENDBRANCH  10  11
ENDBRANCH   6   9
BRANCH   1  18
ATOM     18  S   UNL     1       0.748  -6.688   0.294  0.00  0.00    -0.075 S 
BRANCH  18  19
ATOM     19  C   UNL     1       1.148  -4.922   0.180  0.00  0.00    +0.173 C 
BRANCH  19  21
ATOM     20  N   UNL     1      -0.073  -2.780  -0.012  0.00  0.00    -0.282 N 
ATOM     21  C   UNL     1      -0.126  -4.123   0.083  0.00  0.00    +0.228 C 
ATOM     22  O   UNL     1      -1.199  -4.689   0.090  0.00  0.00    -0.275 OA
ATOM     23  H   UNL     1       0.783  -2.333  -0.099  0.00  0.00    +0.155 HD
BRANCH  20  29
ATOM     24  C   UNL     1      -1.295  -0.766  -0.572  0.00  0.00    +0.141 A 
ATOM     25  C   UNL     1      -2.468  -0.030  -0.548  0.00  0.00    +0.049 A 
ATOM     26  C   UNL     1      -3.596  -0.546   0.061  0.00  0.00    +0.024 A 
ATOM     27  C   UNL     1      -3.558  -1.798   0.649  0.00  0.00    +0.043 A 
ATOM     28  C   UNL     1      -2.390  -2.539   0.629  0.00  0.00    +0.047 A 
ATOM     29  C   UNL     1      -1.256  -2.029   0.014  0.00  0.00    +0.077 A 
ATOM     30 CL   UNL     1      -4.978  -2.441   1.413  0.00  0.00    -0.083 Cl
BRANCH  24  32
ATOM     31  C   UNL     1      -0.297   1.042  -1.753  0.00  0.00    +0.277 C 
ATOM     32  O   UNL     1      -0.184  -0.259  -1.172  0.00  0.00    -0.493 OA
ENDBRANCH  24  32
ENDBRANCH  20  29
ENDBRANCH  19  21
ENDBRANCH  18  19
ENDBRANCH   1  18
TORSDOF 7
