REMARK  Name = ZINC21129267
REMARK  7 active torsions:
REMARK  status: ('A' for Active; 'I' for Inactive)
REMARK    1  A    between atoms: C_1  and  C_2
REMARK    2  A    between atoms: C_2  and  C_4
REMARK    3  A    between atoms: C_2  and  S_14
REMARK    4  A    between atoms: N_6  and  C_7
REMARK    5  A    between atoms: S_14  and  C_15
REMARK    6  A    between atoms: C_18  and  C_21
REMARK    7  A    between atoms: N_19  and  N_20
REMARK                            x       y       z     vdW  Elec       q    Type
REMARK                         _______ _______ _______ _____ _____    ______ ____
ROOT
ATOM      1  C   UNL     1       2.467   0.724  -1.200  0.00  0.00    +0.209 A 
ATOM      2  N   UNL     1       1.825  -0.101  -1.997  0.00  0.00    -0.121 NA
ATOM      3  N   UNL     1       2.634  -0.593  -2.867  0.00  0.00    -0.127 NA
ATOM      4  C   UNL     1       3.841  -0.111  -2.680  0.00  0.00    +0.183 A 
ATOM      5  N   UNL     1       3.770   0.750  -1.609  0.00  0.00    -0.224 N 
ENDROOT
BRANCH   4   6
ATOM      6  C   UNL     1       5.047  -0.431  -3.472  0.00  0.00    +0.040 A 
ATOM      7  C   UNL     1       6.245  -0.745  -2.829  0.00  0.00    +0.033 A 
ATOM      8  C   UNL     1       7.368  -1.042  -3.575  0.00  0.00    +0.042 A 
ATOM      9  C   UNL     1       7.307  -1.030  -4.958  0.00  0.00    +0.021 A 
ATOM     10  C   UNL     1       6.123  -0.720  -5.602  0.00  0.00    +0.022 A 
ATOM     11  C   UNL     1       4.991  -0.426  -4.867  0.00  0.00    +0.052 A 
ATOM     12 CL   UNL     1       3.503  -0.045  -5.677  0.00  0.00    -0.083 Cl
ATOM     13 CL   UNL     1       8.860  -1.432  -2.777  0.00  0.00    -0.084 Cl
ENDBRANCH   4   6
BRANCH   5  14
ATOM     14  N   UNL     1       4.790   1.479  -1.068  0.00  0.00    -0.295 N 
ATOM     15  H   UNL     1       5.802   1.410  -1.494  0.00  0.00    +0.163 HD
ATOM     16  H   UNL     1       4.601   2.134  -0.205  0.00  0.00    +0.163 HD
ENDBRANCH   5  14
BRANCH   1  17
ATOM     17  S   UNL     1       1.774   1.633   0.141  0.00  0.00    -0.072 S 
BRANCH  17  19
ATOM     18  C   UNL     1      -0.559   1.564  -1.278  0.00  0.00    +0.029 C 
ATOM     19  C   UNL     1       0.053   1.081   0.038  0.00  0.00    +0.137 C 
BRANCH  19  20
ATOM     20  C   UNL     1      -0.727   1.651   1.194  0.00  0.00    +0.230 C 
ATOM     21  O   UNL     1      -0.355   2.673   1.732  0.00  0.00    -0.274 OA
ATOM     22  N   UNL     1      -1.838   1.026   1.631  0.00  0.00    -0.285 N 
ATOM     23  H   UNL     1      -2.129   0.056   1.201  0.00  0.00    +0.155 HD
BRANCH  22  24
ATOM     24  C   UNL     1      -2.622   1.610   2.633  0.00  0.00    +0.034 A 
ATOM     25  C   UNL     1      -3.295   0.809   3.546  0.00  0.00    +0.025 A 
ATOM     26  C   UNL     1      -4.064   1.388   4.536  0.00  0.00    +0.022 A 
ATOM     27  C   UNL     1      -4.173   2.765   4.613  0.00  0.00    +0.041 A 
ATOM     28  C   UNL     1      -3.507   3.566   3.701  0.00  0.00    +0.022 A 
ATOM     29  C   UNL     1      -2.732   2.992   2.712  0.00  0.00    +0.025 A 
ATOM     30 CL   UNL     1      -5.145   3.490   5.855  0.00  0.00    -0.084 Cl
ENDBRANCH  22  24
ENDBRANCH  19  20
ENDBRANCH  17  19
ENDBRANCH   1  17
TORSDOF 6
