REMARK  Name = ZINC12409338
REMARK  5 active torsions:
REMARK  status: ('A' for Active; 'I' for Inactive)
REMARK    1  A    between atoms: C_1  and  O_2
REMARK    2  A    between atoms: O_2  and  C_3
REMARK    3  A    between atoms: C_6  and  C_9
REMARK    4  A    between atoms: C_14  and  C_23
REMARK    5  A    between atoms: C_27  and  O_29
REMARK                            x       y       z     vdW  Elec       q    Type
REMARK                         _______ _______ _______ _____ _____    ______ ____
ROOT
ATOM      1  C   UNL     1       3.833   3.359   0.652  0.00  0.00    +0.032 C 
ATOM      2  C   UNL     1       3.585   2.926  -0.792  0.00  0.00    +0.059 C 
ATOM      3  C   UNL     1       2.115   2.588  -0.982  0.00  0.00    +0.019 C 
ATOM      4  C   UNL     1       1.414   1.998  -0.005  0.00  0.00    +0.037 C 
ATOM      5  C   UNL     1      -0.018   1.503   0.010  0.00  0.00    +0.137 C 
ATOM      6  N   UNL     1      -0.844   1.954  -1.096  0.00  0.00    -0.313 N 
ATOM      7  C   UNL     1      -0.463   1.645  -2.400  0.00  0.00    +0.205 A 
ATOM      8  C   UNL     1       0.809   2.090  -2.951  0.00  0.00    +0.208 A 
ATOM      9  N   UNL     1       0.954   1.589  -4.135  0.00  0.00    -0.032 NA
ATOM     10  O   UNL     1      -0.223   0.849  -4.427  0.00  0.00    -0.239 OA
ATOM     11  N   UNL     1      -1.075   0.931  -3.292  0.00  0.00    -0.032 NA
ATOM     12  N   UNL     1       1.628   2.931  -2.209  0.00  0.00    -0.297 N 
ATOM     13  C   UNL     1       2.045   1.772   1.251  0.00  0.00    +0.163 C 
ATOM     14  O   UNL     1       1.406   1.222   2.126  0.00  0.00    -0.292 OA
ATOM     15  C   UNL     1       3.452   2.178   1.551  0.00  0.00    +0.088 C 
ATOM     16  H   UNL     1      -1.651   2.464  -0.929  0.00  0.00    +0.149 HD
ATOM     17  H   UNL     1       1.863   3.797  -2.579  0.00  0.00    +0.153 HD
ENDROOT
BRANCH   1  21
ATOM     18  C   UNL     1       7.959   4.330   1.194  0.00  0.00    +0.120 A 
ATOM     19  C   UNL     1       6.984   5.290   1.420  0.00  0.00    +0.046 A 
ATOM     20  C   UNL     1       5.651   4.974   1.244  0.00  0.00    +0.007 A 
ATOM     21  C   UNL     1       5.288   3.702   0.843  0.00  0.00    -0.043 A 
ATOM     22  C   UNL     1       6.258   2.741   0.622  0.00  0.00    +0.007 A 
ATOM     23  C   UNL     1       7.593   3.054   0.791  0.00  0.00    +0.046 A 
BRANCH  18  25
ATOM     24  C   UNL     1      10.220   3.600   1.114  0.00  0.00    +0.277 C 
ATOM     25  O   UNL     1       9.271   4.639   1.365  0.00  0.00    -0.495 OA
ENDBRANCH  18  25
ENDBRANCH   1  21
BRANCH   5  26
ATOM     26  C   UNL     1       0.002  -0.004   0.002  0.00  0.00    -0.019 A 
ATOM     27  C   UNL     1      -0.479  -0.708   1.091  0.00  0.00    +0.006 A 
ATOM     28  C   UNL     1      -0.467  -2.090   1.084  0.00  0.00    +0.004 A 
ATOM     29  C   UNL     1       0.037  -2.772  -0.007  0.00  0.00    +0.045 A 
ATOM     30  C   UNL     1       0.525  -2.069  -1.098  0.00  0.00    +0.117 A 
ATOM     31  C   UNL     1       0.507  -0.681  -1.091  0.00  0.00    +0.051 A 
BRANCH  30  32
ATOM     32  O   UNL     1       1.022  -2.737  -2.172  0.00  0.00    -0.507 OA
ATOM     33  H   UNL     1       1.969  -2.922  -2.117  0.00  0.00    +0.292 HD
ENDBRANCH  30  32
ENDBRANCH   5  26
TORSDOF 4
