REMARK  Name = ZINC09183268
REMARK  9 active torsions:
REMARK  status: ('A' for Active; 'I' for Inactive)
REMARK    1  A    between atoms: C_1  and  C_2
REMARK    2  A    between atoms: C_5  and  C_37
REMARK    3  A    between atoms: N_8  and  S_10
REMARK    4  A    between atoms: S_10  and  C_13
REMARK    5  A    between atoms: C_16  and  C_19
REMARK    6  A    between atoms: C_19  and  O_21
REMARK    7  A    between atoms: O_21  and  C_22
REMARK    8  A    between atoms: C_22  and  C_24
REMARK    9  A    between atoms: C_22  and  C_25
REMARK                            x       y       z     vdW  Elec       q    Type
REMARK                         _______ _______ _______ _____ _____    ______ ____
ROOT
ATOM      1  C   UNL     1       1.826  -2.114   5.832  0.00  0.00    +0.106 A 
ATOM      2  C   UNL     1       0.462  -1.882   5.815  0.00  0.00    +0.029 A 
ATOM      3  C   UNL     1      -0.148  -1.424   4.666  0.00  0.00    +0.017 A 
ATOM      4  C   UNL     1       0.614  -1.195   3.518  0.00  0.00    +0.059 A 
ATOM      5  C   UNL     1       1.988  -1.436   3.541  0.00  0.00    +0.017 A 
ATOM      6  C   UNL     1       2.587  -1.889   4.699  0.00  0.00    +0.029 A 
ENDROOT
BRANCH   1   7
ATOM      7  S   UNL     1       2.598  -2.698   7.304  0.00  0.00    +0.061 S 
ATOM      8  O   UNL     1       3.964  -2.317   7.226  0.00  0.00    -0.153 OA
ATOM      9  O   UNL     1       1.759  -2.310   8.384  0.00  0.00    -0.153 OA
BRANCH   7  15
ATOM     10  C   UNL     1       0.295  -5.226   5.590  0.00  0.00    +0.009 C 
ATOM     11  C   UNL     1       0.880  -6.045   6.743  0.00  0.00    +0.002 C 
ATOM     12  C   UNL     1       2.014  -6.929   6.219  0.00  0.00    +0.009 C 
ATOM     13  C   UNL     1       3.094  -6.051   5.580  0.00  0.00    +0.002 C 
ATOM     14  C   UNL     1       3.668  -5.105   6.638  0.00  0.00    +0.112 C 
ATOM     15  N   UNL     1       2.564  -4.353   7.251  0.00  0.00    -0.176 NA
ATOM     16  C   UNL     1       1.433  -5.098   7.820  0.00  0.00    +0.112 C 
ATOM     17  C   UNL     1       4.211  -6.938   5.027  0.00  0.00    +0.009 C 
ENDBRANCH   7  15
ENDBRANCH   1   7
BRANCH   4  18
ATOM     18  C   UNL     1      -0.034  -0.705   2.284  0.00  0.00    +0.340 C 
ATOM     19  O   UNL     1      -1.231  -0.501   2.265  0.00  0.00    -0.245 OA
BRANCH  18  20
ATOM     20  O   UNL     1       0.704  -0.485   1.178  0.00  0.00    -0.450 OA
BRANCH  20  21
ATOM     21  C   UNL     1       0.002  -0.004   0.002  0.00  0.00    +0.239 C 
ATOM     22  C   UNL     1      -0.019   1.526   0.010  0.00  0.00    +0.060 C 
BRANCH  21  23
ATOM     23  C   UNL     1       0.707  -0.490  -1.238  0.00  0.00    +0.151 A 
ATOM     24  N   UNL     1       0.565  -1.794  -1.591  0.00  0.00    -0.307 N 
ATOM     25  H   UNL     1       0.019  -2.383  -1.046  0.00  0.00    +0.170 HD
ATOM     26  C   UNL     1       1.177  -2.280  -2.696  0.00  0.00    +0.259 A 
ATOM     27  O   UNL     1       1.058  -3.446  -3.024  0.00  0.00    -0.267 OA
ATOM     28  C   UNL     1       1.992  -1.343  -3.485  0.00  0.00    +0.065 A 
ATOM     29  C   UNL     1       2.663  -1.742  -4.639  0.00  0.00    +0.015 A 
ATOM     30  C   UNL     1       3.412  -0.823  -5.340  0.00  0.00    +0.001 A 
ATOM     31  C   UNL     1       3.503   0.493  -4.906  0.00  0.00    +0.002 A 
ATOM     32  C   UNL     1       2.848   0.907  -3.768  0.00  0.00    +0.028 A 
ATOM     33  C   UNL     1       2.082  -0.006  -3.040  0.00  0.00    +0.078 A 
ATOM     34  N   UNL     1       1.416   0.360  -1.917  0.00  0.00    -0.230 NA
ENDBRANCH  21  23
ENDBRANCH  20  21
ENDBRANCH  18  20
ENDBRANCH   4  18
TORSDOF 6
