REMARK  Name = ZINC35929687
REMARK  6 active torsions:
REMARK  status: ('A' for Active; 'I' for Inactive)
REMARK    1  A    between atoms: C_1  and  C_2
REMARK    2  A    between atoms: C_2  and  N_3
REMARK    3  A    between atoms: N_3  and  C_4
REMARK    4  A    between atoms: C_7  and  C_21
REMARK    5  A    between atoms: C_9  and  N_20
REMARK    6  A    between atoms: N_10  and  C_14
REMARK                            x       y       z     vdW  Elec       q    Type
REMARK                         _______ _______ _______ _____ _____    ______ ____
ROOT
ATOM      1  N   UNL     1       0.626  -0.456   1.189  0.00  0.00    -0.303 N 
ATOM      2  C   UNL     1      -0.112  -0.613   2.445  0.00  0.00    +0.132 C 
ATOM      3  C   UNL     1       1.940  -0.879   1.101  0.00  0.00    +0.220 A 
ATOM      4  N   UNL     1       2.496  -1.429   2.177  0.00  0.00    -0.213 NA
ATOM      5  C   UNL     1       3.750  -1.862   2.179  0.00  0.00    +0.090 A 
ATOM      6  C   UNL     1       4.507  -1.729   0.993  0.00  0.00    +0.086 A 
ATOM      7  C   UNL     1       5.801  -2.044   0.598  0.00  0.00    +0.131 A 
ATOM      8  N   UNL     1       5.936  -1.663  -0.688  0.00  0.00    -0.216 N 
ATOM      9  N   UNL     1       4.739  -1.099  -1.145  0.00  0.00    -0.144 NA
ATOM     10  C   UNL     1       3.851  -1.115  -0.176  0.00  0.00    +0.189 A 
ATOM     11  N   UNL     1       2.570  -0.722  -0.045  0.00  0.00    -0.193 NA
ENDROOT
BRANCH   5  12
ATOM     12  C   UNL     1       4.341  -2.469   3.393  0.00  0.00    +0.020 A 
ATOM     13  C   UNL     1       5.475  -1.904   3.978  0.00  0.00    +0.011 A 
ATOM     14  C   UNL     1       6.021  -2.474   5.109  0.00  0.00    +0.001 A 
ATOM     15  C   UNL     1       5.448  -3.604   5.664  0.00  0.00    +0.001 A 
ATOM     16  C   UNL     1       4.325  -4.171   5.090  0.00  0.00    +0.020 A 
ATOM     17  C   UNL     1       3.764  -3.607   3.961  0.00  0.00    +0.050 A 
ATOM     18 CL   UNL     1       2.350  -4.314   3.245  0.00  0.00    -0.083 Cl
ENDBRANCH   5  12
BRANCH   8  19
ATOM     19  C   UNL     1       7.099  -1.810  -1.452  0.00  0.00    +0.067 A 
ATOM     20  C   UNL     1       8.346  -1.679  -0.854  0.00  0.00    +0.028 A 
ATOM     21  C   UNL     1       9.492  -1.824  -1.611  0.00  0.00    +0.002 A 
ATOM     22  C   UNL     1       9.400  -2.100  -2.963  0.00  0.00    +0.000 A 
ATOM     23  C   UNL     1       8.160  -2.230  -3.562  0.00  0.00    +0.002 A 
ATOM     24  C   UNL     1       7.010  -2.092  -2.809  0.00  0.00    +0.028 A 
ENDBRANCH   8  19
BRANCH   7  25
ATOM     25  N   UNL     1       6.773  -2.639   1.380  0.00  0.00    -0.342 N 
ATOM     26  H   UNL     1       6.614  -2.781   2.326  0.00  0.00    +0.144 HD
ATOM     27  H   UNL     1       7.614  -2.914   0.983  0.00  0.00    +0.144 HD
ENDBRANCH   7  25
BRANCH   1  29
ATOM     28  C   UNL     1       0.193   1.663   0.048  0.00  0.00    +0.024 C 
ATOM     29  C   UNL     1      -0.028   0.150   0.026  0.00  0.00    +0.104 C 
ENDBRANCH   1  29
TORSDOF 4
