REMARK  Name = ZINC09173179
REMARK  8 active torsions:
REMARK  status: ('A' for Active; 'I' for Inactive)
REMARK    1  A    between atoms: C_1  and  C_2
REMARK    2  A    between atoms: C_2  and  C_3
REMARK    3  A    between atoms: C_2  and  C_4
REMARK    4  A    between atoms: C_4  and  N_5
REMARK    5  A    between atoms: C_6  and  N_26
REMARK    6  A    between atoms: C_7  and  C_14
REMARK    7  A    between atoms: N_10  and  C_13
REMARK    8  A    between atoms: C_17  and  C_19
REMARK                            x       y       z     vdW  Elec       q    Type
REMARK                         _______ _______ _______ _____ _____    ______ ____
ROOT
ATOM      1  N   UNL     1      -1.259   3.446   0.066  0.00  0.00    -0.281 N 
ATOM      2  C   UNL     1      -0.113   4.201   0.064  0.00  0.00    +0.115 A 
ATOM      3  C   UNL     1       1.118   3.561   0.015  0.00  0.00    +0.103 A 
ATOM      4  C   UNL     1       1.148   2.148  -0.033  0.00  0.00    +0.267 A 
ATOM      5  O   UNL     1       2.212   1.557  -0.078  0.00  0.00    -0.267 OA
ATOM      6  N   UNL     1      -0.012   1.462  -0.029  0.00  0.00    -0.263 N 
ATOM      7  C   UNL     1      -1.192   2.103   0.015  0.00  0.00    +0.333 A 
ATOM      8  O   UNL     1      -2.222   1.456   0.012  0.00  0.00    -0.246 OA
ATOM      9  C   UNL     1       0.015  -0.002  -0.078  0.00  0.00    +0.157 C 
ENDROOT
BRANCH   3  10
ATOM     10  C   UNL     1       2.378   4.345   0.011  0.00  0.00    +0.087 A 
ATOM     11  C   UNL     1       3.588   3.708   0.110  0.00  0.00    +0.075 A 
ATOM     12  S   UNL     1       4.703   5.105   0.054  0.00  0.00    -0.075 S 
ATOM     13  C   UNL     1       3.457   6.379  -0.084  0.00  0.00    +0.109 A 
ATOM     14  N   UNL     1       2.344   5.660  -0.080  0.00  0.00    -0.239 NA
BRANCH  13  15
ATOM     15  C   UNL     1       3.623   7.845  -0.178  0.00  0.00    +0.007 A 
ATOM     16  C   UNL     1       2.504   8.672  -0.287  0.00  0.00    +0.011 A 
ATOM     17  C   UNL     1       2.666  10.039  -0.369  0.00  0.00    +0.016 A 
ATOM     18  C   UNL     1       3.936  10.591  -0.355  0.00  0.00    +0.018 A 
ATOM     19  C   UNL     1       5.050   9.775  -0.253  0.00  0.00    +0.016 A 
ATOM     20  C   UNL     1       4.901   8.407  -0.165  0.00  0.00    +0.011 A 
ATOM     21 BR   UNL     1       4.149  12.466  -0.475  0.00  0.00    -0.050 Br
ENDBRANCH  13  15
ENDBRANCH   3  10
BRANCH   2  22
ATOM     22  N   UNL     1      -0.183   5.569   0.111  0.00  0.00    -0.344 N 
ATOM     23  H   UNL     1      -0.977   6.025  -0.208  0.00  0.00    +0.144 HD
ATOM     24  H   UNL     1       0.562   6.081   0.463  0.00  0.00    +0.144 HD
ENDBRANCH   2  22
BRANCH   1  25
ATOM     25  C   UNL     1      -2.565   4.107   0.119  0.00  0.00    +0.131 C 
BRANCH  25  27
ATOM     26  C   UNL     1      -3.300   3.059  -2.027  0.00  0.00    +0.009 C 
ATOM     27  C   UNL     1      -3.054   4.385  -1.304  0.00  0.00    +0.003 C 
ATOM     28  C   UNL     1      -4.356   5.185  -1.249  0.00  0.00    +0.009 C 
ENDBRANCH  25  27
ENDBRANCH   1  25
TORSDOF 5
