REMARK  Name = ZINC18229990
REMARK  8 active torsions:
REMARK  status: ('A' for Active; 'I' for Inactive)
REMARK    1  A    between atoms: C_1  and  C_2
REMARK    2  A    between atoms: C_2  and  C_4
REMARK    3  A    between atoms: C_2  and  O_28
REMARK    4  A    between atoms: C_9  and  C_13
REMARK    5  A    between atoms: C_13  and  C_14
REMARK    6  A    between atoms: C_21  and  C_24
REMARK    7  A    between atoms: C_24  and  C_26
REMARK    8  A    between atoms: C_24  and  O_27
REMARK                            x       y       z     vdW  Elec       q    Type
REMARK                         _______ _______ _______ _____ _____    ______ ____
ROOT
ATOM      1  C   UNL     1       2.489  -3.173   6.260  0.00  0.00    +0.070 C 
ENDROOT
BRANCH   1   7
ATOM      2  C   UNL     1       0.731  -0.503   1.223  0.00  0.00    +0.137 A 
ATOM      3  N   UNL     1       1.937  -0.156   1.565  0.00  0.00    -0.230 NA
ATOM      4  C   UNL     1       2.287  -0.790   2.714  0.00  0.00    +0.089 A 
ATOM      5  C   UNL     1       3.438  -0.784   3.506  0.00  0.00    +0.030 A 
ATOM      6  C   UNL     1       3.490  -1.550   4.636  0.00  0.00    +0.006 A 
ATOM      7  C   UNL     1       2.409  -2.336   5.009  0.00  0.00    -0.041 A 
ATOM      8  C   UNL     1       1.263  -2.357   4.243  0.00  0.00    +0.031 A 
ATOM      9  C   UNL     1       1.192  -1.585   3.091  0.00  0.00    +0.067 A 
ATOM     10  N   UNL     1       0.221  -1.378   2.131  0.00  0.00    -0.340 N 
ATOM     11  H   UNL     1      -0.660  -1.783   2.108  0.00  0.00    +0.167 HD
BRANCH   2  13
ATOM     12  C   UNL     1      -0.019   1.526   0.010  0.00  0.00    +0.046 C 
ATOM     13  C   UNL     1       0.002  -0.004   0.002  0.00  0.00    +0.177 C 
BRANCH  13  14
ATOM     14  O   UNL     1       0.671  -0.465  -1.174  0.00  0.00    -0.384 OA
ATOM     15  H   UNL     1       1.588  -0.167  -1.247  0.00  0.00    +0.210 HD
ENDBRANCH  13  14
ENDBRANCH   2  13
ENDBRANCH   1   7
BRANCH   1  16
ATOM     16  C   UNL     1       1.990  -2.371   7.434  0.00  0.00    -0.041 A 
ATOM     17  C   UNL     1       2.881  -1.597   8.165  0.00  0.00    +0.006 A 
ATOM     18  C   UNL     1       2.442  -0.856   9.242  0.00  0.00    +0.028 A 
ATOM     19  C   UNL     1       1.100  -0.886   9.596  0.00  0.00    +0.066 A 
ATOM     20  C   UNL     1       0.199  -1.670   8.856  0.00  0.00    +0.089 A 
ATOM     21  C   UNL     1       0.665  -2.408   7.765  0.00  0.00    +0.033 A 
ATOM     22  N   UNL     1      -1.024  -1.507   9.422  0.00  0.00    -0.230 NA
ATOM     23  C   UNL     1      -0.933  -0.696  10.435  0.00  0.00    +0.137 A 
ATOM     24  N   UNL     1       0.354  -0.282  10.588  0.00  0.00    -0.340 N 
ATOM     25  H   UNL     1       0.686   0.324  11.269  0.00  0.00    +0.167 HD
BRANCH  23  26
ATOM     26  C   UNL     1      -2.085  -0.275  11.311  0.00  0.00    +0.177 C 
ATOM     27  C   UNL     1      -3.197   0.316  10.441  0.00  0.00    +0.046 C 
BRANCH  26  28
ATOM     28  O   UNL     1      -1.638   0.709  12.246  0.00  0.00    -0.384 OA
ATOM     29  H   UNL     1      -2.329   1.026  12.843  0.00  0.00    +0.210 HD
ENDBRANCH  26  28
ENDBRANCH  23  26
ENDBRANCH   1  16
TORSDOF 6
