REMARK  Name = ZINC38488440
REMARK  3 active torsions:
REMARK  status: ('A' for Active; 'I' for Inactive)
REMARK    1  A    between atoms: C_4  and  C_7
REMARK    2  A    between atoms: C_7  and  N_8
REMARK    3  A    between atoms: C_17  and  C_23
REMARK                            x       y       z     vdW  Elec       q    Type
REMARK                         _______ _______ _______ _____ _____    ______ ____
ROOT
ATOM      1  N   UNL     1       4.152  -0.952   1.338  0.00  0.00    -0.277 N 
ATOM      2  C   UNL     1       4.934  -0.025   1.981  0.00  0.00    +0.121 A 
ATOM      3  C   UNL     1       5.334  -0.274   3.263  0.00  0.00    +0.083 A 
ATOM      4  C   UNL     1       4.946  -1.458   3.900  0.00  0.00    +0.261 A 
ATOM      5  O   UNL     1       5.297  -1.688   5.044  0.00  0.00    -0.267 OA
ATOM      6  N   UNL     1       4.176  -2.342   3.229  0.00  0.00    -0.275 N 
ATOM      7  H   UNL     1       3.901  -3.167   3.660  0.00  0.00    +0.173 HD
ATOM      8  C   UNL     1       3.784  -2.083   1.968  0.00  0.00    +0.331 A 
ATOM      9  O   UNL     1       3.087  -2.890   1.384  0.00  0.00    -0.246 OA
ATOM     10  C   UNL     1       6.194   0.753   3.960  0.00  0.00    +0.179 C 
ATOM     11  N   UNL     1       6.538   1.961   3.188  0.00  0.00    -0.285 N 
ATOM     12  C   UNL     1       6.073   2.073   1.929  0.00  0.00    +0.306 C 
ATOM     13  O   UNL     1       6.355   3.068   1.290  0.00  0.00    -0.252 OA
ATOM     14  N   UNL     1       5.312   1.134   1.351  0.00  0.00    -0.255 N 
ATOM     15  H   UNL     1       7.087   2.659   3.578  0.00  0.00    +0.151 HD
ATOM     16  H   UNL     1       5.012   1.281   0.441  0.00  0.00    +0.158 HD
ENDROOT
BRANCH  10  17
ATOM     17  C   UNL     1       5.476   1.190   5.212  0.00  0.00    +0.130 A 
ATOM     18  C   UNL     1       5.735   0.756   6.458  0.00  0.00    +0.047 A 
ATOM     19  C   UNL     1       4.832   1.422   7.319  0.00  0.00    +0.041 A 
ATOM     20  C   UNL     1       4.076   2.222   6.547  0.00  0.00    +0.195 A 
ATOM     21  O   UNL     1       4.474   2.082   5.272  0.00  0.00    -0.466 OA
ENDBRANCH  10  17
BRANCH   1  22
ATOM     22  C   UNL     1       3.711  -0.707  -0.038  0.00  0.00    +0.163 C 
BRANCH  22  26
ATOM     23  C   UNL     1      -0.017   1.378   0.010  0.00  0.00    +0.000 A 
ATOM     24  C   UNL     1       1.171   2.086   0.002  0.00  0.00    +0.000 A 
ATOM     25  C   UNL     1       2.377   1.411  -0.013  0.00  0.00    +0.005 A 
ATOM     26  C   UNL     1       2.396   0.029  -0.020  0.00  0.00    -0.028 A 
ATOM     27  C   UNL     1       1.208  -0.679  -0.012  0.00  0.00    +0.005 A 
ATOM     28  C   UNL     1       0.002  -0.004   0.002  0.00  0.00    +0.000 A 
ENDBRANCH  22  26
ENDBRANCH   1  22
TORSDOF 3
