REMARK  Name = ZINC08694201
REMARK  15 active torsions:
REMARK  status: ('A' for Active; 'I' for Inactive)
REMARK    1  A    between atoms: C_1  and  C_2
REMARK    2  A    between atoms: C_2  and  C_3
REMARK    3  A    between atoms: C_2  and  C_4
REMARK    4  A    between atoms: C_14  and  C_34
REMARK    5  A    between atoms: C_18  and  C_19
REMARK    6  A    between atoms: C_18  and  C_20
REMARK    7  A    between atoms: C_20  and  N_76
REMARK    8  A    between atoms: C_21  and  C_22
REMARK    9  A    between atoms: C_21  and  N_76
REMARK   10  A    between atoms: C_24  and  O_32
REMARK   11  A    between atoms: C_25  and  O_30
REMARK   12  A    between atoms: C_26  and  O_28
REMARK   13  A    between atoms: O_28  and  C_29
REMARK   14  A    between atoms: O_30  and  C_31
REMARK   15  A    between atoms: O_32  and  C_33
REMARK                            x       y       z     vdW  Elec       q    Type
REMARK                         _______ _______ _______ _____ _____    ______ ____
ROOT
ATOM      1  C   UNL     1       6.572   2.702   1.101  0.00  0.00    -0.045 A 
ATOM      2  C   UNL     1       5.529   3.519   0.707  0.00  0.00    +0.004 A 
ATOM      3  C   UNL     1       4.228   3.079   0.842  0.00  0.00    +0.005 A 
ATOM      4  C   UNL     1       3.962   1.824   1.363  0.00  0.00    -0.038 A 
ATOM      5  C   UNL     1       4.995   1.011   1.774  0.00  0.00    -0.043 A 
ATOM      6  C   UNL     1       6.306   1.458   1.633  0.00  0.00    +0.007 A 
ATOM      7  C   UNL     1       4.796  -0.350   2.384  0.00  0.00    +0.036 C 
ATOM      8  C   UNL     1       3.326  -0.624   2.709  0.00  0.00    +0.009 C 
ATOM      9  C   UNL     1       2.487  -0.134   1.531  0.00  0.00    +0.004 C 
ATOM     10  C   UNL     1       2.519   1.382   1.484  0.00  0.00    -0.004 C 
ATOM     11  C   UNL     1       1.708   1.899   0.300  0.00  0.00    +0.011 C 
ATOM     12  C   UNL     1       0.275   1.373   0.396  0.00  0.00    +0.001 C 
ATOM     13  C   UNL     1       0.268  -0.148   0.346  0.00  0.00    +0.005 C 
ATOM     14  C   UNL     1       1.116  -0.766   1.460  0.00  0.00    -0.044 C 
ATOM     15  C   UNL     1       0.366  -0.700   2.790  0.00  0.00    +0.009 C 
ATOM     16  C   UNL     1       1.976   2.014   2.766  0.00  0.00    +0.016 C 
ENDROOT
BRANCH   1  18
ATOM     17  C   UNL     1       8.289   3.454  -0.522  0.00  0.00    +0.012 C 
ATOM     18  C   UNL     1       7.997   3.170   0.953  0.00  0.00    +0.013 C 
ATOM     19  C   UNL     1       8.202   4.448   1.769  0.00  0.00    +0.012 C 
ENDBRANCH   1  18
BRANCH  14  20
ATOM     20  C   UNL     1       1.290  -2.263   1.105  0.00  0.00    -0.075 C 
BRANCH  20  21
ATOM     21  N   UNL     1      -0.039  -2.901   1.035  0.00  0.00    +0.382 N 
ATOM     22  H   UNL     1      -0.601  -2.434   0.314  0.00  0.00    -0.085 HD
ATOM     23  H   UNL     1      -0.506  -2.810   1.945  0.00  0.00    -0.085 HD
BRANCH  21  24
ATOM     24  C   UNL     1       0.096  -4.330   0.698  0.00  0.00    -0.047 C 
BRANCH  24  25
ATOM     25  C   UNL     1      -1.274  -4.954   0.634  0.00  0.00    -0.057 A 
ATOM     26  C   UNL     1      -1.831  -5.513   1.769  0.00  0.00    +0.051 A 
ATOM     27  C   UNL     1      -3.094  -6.083   1.715  0.00  0.00    +0.165 A 
ATOM     28  C   UNL     1      -3.795  -6.102   0.516  0.00  0.00    +0.204 A 
ATOM     29  C   UNL     1      -3.229  -5.544  -0.625  0.00  0.00    +0.165 A 
ATOM     30  C   UNL     1      -1.968  -4.971  -0.561  0.00  0.00    +0.051 A 
BRANCH  29  31
ATOM     31  O   UNL     1      -3.912  -5.560  -1.801  0.00  0.00    -0.491 OA
ATOM     32  C   UNL     1      -3.269  -4.969  -2.932  0.00  0.00    +0.277 C 
ENDBRANCH  29  31
BRANCH  28  33
ATOM     33  O   UNL     1      -5.033  -6.665   0.458  0.00  0.00    -0.488 OA
ATOM     34  C   UNL     1      -5.097  -8.057   0.141  0.00  0.00    +0.277 C 
ENDBRANCH  28  33
BRANCH  27  35
ATOM     35  O   UNL     1      -3.643  -6.628   2.834  0.00  0.00    -0.491 OA
ATOM     36  C   UNL     1      -2.865  -6.573   4.031  0.00  0.00    +0.277 C 
ENDBRANCH  27  35
ENDBRANCH  24  25
ENDBRANCH  21  24
ENDBRANCH  20  21
ENDBRANCH  14  20
TORSDOF 8
