REMARK  Name = ZINC66133187
REMARK  9 active torsions:
REMARK  status: ('A' for Active; 'I' for Inactive)
REMARK    1  A    between atoms: C_4  and  C_7
REMARK    2  A    between atoms: C_7  and  C_8
REMARK    3  A    between atoms: C_8  and  N_9
REMARK    4  A    between atoms: C_10  and  C_21
REMARK    5  A    between atoms: C_30  and  O_31
REMARK    6  A    between atoms: O_31  and  C_32
REMARK    7  A    between atoms: C_32  and  C_33
REMARK    8  A    between atoms: C_33  and  O_34
REMARK    9  A    between atoms: O_34  and  C_35
REMARK                            x       y       z     vdW  Elec       q    Type
REMARK                         _______ _______ _______ _____ _____    ______ ____
ROOT
ATOM      1  N   UNL     1       4.636  -1.735   1.384  0.00  0.00    -0.275 N 
ATOM      2  C   UNL     1       5.367  -3.002   1.413  0.00  0.00    +0.197 C 
ATOM      3  N   UNL     1       6.713  -2.825   0.854  0.00  0.00    -0.321 N 
ATOM      4  C   UNL     1       7.450  -1.710   1.236  0.00  0.00    +0.041 A 
ATOM      5  C   UNL     1       8.833  -1.727   1.287  0.00  0.00    +0.024 A 
ATOM      6  C   UNL     1       9.517  -0.591   1.677  0.00  0.00    +0.002 A 
ATOM      7  C   UNL     1       8.830   0.564   2.016  0.00  0.00    +0.001 A 
ATOM      8  C   UNL     1       7.451   0.598   1.969  0.00  0.00    +0.015 A 
ATOM      9  C   UNL     1       6.749  -0.539   1.576  0.00  0.00    +0.058 A 
ATOM     10  C   UNL     1       5.278  -0.554   1.494  0.00  0.00    +0.250 C 
ATOM     11  O   UNL     1       4.649   0.486   1.530  0.00  0.00    -0.270 OA
ATOM     12  H   UNL     1       7.080  -3.472   0.231  0.00  0.00    +0.148 HD
ENDROOT
BRANCH   2  13
ATOM     13  C   UNL     1       5.482  -3.478   2.838  0.00  0.00    +0.040 A 
ATOM     14  C   UNL     1       6.093  -4.711   3.124  0.00  0.00    -0.008 A 
ATOM     15  C   UNL     1       6.608  -5.524   2.099  0.00  0.00    +0.009 A 
ATOM     16  C   UNL     1       7.194  -6.711   2.412  0.00  0.00    +0.001 A 
ATOM     17  C   UNL     1       7.291  -7.137   3.736  0.00  0.00    +0.001 A 
ATOM     18  C   UNL     1       6.803  -6.376   4.754  0.00  0.00    +0.008 A 
ATOM     19  C   UNL     1       6.191  -5.143   4.470  0.00  0.00    -0.017 A 
ATOM     20  C   UNL     1       5.677  -4.331   5.496  0.00  0.00    +0.012 A 
ATOM     21  C   UNL     1       5.091  -3.144   5.187  0.00  0.00    +0.046 A 
ATOM     22  C   UNL     1       4.997  -2.712   3.860  0.00  0.00    +0.128 A 
BRANCH  22  23
ATOM     23  O   UNL     1       4.412  -1.518   3.583  0.00  0.00    -0.488 OA
BRANCH  23  24
ATOM     24  C   UNL     1       4.032  -0.708   4.697  0.00  0.00    +0.270 C 
BRANCH  24  25
ATOM     25  C   UNL     1       3.276   0.525   4.197  0.00  0.00    +0.270 C 
BRANCH  25  26
ATOM     26  O   UNL     1       2.034   0.119   3.617  0.00  0.00    -0.489 OA
BRANCH  26  27
ATOM     27  C   UNL     1       1.274   1.090   3.047  0.00  0.00    +0.121 A 
ATOM     28  C   UNL     1       1.763   2.384   2.940  0.00  0.00    +0.045 A 
ATOM     29  C   UNL     1       0.988   3.368   2.359  0.00  0.00    +0.004 A 
ATOM     30  C   UNL     1      -0.275   3.066   1.884  0.00  0.00    +0.000 A 
ATOM     31  C   UNL     1      -0.765   1.777   1.990  0.00  0.00    +0.004 A 
ATOM     32  C   UNL     1       0.008   0.787   2.564  0.00  0.00    +0.045 A 
ENDBRANCH  26  27
ENDBRANCH  25  26
ENDBRANCH  24  25
ENDBRANCH  23  24
ENDBRANCH  22  23
ENDBRANCH   2  13
BRANCH   1  33
ATOM     33  C   UNL     1       3.179  -1.750   1.225  0.00  0.00    +0.115 C 
BRANCH  33  34
ATOM     34  C   UNL     1       2.829  -1.849  -0.261  0.00  0.00    +0.054 C 
BRANCH  34  38
ATOM     35  C   UNL     1      -1.405  -1.561  -0.751  0.00  0.00    +0.000 A 
ATOM     36  C   UNL     1      -0.638  -0.413  -0.677  0.00  0.00    +0.000 A 
ATOM     37  C   UNL     1       0.732  -0.506  -0.518  0.00  0.00    +0.004 A 
ATOM     38  C   UNL     1       1.335  -1.747  -0.433  0.00  0.00    -0.046 A 
ATOM     39  C   UNL     1       0.569  -2.895  -0.506  0.00  0.00    +0.004 A 
ATOM     40  C   UNL     1      -0.801  -2.802  -0.666  0.00  0.00    +0.000 A 
ENDBRANCH  34  38
ENDBRANCH  33  34
ENDBRANCH   1  33
TORSDOF 9
