REMARK  Name = ZINC39364816
REMARK  7 active torsions:
REMARK  status: ('A' for Active; 'I' for Inactive)
REMARK    1  A    between atoms: C_4  and  C_31
REMARK    2  A    between atoms: C_5  and  C_7
REMARK    3  A    between atoms: C_7  and  N_8
REMARK    4  A    between atoms: C_14  and  C_16
REMARK    5  A    between atoms: C_16  and  C_17
REMARK    6  A    between atoms: N_19  and  C_20
REMARK    7  A    between atoms: C_20  and  C_21
REMARK                            x       y       z     vdW  Elec       q    Type
REMARK                         _______ _______ _______ _____ _____    ______ ____
ROOT
ATOM      1  N   UNL     1       1.366  -2.490   0.877  0.00  0.00    +0.391 N 
ATOM      2  C   UNL     1       0.111  -2.218   1.595  0.00  0.00    -0.058 C 
ATOM      3  C   UNL     1       0.355  -2.387   3.096  0.00  0.00    +0.085 C 
ATOM      4  N   UNL     1       0.997  -3.673   3.354  0.00  0.00    -0.318 N 
ATOM      5  C   UNL     1       1.607  -4.379   2.395  0.00  0.00    +0.200 C 
ATOM      6  O   UNL     1       2.138  -5.428   2.694  0.00  0.00    -0.278 OA
ATOM      7  C   UNL     1       1.662  -3.926   0.964  0.00  0.00    +0.028 C 
ATOM      8  H   UNL     1       0.981  -4.029   4.256  0.00  0.00    +0.149 HD
ATOM      9  H   UNL     1       2.118  -1.964   1.296  0.00  0.00    -0.080 HD
ENDROOT
BRANCH   1  10
ATOM     10  C   UNL     1       1.221  -2.103  -0.532  0.00  0.00    -0.041 C 
BRANCH  10  15
ATOM     11  C   UNL     1      -0.499   1.246  -0.812  0.00  0.00    +0.000 A 
ATOM     12  C   UNL     1       0.578   2.112  -0.793  0.00  0.00    +0.001 A 
ATOM     13  C   UNL     1       1.863   1.614  -0.690  0.00  0.00    +0.012 A 
ATOM     14  C   UNL     1       2.071   0.250  -0.605  0.00  0.00    +0.056 A 
ATOM     15  C   UNL     1       0.994  -0.616  -0.624  0.00  0.00    -0.052 A 
ATOM     16  C   UNL     1      -0.291  -0.118  -0.728  0.00  0.00    +0.002 A 
BRANCH  14  17
ATOM     17  C   UNL     1       3.473  -0.293  -0.494  0.00  0.00    +0.418 C 
ATOM     18  F   UNL     1       4.390   0.755  -0.625  0.00  0.00    -0.166 F 
ATOM     19  F   UNL     1       3.638  -0.904   0.754  0.00  0.00    -0.166 F 
ATOM     20  F   UNL     1       3.690  -1.233  -1.506  0.00  0.00    -0.166 F 
ENDBRANCH  14  17
ENDBRANCH  10  15
ENDBRANCH   1  10
BRANCH   7  21
ATOM     21  C   UNL     1       3.060  -4.191   0.401  0.00  0.00    +0.089 C 
BRANCH  21  22
ATOM     22  C   UNL     1       4.089  -3.524   1.277  0.00  0.00    +0.212 C 
ATOM     23  O   UNL     1       3.750  -2.988   2.311  0.00  0.00    -0.276 OA
ATOM     24  N   UNL     1       5.386  -3.523   0.912  0.00  0.00    -0.311 N 
ATOM     25  H   UNL     1       5.657  -3.952   0.085  0.00  0.00    +0.149 HD
BRANCH  24  26
ATOM     26  C   UNL     1       6.387  -2.875   1.764  0.00  0.00    +0.139 C 
BRANCH  26  27
ATOM     27  C   UNL     1       7.749  -3.015   1.134  0.00  0.00    -0.025 C 
ATOM     28  C   UNL     1       8.295  -2.041   0.344  0.00  0.00    +0.005 C 
ATOM     29  C   UNL     1       9.643  -2.205  -0.192  0.00  0.00    -0.002 C 
ATOM     30  C   UNL     1      10.276  -3.384  -0.219  0.00  0.00    +0.004 C 
ATOM     31  C   UNL     1       9.559  -4.605   0.271  0.00  0.00    +0.158 C 
ATOM     32  C   UNL     1       8.553  -4.154   1.321  0.00  0.00    -0.013 C 
ATOM     33  C   UNL     1       8.685  -5.024   2.335  0.00  0.00    +0.025 C 
ATOM     34  C   UNL     1       9.843  -5.807   2.131  0.00  0.00    +0.106 C 
ATOM     35  N   UNL     1      10.392  -5.578   0.963  0.00  0.00    -0.279 NA
ENDBRANCH  26  27
ENDBRANCH  24  26
ENDBRANCH  21  22
ENDBRANCH   7  21
TORSDOF 7
