REMARK  Name = ZINC14158604
REMARK  8 active torsions:
REMARK  status: ('A' for Active; 'I' for Inactive)
REMARK    1  A    between atoms: C_1  and  C_2
REMARK    2  A    between atoms: C_4  and  C_29
REMARK    3  A    between atoms: N_10  and  C_11
REMARK    4  A    between atoms: N_13  and  C_14
REMARK    5  A    between atoms: N_24  and  C_25
REMARK    6  A    between atoms: C_25  and  C_26
REMARK    7  A    between atoms: C_26  and  O_27
REMARK    8  A    between atoms: O_27  and  C_28
REMARK                            x       y       z     vdW  Elec       q    Type
REMARK                         _______ _______ _______ _____ _____    ______ ____
ROOT
ATOM      1  C   UNL     1     -12.281   4.701   2.866  0.00  0.00    +0.066 C 
ATOM      2  C   UNL     1     -11.012   4.742   2.053  0.00  0.00    +0.044 A 
ATOM      3  C   UNL     1     -10.601   5.923   1.454  0.00  0.00    +0.046 A 
ATOM      4  C   UNL     1      -9.429   5.917   0.715  0.00  0.00    +0.044 A 
ATOM      5  N   UNL     1      -8.741   4.792   0.605  0.00  0.00    -0.217 NA
ATOM      6  C   UNL     1      -9.162   3.682   1.190  0.00  0.00    +0.231 A 
ATOM      7  N   UNL     1     -10.281   3.651   1.898  0.00  0.00    -0.217 NA
ATOM      8  N   UNL     1      -8.415   2.519   1.053  0.00  0.00    -0.297 N 
ATOM      9  C   UNL     1      -9.023   1.358   0.658  0.00  0.00    +0.198 C 
ATOM     10  N   UNL     1      -8.637   0.202   1.172  0.00  0.00    -0.130 NA
ATOM     11  N   UNL     1     -10.026   1.394  -0.265  0.00  0.00    -0.355 N 
ATOM     12  C   UNL     1      -8.942   7.177   0.046  0.00  0.00    +0.066 C 
ATOM     13  H   UNL     1      -7.335   2.531   1.262  0.00  0.00    +0.171 HD
ATOM     14  H   UNL     1     -10.071   0.632  -1.058  0.00  0.00    +0.162 HD
ENDROOT
BRANCH  10  15
ATOM     15  C   UNL     1      -7.757   0.178   2.184  0.00  0.00    +0.327 C 
ATOM     16  O   UNL     1      -7.395   1.220   2.700  0.00  0.00    -0.251 OA
ATOM     17  N   UNL     1      -7.275  -0.999   2.629  0.00  0.00    -0.292 N 
ATOM     18  H   UNL     1      -7.553  -1.934   2.123  0.00  0.00    +0.151 HD
BRANCH  17  19
ATOM     19  C   UNL     1      -6.379  -1.031   3.788  0.00  0.00    +0.037 C 
ATOM     20  C   UNL     1      -6.037  -2.483   4.128  0.00  0.00    +0.029 C 
ATOM     21  C   UNL     1      -5.102  -2.518   5.338  0.00  0.00    -0.008 C 
ATOM     22  C   UNL     1      -5.794  -1.863   6.536  0.00  0.00    +0.007 C 
ATOM     23  C   UNL     1      -6.135  -0.411   6.196  0.00  0.00    -0.008 C 
ATOM     24  C   UNL     1      -7.071  -0.377   4.986  0.00  0.00    +0.029 C 
ATOM     25  C   UNL     1      -4.850   0.352   5.870  0.00  0.00    +0.007 C 
ATOM     26  C   UNL     1      -4.159  -0.302   4.672  0.00  0.00    -0.008 C 
ATOM     27  C   UNL     1      -3.817  -1.754   5.012  0.00  0.00    +0.007 C 
ATOM     28  C   UNL     1      -5.094  -0.268   3.462  0.00  0.00    +0.029 C 
ENDBRANCH  17  19
ENDBRANCH  10  15
BRANCH  11  29
ATOM     29  C   UNL     1     -11.044   2.445  -0.201  0.00  0.00    +0.143 C 
BRANCH  29  30
ATOM     30  C   UNL     1     -11.918   2.385  -1.455  0.00  0.00    +0.180 C 
BRANCH  30  31
ATOM     31  O   UNL     1     -12.594   1.127  -1.505  0.00  0.00    -0.381 OA
ATOM     32  C   UNL     1     -13.442   0.968  -2.644  0.00  0.00    +0.194 C 
ENDBRANCH  30  31
ENDBRANCH  29  30
ENDBRANCH  11  29
TORSDOF 5
