REMARK  Name = ZINC05706028
REMARK  7 active torsions:
REMARK  status: ('A' for Active; 'I' for Inactive)
REMARK    1  A    between atoms: C_1  and  C_2
REMARK    2  A    between atoms: C_7  and  C_8
REMARK    3  A    between atoms: C_7  and  C_9
REMARK    4  A    between atoms: N_12  and  N_13
REMARK    5  A    between atoms: C_16  and  C_19
REMARK    6  A    between atoms: C_22  and  O_26
REMARK    7  A    between atoms: C_23  and  O_25
REMARK                            x       y       z     vdW  Elec       q    Type
REMARK                         _______ _______ _______ _____ _____    ______ ____
ROOT
ATOM      1  N   UNL     1       1.686  -0.866  -3.288  0.00  0.00    -0.215 N 
ATOM      2  C   UNL     1       1.990  -0.288  -4.510  0.00  0.00    +0.178 A 
ATOM      3  N   UNL     1       2.608  -0.813  -5.553  0.00  0.00    -0.224 NA
ATOM      4  C   UNL     1       2.817  -0.108  -6.654  0.00  0.00    +0.080 A 
ATOM      5  C   UNL     1       2.386   1.188  -6.714  0.00  0.00    +0.077 A 
ATOM      6  S   UNL     1       1.643   1.365  -5.097  0.00  0.00    -0.059 S 
ATOM      7  H   UNL     1       1.941  -1.784  -3.109  0.00  0.00    +0.176 HD
ENDROOT
BRANCH   1  18
ATOM      8  C   UNL     1      -0.019   1.526   0.010  0.00  0.00    +0.018 C 
ATOM      9  C   UNL     1       0.002  -0.004   0.002  0.00  0.00    +0.013 C 
ATOM     10  C   UNL     1      -1.390  -0.703   0.064  0.00  0.00    +0.013 C 
ATOM     11  C   UNL     1      -1.085  -2.137   0.556  0.00  0.00    +0.005 C 
ATOM     12  C   UNL     1       0.465  -2.165   0.735  0.00  0.00    +0.001 C 
ATOM     13  C   UNL     1       0.727  -0.692   1.212  0.00  0.00    -0.021 C 
ATOM     14  C   UNL     1       0.040  -0.388   2.544  0.00  0.00    +0.012 C 
ATOM     15  C   UNL     1       2.220  -0.359   1.253  0.00  0.00    +0.012 C 
ATOM     16  C   UNL     1       1.022  -2.111  -0.721  0.00  0.00    +0.057 C 
ATOM     17  C   UNL     1       0.731  -0.657  -1.181  0.00  0.00    +0.044 C 
ATOM     18  N   UNL     1       1.011  -0.123  -2.310  0.00  0.00    -0.189 NA
ENDBRANCH   1  18
BRANCH   4  19
ATOM     19  C   UNL     1       3.514  -0.718  -7.813  0.00  0.00    +0.005 A 
ATOM     20  C   UNL     1       3.737   0.030  -8.967  0.00  0.00    +0.014 A 
ATOM     21  C   UNL     1       4.385  -0.539 -10.045  0.00  0.00    +0.050 A 
ATOM     22  C   UNL     1       4.817  -1.855  -9.982  0.00  0.00    +0.158 A 
ATOM     23  C   UNL     1       4.597  -2.607  -8.831  0.00  0.00    +0.159 A 
ATOM     24  C   UNL     1       3.952  -2.040  -7.747  0.00  0.00    +0.059 A 
BRANCH  23  25
ATOM     25  O   UNL     1       5.020  -3.898  -8.772  0.00  0.00    -0.503 OA
ATOM     26  H   UNL     1       5.919  -4.002  -8.430  0.00  0.00    +0.292 HD
ENDBRANCH  23  25
BRANCH  22  27
ATOM     27  O   UNL     1       5.455  -2.412 -11.046  0.00  0.00    -0.503 OA
ATOM     28  H   UNL     1       6.416  -2.303 -11.029  0.00  0.00    +0.292 HD
ENDBRANCH  22  27
ENDBRANCH   4  19
TORSDOF 4
