REMARK  Name = ZINC02915226
REMARK  5 active torsions:
REMARK  status: ('A' for Active; 'I' for Inactive)
REMARK    1  A    between atoms: C_1  and  C_2
REMARK    2  A    between atoms: C_5  and  C_8
REMARK    3  A    between atoms: C_25  and  C_27
REMARK    4  A    between atoms: C_31  and  O_33
REMARK    5  A    between atoms: O_33  and  C_34
REMARK                            x       y       z     vdW  Elec       q    Type
REMARK                         _______ _______ _______ _____ _____    ______ ____
ROOT
ATOM      1  C   UNL     1       0.059  -4.275  -0.021  0.00  0.00    +0.234 C 
ATOM      2  C   UNL     1       1.463  -4.755   0.204  0.00  0.00    +0.027 C 
ATOM      3  C   UNL     1       1.920  -4.981   1.453  0.00  0.00    +0.083 C 
ATOM      4  C   UNL     1       0.980  -4.748   2.578  0.00  0.00    +0.042 A 
ATOM      5  C   UNL     1       1.428  -4.634   3.887  0.00  0.00    +0.013 A 
ATOM      6  C   UNL     1       0.517  -4.415   4.904  0.00  0.00    +0.001 A 
ATOM      7  C   UNL     1      -0.833  -4.311   4.619  0.00  0.00    +0.004 A 
ATOM      8  C   UNL     1      -1.287  -4.425   3.318  0.00  0.00    +0.046 A 
ATOM      9  C   UNL     1      -0.387  -4.644   2.290  0.00  0.00    +0.131 A 
ATOM     10  O   UNL     1      -0.803  -4.765   1.008  0.00  0.00    -0.479 OA
ATOM     11  N   UNL     1       3.187  -5.407   1.678  0.00  0.00    -0.213 NA
ATOM     12  C   UNL     1       4.068  -5.643   0.734  0.00  0.00    +0.237 C 
ATOM     13  N   UNL     1       5.350  -6.067   0.781  0.00  0.00    -0.205 NA
ATOM     14  C   UNL     1       5.841  -6.163  -0.424  0.00  0.00    +0.203 C 
ATOM     15  N   UNL     1       4.892  -5.801  -1.331  0.00  0.00    -0.251 N 
ATOM     16  N   UNL     1       3.752  -5.465  -0.599  0.00  0.00    -0.208 N 
ATOM     17  C   UNL     1       2.406  -4.999  -0.953  0.00  0.00    +0.159 C 
ATOM     18  H   UNL     1       4.989  -5.781  -2.296  0.00  0.00    +0.171 HD
ENDROOT
BRANCH   1  23
ATOM     19  C   UNL     1      -0.018   1.503   0.010  0.00  0.00    +0.044 C 
ATOM     20  C   UNL     1       0.002  -0.004   0.002  0.00  0.00    -0.050 A 
ATOM     21  C   UNL     1       0.006  -0.689  -1.199  0.00  0.00    +0.004 A 
ATOM     22  C   UNL     1       0.025  -2.071  -1.206  0.00  0.00    +0.008 A 
ATOM     23  C   UNL     1       0.040  -2.768  -0.013  0.00  0.00    -0.003 A 
ATOM     24  C   UNL     1       0.037  -2.084   1.188  0.00  0.00    +0.008 A 
ATOM     25  C   UNL     1       0.023  -0.702   1.195  0.00  0.00    +0.004 A 
ENDBRANCH   1  23
BRANCH  17  26
ATOM     26  C   UNL     1       1.778  -6.024  -1.863  0.00  0.00    -0.018 A 
ATOM     27  C   UNL     1       1.846  -7.367  -1.541  0.00  0.00    +0.006 A 
ATOM     28  C   UNL     1       1.271  -8.309  -2.373  0.00  0.00    +0.004 A 
ATOM     29  C   UNL     1       0.628  -7.911  -3.530  0.00  0.00    +0.045 A 
ATOM     30  C   UNL     1       0.559  -6.564  -3.854  0.00  0.00    +0.120 A 
ATOM     31  C   UNL     1       1.131  -5.620  -3.014  0.00  0.00    +0.051 A 
BRANCH  30  32
ATOM     32  O   UNL     1      -0.073  -6.170  -4.991  0.00  0.00    -0.495 OA
ATOM     33  C   UNL     1      -0.644  -7.196  -5.805  0.00  0.00    +0.277 C 
ENDBRANCH  30  32
ENDBRANCH  17  26
TORSDOF 3
