REMARK  Name = ZINC17189339
REMARK  11 active torsions:
REMARK  status: ('A' for Active; 'I' for Inactive)
REMARK    1  A    between atoms: C_1  and  C_2
REMARK    2  A    between atoms: C_2  and  C_3
REMARK    3  A    between atoms: C_3  and  C_5
REMARK    4  A    between atoms: C_3  and  C_6
REMARK    5  A    between atoms: C_6  and  C_7
REMARK    6  A    between atoms: C_8  and  C_33
REMARK    7  A    between atoms: C_16  and  S_18
REMARK    8  A    between atoms: S_18  and  C_19
REMARK    9  A    between atoms: C_19  and  C_20
REMARK   10  A    between atoms: N_22  and  C_23
REMARK   11  A    between atoms: N_27  and  C_28
REMARK                            x       y       z     vdW  Elec       q    Type
REMARK                         _______ _______ _______ _____ _____    ______ ____
ROOT
ATOM      1  C   UNL     1       2.651  -0.750  -5.582  0.00  0.00    -0.023 A 
ATOM      2  C   UNL     1       3.667  -1.446  -5.051  0.00  0.00    -0.007 A 
ATOM      3  S   UNL     1       3.416  -1.272  -3.294  0.00  0.00    -0.073 S 
ATOM      4  C   UNL     1       1.953  -0.268  -3.324  0.00  0.00    +0.117 A 
ATOM      5  C   UNL     1       1.700  -0.097  -4.698  0.00  0.00    +0.075 A 
ATOM      6  C   UNL     1       0.552   0.691  -5.027  0.00  0.00    +0.261 A 
ATOM      7  O   UNL     1       0.256   0.894  -6.191  0.00  0.00    -0.267 OA
ATOM      8  N   UNL     1      -0.198   1.202  -4.033  0.00  0.00    -0.301 N 
ATOM      9  H   UNL     1      -0.980   1.733  -4.252  0.00  0.00    +0.171 HD
ATOM     10  C   UNL     1       0.122   0.990  -2.724  0.00  0.00    +0.170 A 
ATOM     11  N   UNL     1       1.173   0.268  -2.392  0.00  0.00    -0.216 NA
ATOM     12  C   UNL     1       4.759  -2.197  -5.768  0.00  0.00    +0.052 C 
ENDROOT
BRANCH   1  13
ATOM     13  C   UNL     1       2.498  -0.645  -7.077  0.00  0.00    +0.040 C 
BRANCH  13  14
ATOM     14  C   UNL     1       1.629  -1.799  -7.582  0.00  0.00    -0.010 C 
ATOM     15  C   UNL     1       2.353  -3.126  -7.341  0.00  0.00    +0.008 C 
BRANCH  14  17
ATOM     16  C   UNL     1       0.402  -2.707  -9.560  0.00  0.00    +0.004 C 
ATOM     17  C   UNL     1       1.370  -1.625  -9.080  0.00  0.00    +0.000 C 
ENDBRANCH  14  17
ENDBRANCH  13  14
ENDBRANCH   1  13
BRANCH  10  18
ATOM     18  S   UNL     1      -0.888   1.685  -1.458  0.00  0.00    -0.078 S 
BRANCH  18  19
ATOM     19  C   UNL     1      -0.013   1.086   0.008  0.00  0.00    +0.173 C 
BRANCH  19  20
ATOM     20  C   UNL     1      -0.718   1.572   1.248  0.00  0.00    +0.229 C 
ATOM     21  O   UNL     1      -1.715   2.256   1.150  0.00  0.00    -0.275 OA
ATOM     22  N   UNL     1      -0.242   1.246   2.466  0.00  0.00    -0.270 N 
ATOM     23  H   UNL     1       0.555   0.699   2.544  0.00  0.00    +0.156 HD
BRANCH  22  24
ATOM     24  C   UNL     1      -0.894   1.696   3.613  0.00  0.00    +0.123 A 
ATOM     25  C   UNL     1      -2.016   2.466   3.651  0.00  0.00    +0.065 A 
ATOM     26  C   UNL     1      -2.338   2.688   4.992  0.00  0.00    +0.136 A 
ATOM     27  N   UNL     1      -1.450   2.078   5.735  0.00  0.00    -0.178 NA
ATOM     28  N   UNL     1      -0.531   1.441   4.891  0.00  0.00    -0.247 N 
BRANCH  28  29
ATOM     29  C   UNL     1       0.621   0.643   5.317  0.00  0.00    +0.109 C 
ATOM     30  C   UNL     1       0.153  -0.529   6.205  0.00  0.00    +0.027 C 
ATOM     31  C   UNL     1       1.263  -0.658   7.279  0.00  0.00    +0.002 C 
ATOM     32  C   UNL     1       1.639   0.818   7.561  0.00  0.00    +0.002 C 
ATOM     33  C   UNL     1       1.566   1.498   6.179  0.00  0.00    +0.027 C 
ENDBRANCH  28  29
ENDBRANCH  22  24
ENDBRANCH  19  20
ENDBRANCH  18  19
ENDBRANCH  10  18
TORSDOF 8
