REMARK  Name = ZINC57573005
REMARK  3 active torsions:
REMARK  status: ('A' for Active; 'I' for Inactive)
REMARK    1  A    between atoms: C_7  and  C_13
REMARK    2  A    between atoms: N_15  and  N_16
REMARK    3  A    between atoms: N_19  and  C_20
REMARK                            x       y       z     vdW  Elec       q    Type
REMARK                         _______ _______ _______ _____ _____    ______ ____
ROOT
ATOM      1  C   UNL     1       0.115  -2.976  -0.013  0.00  0.00    +0.281 C 
ATOM      2  O   UNL     1      -0.983  -2.454   0.000  0.00  0.00    -0.267 OA
ATOM      3  N   UNL     1       0.222  -4.319  -0.021  0.00  0.00    -0.228 N 
ATOM      4  H   UNL     1       1.098  -4.736  -0.032  0.00  0.00    +0.173 HD
ENDROOT
BRANCH   1  11
ATOM      5  C   UNL     1      -0.017   1.375   0.010  0.00  0.00    +0.001 A 
ATOM      6  C   UNL     1       1.167   2.102   0.002  0.00  0.00    +0.001 A 
ATOM      7  C   UNL     1       2.387   1.461  -0.013  0.00  0.00    +0.014 A 
ATOM      8  C   UNL     1       2.428   0.071  -0.021  0.00  0.00    +0.050 A 
ATOM      9  C   UNL     1       1.223  -0.670  -0.013  0.00  0.00    +0.020 A 
ATOM     10  C   UNL     1       0.002  -0.004   0.002  0.00  0.00    +0.011 A 
ATOM     11  C   UNL     1       1.330  -2.138  -0.021  0.00  0.00    +0.155 A 
ATOM     12  N   UNL     1       2.518  -2.692  -0.036  0.00  0.00    -0.166 NA
ATOM     13  N   UNL     1       3.618  -2.039  -0.043  0.00  0.00    -0.242 N 
ATOM     14  H   UNL     1       4.449  -2.539  -0.054  0.00  0.00    +0.192 HD
ATOM     15  C   UNL     1       3.684  -0.692  -0.037  0.00  0.00    +0.272 A 
ATOM     16  O   UNL     1       4.759  -0.121  -0.044  0.00  0.00    -0.266 OA
ENDBRANCH   1  11
BRANCH   3  17
ATOM     17  N   UNL     1      -0.931  -5.114  -0.013  0.00  0.00    -0.218 N 
ATOM     18  C   UNL     1      -0.824  -6.458  -0.021  0.00  0.00    +0.316 C 
ATOM     19  O   UNL     1      -1.825  -7.148  -0.015  0.00  0.00    -0.251 OA
ATOM     20  N   UNL     1       0.393  -7.036  -0.036  0.00  0.00    -0.293 N 
ATOM     21  H   UNL     1      -1.807  -4.698  -0.003  0.00  0.00    +0.174 HD
ATOM     22  H   UNL     1       1.192  -6.486  -0.042  0.00  0.00    +0.151 HD
BRANCH  20  23
ATOM     23  C   UNL     1       0.510  -8.497  -0.045  0.00  0.00    +0.037 C 
ATOM     24  C   UNL     1      -0.155  -9.069   1.208  0.00  0.00    +0.029 C 
ATOM     25  C   UNL     1      -0.033 -10.594   1.200  0.00  0.00    -0.008 C 
ATOM     26  C   UNL     1       1.445 -10.987   1.183  0.00  0.00    +0.007 C 
ATOM     27  C   UNL     1       2.111 -10.415  -0.070  0.00  0.00    -0.008 C 
ATOM     28  C   UNL     1       1.989  -8.890  -0.062  0.00  0.00    +0.029 C 
ATOM     29  C   UNL     1       1.420 -10.975  -1.316  0.00  0.00    +0.007 C 
ATOM     30  C   UNL     1      -0.059 -10.581  -1.299  0.00  0.00    -0.008 C 
ATOM     31  C   UNL     1      -0.724 -11.154  -0.045  0.00  0.00    +0.007 C 
ATOM     32  C   UNL     1      -0.181  -9.056  -1.290  0.00  0.00    +0.029 C 
ENDBRANCH  20  23
ENDBRANCH   3  17
TORSDOF 3
