REMARK  Name = ZINC17143984
REMARK  7 active torsions:
REMARK  status: ('A' for Active; 'I' for Inactive)
REMARK    1  A    between atoms: C_1  and  C_2
REMARK    2  A    between atoms: C_2  and  C_3
REMARK    3  A    between atoms: C_2  and  O_4
REMARK    4  A    between atoms: O_4  and  C_5
REMARK    5  A    between atoms: C_5  and  C_7
REMARK    6  A    between atoms: C_8  and  N_30
REMARK    7  A    between atoms: C_21  and  C_23
REMARK                            x       y       z     vdW  Elec       q    Type
REMARK                         _______ _______ _______ _____ _____    ______ ____
ROOT
ATOM      1  C   UNL     1      -1.177   1.184   3.495  0.00  0.00    +0.105 C 
ATOM      2  C   UNL     1      -1.245   0.325   4.547  0.00  0.00    +0.195 C 
ATOM      3  O   UNL     1      -1.913   0.663   5.656  0.00  0.00    -0.441 OA
ATOM      4  C   UNL     1      -2.066   1.979   6.010  0.00  0.00    +0.146 A 
ATOM      5  C   UNL     1      -2.235   2.168   7.458  0.00  0.00    +0.032 A 
ATOM      6  C   UNL     1      -2.218   1.039   8.298  0.00  0.00    +0.012 A 
ATOM      7  C   UNL     1      -2.374   1.188   9.644  0.00  0.00    +0.001 A 
ATOM      8  C   UNL     1      -2.550   2.439  10.221  0.00  0.00    +0.001 A 
ATOM      9  C   UNL     1      -2.571   3.568   9.423  0.00  0.00    +0.016 A 
ATOM     10  C   UNL     1      -2.414   3.424   8.061  0.00  0.00    +0.026 A 
ATOM     11  S   UNL     1      -2.425   4.809   6.951  0.00  0.00    -0.047 S 
ATOM     12  C   UNL     1      -2.200   4.315   5.253  0.00  0.00    +0.225 A 
ATOM     13  O   UNL     1      -2.178   5.122   4.338  0.00  0.00    -0.280 OA
ATOM     14  C   UNL     1      -2.047   2.917   5.038  0.00  0.00    +0.061 A 
ATOM     15  C   UNL     1      -1.844   2.525   3.590  0.00  0.00    +0.099 C 
ENDROOT
BRANCH  15  16
ATOM     16  C   UNL     1      -3.184   2.465   2.902  0.00  0.00    -0.032 A 
ATOM     17  C   UNL     1      -4.146   1.573   3.340  0.00  0.00    +0.005 A 
ATOM     18  C   UNL     1      -5.377   1.520   2.714  0.00  0.00    +0.003 A 
ATOM     19  C   UNL     1      -5.644   2.352   1.642  0.00  0.00    +0.038 A 
ATOM     20  C   UNL     1      -4.680   3.241   1.200  0.00  0.00    +0.124 A 
ATOM     21  C   UNL     1      -3.449   3.297   1.831  0.00  0.00    +0.043 A 
ATOM     22  F   UNL     1      -4.940   4.054   0.152  0.00  0.00    -0.205 F 
ENDBRANCH  15  16
BRANCH   2  23
ATOM     23  N   UNL     1      -0.626  -0.894   4.472  0.00  0.00    -0.329 N 
ATOM     24  H   UNL     1       0.186  -0.994   3.952  0.00  0.00    +0.145 HD
ATOM     25  H   UNL     1      -1.001  -1.658   4.938  0.00  0.00    +0.145 HD
ENDBRANCH   2  23
BRANCH   1  26
ATOM     26  C   UNL     1      -0.483   0.821   2.330  0.00  0.00    +0.341 C 
ATOM     27  O   UNL     1      -0.035  -0.306   2.215  0.00  0.00    -0.245 OA
BRANCH  26  28
ATOM     28  O   UNL     1      -0.312   1.721   1.338  0.00  0.00    -0.459 OA
BRANCH  28  30
ATOM     29  C   UNL     1       1.897   1.557   0.372  0.00  0.00    +0.052 C 
ATOM     30  C   UNL     1       0.404   1.283   0.181  0.00  0.00    +0.171 C 
ATOM     31  C   UNL     1      -0.101   2.041  -1.048  0.00  0.00    +0.052 C 
ENDBRANCH  28  30
ENDBRANCH  26  28
ENDBRANCH   1  26
TORSDOF 5
