REMARK  Name = ZINC38508744
REMARK  12 active torsions:
REMARK  status: ('A' for Active; 'I' for Inactive)
REMARK    1  A    between atoms: C_1  and  C_2
REMARK    2  A    between atoms: C_2  and  C_3
REMARK    3  A    between atoms: C_2  and  N_4
REMARK    4  A    between atoms: C_7  and  C_9
REMARK    5  A    between atoms: N_11  and  C_12
REMARK    6  A    between atoms: C_13  and  C_25
REMARK    7  A    between atoms: C_17  and  C_23
REMARK    8  A    between atoms: C_17  and  C_24
REMARK    9  A    between atoms: C_19  and  C_21
REMARK   10  A    between atoms: C_19  and  C_22
REMARK   11  A    between atoms: C_25  and  O_27
REMARK   12  A    between atoms: O_27  and  C_28
REMARK                            x       y       z     vdW  Elec       q    Type
REMARK                         _______ _______ _______ _____ _____    ______ ____
ROOT
ATOM      1  C   UNL     1      -5.077  -2.220  -3.782  0.00  0.00    +0.087 A 
ATOM      2  C   UNL     1      -5.026  -2.325  -5.168  0.00  0.00    +0.091 A 
ATOM      3  C   UNL     1      -6.213  -2.819  -5.830  0.00  0.00    -0.024 A 
ATOM      4  C   UNL     1      -7.240  -3.118  -5.000  0.00  0.00    -0.016 A 
ATOM      5  S   UNL     1      -6.619  -2.755  -3.385  0.00  0.00    -0.079 S 
ATOM      6  C   UNL     1      -8.583  -3.627  -5.402  0.00  0.00    -0.041 C 
ATOM      7  N   UNL     1      -8.639  -3.995  -6.816  0.00  0.00    +0.389 N 
ATOM      8  C   UNL     1      -7.364  -4.224  -7.482  0.00  0.00    -0.069 C 
ATOM      9  C   UNL     1      -6.407  -3.035  -7.322  0.00  0.00    +0.024 C 
ATOM     10  C   UNL     1      -6.689  -5.494  -6.958  0.00  0.00    -0.010 C 
ATOM     11  C   UNL     1      -7.630  -4.416  -8.987  0.00  0.00    -0.010 C 
ATOM     12  C   UNL     1      -8.956  -4.832  -4.527  0.00  0.00    -0.005 C 
ATOM     13  C   UNL     1      -9.619  -2.516  -5.141  0.00  0.00    -0.005 C 
ATOM     14  H   UNL     1      -9.208  -4.838  -6.909  0.00  0.00    -0.084 HD
ATOM     15  H   UNL     1      -9.143  -3.266  -7.322  0.00  0.00    -0.084 HD
ENDROOT
BRANCH   1  18
ATOM     16  C   UNL     1      -4.302  -1.738  -1.599  0.00  0.00    +0.269 C 
ATOM     17  O   UNL     1      -5.375  -2.095  -1.150  0.00  0.00    -0.268 OA
ATOM     18  N   UNL     1      -4.082  -1.776  -2.928  0.00  0.00    -0.274 N 
ATOM     19  H   UNL     1      -3.227  -1.492  -3.286  0.00  0.00    +0.156 HD
BRANCH  16  23
ATOM     20  N   UNL     1      -1.372  -0.511   0.012  0.00  0.00    -0.268 N 
ATOM     21  C   UNL     1      -2.122  -0.689   1.122  0.00  0.00    +0.109 A 
ATOM     22  C   UNL     1      -3.322  -1.169   0.722  0.00  0.00    +0.054 A 
ATOM     23  C   UNL     1      -3.241  -1.265  -0.688  0.00  0.00    +0.147 A 
ATOM     24  N   UNL     1      -2.040  -0.846  -1.033  0.00  0.00    -0.166 NA
BRANCH  20  26
ATOM     25  C   UNL     1      -0.019   1.526   0.010  0.00  0.00    +0.032 C 
ATOM     26  C   UNL     1       0.002  -0.004   0.002  0.00  0.00    +0.101 C 
ATOM     27  C   UNL     1       0.742  -0.511   1.242  0.00  0.00    +0.032 C 
ENDBRANCH  20  26
ENDBRANCH  16  23
ENDBRANCH   1  18
BRANCH   2  28
ATOM     28  C   UNL     1      -3.822  -1.949  -5.911  0.00  0.00    +0.342 C 
ATOM     29  O   UNL     1      -2.959  -2.777  -6.132  0.00  0.00    -0.245 OA
BRANCH  28  30
ATOM     30  O   UNL     1      -3.669  -0.683  -6.350  0.00  0.00    -0.464 OA
ATOM     31  C   UNL     1      -2.470  -0.385  -7.068  0.00  0.00    +0.280 C 
ENDBRANCH  28  30
ENDBRANCH   2  28
TORSDOF 5
