REMARK  Name = ZINC59110007
REMARK  16 active torsions:
REMARK  status: ('A' for Active; 'I' for Inactive)
REMARK    1  A    between atoms: C_1  and  C_2
REMARK    2  A    between atoms: C_6  and  N_9
REMARK    3  A    between atoms: C_7  and  C_8
REMARK    4  A    between atoms: N_9  and  C_10
REMARK    5  A    between atoms: C_10  and  N_12
REMARK    6  A    between atoms: N_12  and  C_13
REMARK    7  A    between atoms: C_13  and  C_14
REMARK    8  A    between atoms: C_14  and  C_35
REMARK    9  A    between atoms: C_16  and  N_23
REMARK   10  A    between atoms: C_19  and  C_21
REMARK   11  A    between atoms: C_19  and  C_22
REMARK   12  A    between atoms: N_23  and  C_24
REMARK   13  A    between atoms: C_24  and  N_26
REMARK   14  A    between atoms: N_26  and  C_27
REMARK   15  A    between atoms: C_31  and  C_34
REMARK   16  A    between atoms: C_32  and  C_33
REMARK                            x       y       z     vdW  Elec       q    Type
REMARK                         _______ _______ _______ _____ _____    ______ ____
ROOT
ATOM      1  C   UNL     1      -0.189  -6.148   4.952  0.00  0.00    -0.014 C 
ATOM      2  C   UNL     1      -1.500  -5.728   5.606  0.00  0.00    +0.030 C 
ATOM      3  C   UNL     1      -1.649  -6.371   6.983  0.00  0.00    +0.073 C 
ATOM      4  C   UNL     1      -1.674  -7.889   6.818  0.00  0.00    +0.028 C 
ATOM      5  C   UNL     1      -0.371  -8.389   6.206  0.00  0.00    -0.033 C 
ATOM      6  C   UNL     1      -0.005  -7.654   4.929  0.00  0.00    +0.014 C 
ATOM      7  C   UNL     1      -0.560  -9.882   5.858  0.00  0.00    +0.011 C 
ATOM      8  C   UNL     1       0.759  -8.301   7.236  0.00  0.00    +0.011 C 
ATOM      9  C   UNL     1       0.988  -5.459   5.647  0.00  0.00    +0.013 C 
ENDROOT
BRANCH   3  10
ATOM     10  N   UNL     1      -2.916  -5.932   7.584  0.00  0.00    -0.323 N 
ATOM     11  H   UNL     1      -3.649  -5.646   7.016  0.00  0.00    +0.148 HD
BRANCH  10  12
ATOM     12  C   UNL     1      -3.060  -5.928   8.924  0.00  0.00    +0.135 C 
ATOM     13  S   UNL     1      -1.768  -6.433   9.926  0.00  0.00    -0.019 S 
BRANCH  12  14
ATOM     14  N   UNL     1      -4.222  -5.525   9.475  0.00  0.00    -0.297 N 
ATOM     15  H   UNL     1      -4.978  -5.306   8.908  0.00  0.00    +0.154 HD
BRANCH  14  16
ATOM     16  C   UNL     1      -4.339  -5.423  10.865  0.00  0.00    +0.036 A 
ATOM     17  C   UNL     1      -3.862  -6.442  11.680  0.00  0.00    +0.023 A 
ATOM     18  C   UNL     1      -3.978  -6.338  13.052  0.00  0.00    +0.002 A 
ATOM     19  C   UNL     1      -4.569  -5.221  13.615  0.00  0.00    +0.004 A 
ATOM     20  C   UNL     1      -5.044  -4.205  12.807  0.00  0.00    -0.046 A 
ATOM     21  C   UNL     1      -4.926  -4.300  11.434  0.00  0.00    -0.026 A 
ATOM     22  C   UNL     1      -5.439  -3.190  10.554  0.00  0.00    +0.046 C 
ATOM     23  C   UNL     1      -5.686  -2.990  13.425  0.00  0.00    +0.044 C 
ENDBRANCH  14  16
ENDBRANCH  12  14
ENDBRANCH  10  12
ENDBRANCH   3  10
BRANCH   1  24
ATOM     24  C   UNL     1      -0.215  -5.650   3.490  0.00  0.00    +0.110 C 
BRANCH  24  25
ATOM     25  N   UNL     1      -0.391  -4.196   3.473  0.00  0.00    -0.326 N 
ATOM     26  H   UNL     1      -0.471  -3.707   4.307  0.00  0.00    +0.148 HD
BRANCH  25  27
ATOM     27  C   UNL     1      -0.444  -3.537   2.298  0.00  0.00    +0.135 C 
ATOM     28  S   UNL     1      -0.304  -4.399   0.826  0.00  0.00    -0.019 S 
BRANCH  27  29
ATOM     29  N   UNL     1      -0.606  -2.199   2.283  0.00  0.00    -0.297 N 
ATOM     30  H   UNL     1      -0.637  -1.704   3.116  0.00  0.00    +0.154 HD
BRANCH  29  36
ATOM     31  C   UNL     1       0.380   1.736  -0.495  0.00  0.00    +0.044 C 
ATOM     32  C   UNL     1      -0.263   0.385  -0.310  0.00  0.00    -0.046 A 
ATOM     33  C   UNL     1      -0.977  -0.188  -1.347  0.00  0.00    +0.004 A 
ATOM     34  C   UNL     1      -1.567  -1.427  -1.181  0.00  0.00    +0.002 A 
ATOM     35  C   UNL     1      -1.446  -2.096   0.021  0.00  0.00    +0.023 A 
ATOM     36  C   UNL     1      -0.731  -1.524   1.064  0.00  0.00    +0.036 A 
ATOM     37  C   UNL     1      -0.133  -0.281   0.892  0.00  0.00    -0.026 A 
ATOM     38  C   UNL     1       0.650   0.341   2.019  0.00  0.00    +0.046 C 
ENDBRANCH  29  36
ENDBRANCH  27  29
ENDBRANCH  25  27
ENDBRANCH  24  25
ENDBRANCH   1  24
TORSDOF 9
