REMARK  Name = ZINC13052592
REMARK  13 active torsions:
REMARK  status: ('A' for Active; 'I' for Inactive)
REMARK    1  A    between atoms: C_1  and  C_2
REMARK    2  A    between atoms: C_2  and  C_4
REMARK    3  A    between atoms: C_2  and  O_34
REMARK    4  A    between atoms: C_4  and  N_5
REMARK    5  A    between atoms: C_11  and  C_31
REMARK    6  A    between atoms: C_15  and  S_16
REMARK    7  A    between atoms: S_16  and  C_17
REMARK    8  A    between atoms: C_17  and  C_18
REMARK    9  A    between atoms: N_20  and  C_21
REMARK   10  A    between atoms: C_21  and  C_23
REMARK   11  A    between atoms: C_21  and  C_28
REMARK   12  A    between atoms: C_28  and  C_29
REMARK   13  A    between atoms: C_28  and  C_30
REMARK                            x       y       z     vdW  Elec       q    Type
REMARK                         _______ _______ _______ _____ _____    ______ ____
ROOT
ATOM      1  N   UNL     1       0.866  -1.969   1.174  0.00  0.00    -0.285 N 
ATOM      2  C   UNL     1      -0.103  -2.751   1.703  0.00  0.00    +0.262 A 
ATOM      3  O   UNL     1      -1.083  -2.265   2.237  0.00  0.00    -0.267 OA
ATOM      4  C   UNL     1       0.070  -4.209   1.608  0.00  0.00    +0.065 A 
ATOM      5  C   UNL     1      -0.877  -5.094   2.124  0.00  0.00    +0.016 A 
ATOM      6  C   UNL     1      -0.680  -6.440   2.015  0.00  0.00    +0.016 A 
ATOM      7  C   UNL     1       0.468  -6.946   1.389  0.00  0.00    +0.065 A 
ATOM      8  C   UNL     1       1.424  -6.082   0.869  0.00  0.00    +0.043 A 
ATOM      9  C   UNL     1       1.232  -4.701   0.973  0.00  0.00    +0.080 A 
ATOM     10  N   UNL     1       2.137  -3.823   0.480  0.00  0.00    -0.223 NA
ATOM     11  C   UNL     1       1.957  -2.529   0.573  0.00  0.00    +0.173 A 
ENDROOT
BRANCH   7  12
ATOM     12  C   UNL     1       0.662  -8.407   1.282  0.00  0.00    +0.387 C 
ATOM     13  O   UNL     1      -0.176  -9.170   1.739  0.00  0.00    -0.241 OA
ATOM     14  O   UNL     1       1.661  -8.852   0.737  0.00  0.00    -0.241 OA
ENDBRANCH   7  12
BRANCH   1  15
ATOM     15  C   UNL     1       0.742  -0.511   1.242  0.00  0.00    +0.158 C 
BRANCH  15  17
ATOM     16  C   UNL     1      -0.019   1.526   0.010  0.00  0.00    +0.039 C 
ATOM     17  C   UNL     1       0.002  -0.004   0.002  0.00  0.00    +0.131 C 
BRANCH  17  18
ATOM     18  O   UNL     1      -1.339  -0.499   0.012  0.00  0.00    -0.390 OA
ATOM     19  H   UNL     1      -1.853  -0.225   0.784  0.00  0.00    +0.210 HD
ENDBRANCH  17  18
ENDBRANCH  15  17
ENDBRANCH   1  15
BRANCH  11  20
ATOM     20  S   UNL     1       3.184  -1.460  -0.105  0.00  0.00    -0.078 S 
BRANCH  20  21
ATOM     21  C   UNL     1       4.424  -2.593  -0.788  0.00  0.00    +0.173 C 
BRANCH  21  22
ATOM     22  C   UNL     1       5.545  -1.797  -1.407  0.00  0.00    +0.224 C 
ATOM     23  O   UNL     1       5.510  -0.585  -1.388  0.00  0.00    -0.275 OA
ATOM     24  N   UNL     1       6.586  -2.433  -1.980  0.00  0.00    -0.307 N 
ATOM     25  H   UNL     1       6.614  -3.402  -1.995  0.00  0.00    +0.149 HD
BRANCH  24  26
ATOM     26  C   UNL     1       7.675  -1.659  -2.582  0.00  0.00    +0.112 C 
BRANCH  26  27
ATOM     27  C   UNL     1       8.934  -2.487  -2.590  0.00  0.00    +0.010 A 
ATOM     28  C   UNL     1      10.208  -2.106  -2.329  0.00  0.00    +0.013 A 
ATOM     29  C   UNL     1      11.217  -3.048  -2.396  0.00  0.00    +0.008 A 
ATOM     30  C   UNL     1      10.903  -4.326  -2.722  0.00  0.00    +0.045 A 
ATOM     31  S   UNL     1       9.133  -4.227  -2.939  0.00  0.00    -0.100 S 
ENDBRANCH  26  27
BRANCH  26  32
ATOM     32  C   UNL     1       7.302  -1.284  -4.017  0.00  0.00    +0.008 C 
ATOM     33  C   UNL     1       8.439  -0.476  -4.645  0.00  0.00    +0.009 C 
ATOM     34  C   UNL     1       7.069  -2.557  -4.833  0.00  0.00    +0.009 C 
ENDBRANCH  26  32
ENDBRANCH  24  26
ENDBRANCH  21  22
ENDBRANCH  20  21
ENDBRANCH  11  20
TORSDOF 10
