REMARK  Name = ZINC32994496
REMARK  14 active torsions:
REMARK  status: ('A' for Active; 'I' for Inactive)
REMARK    1  A    between atoms: C_1  and  C_2
REMARK    2  A    between atoms: C_2  and  C_3
REMARK    3  A    between atoms: C_3  and  C_4
REMARK    4  A    between atoms: C_4  and  N_5
REMARK    5  A    between atoms: N_5  and  C_6
REMARK    6  A    between atoms: C_7  and  N_19
REMARK    7  A    between atoms: N_8  and  C_15
REMARK    8  A    between atoms: C_15  and  C_16
REMARK    9  A    between atoms: C_16  and  C_17
REMARK   10  A    between atoms: C_16  and  C_18
REMARK   11  A    between atoms: C_20  and  C_22
REMARK   12  A    between atoms: C_22  and  C_23
REMARK   13  A    between atoms: C_26  and  S_28
REMARK   14  A    between atoms: S_28  and  N_31
REMARK                            x       y       z     vdW  Elec       q    Type
REMARK                         _______ _______ _______ _____ _____    ______ ____
ROOT
ATOM      1  N   UNL     1      -2.780  -2.572   0.016  0.00  0.00    -0.264 N 
ATOM      2  C   UNL     1      -3.279  -2.904   1.226  0.00  0.00    +0.225 C 
ATOM      3  O   UNL     1      -4.371  -3.425   1.309  0.00  0.00    -0.275 OA
ENDROOT
BRANCH   1   4
ATOM      4  C   UNL     1      -3.572  -2.728  -1.141  0.00  0.00    +0.140 A 
ATOM      5  C   UNL     1      -3.224  -3.645  -2.111  0.00  0.00    +0.127 A 
ATOM      6  N   UNL     1      -4.017  -3.773  -3.228  0.00  0.00    -0.280 N 
ATOM      7  C   UNL     1      -5.118  -3.014  -3.373  0.00  0.00    +0.331 A 
ATOM      8  O   UNL     1      -5.805  -3.143  -4.368  0.00  0.00    -0.246 OA
ATOM      9  N   UNL     1      -5.473  -2.116  -2.437  0.00  0.00    -0.273 N 
ATOM     10  H   UNL     1      -6.271  -1.580  -2.565  0.00  0.00    +0.173 HD
ATOM     11  C   UNL     1      -4.734  -1.954  -1.322  0.00  0.00    +0.277 A 
ATOM     12  O   UNL     1      -5.067  -1.140  -0.477  0.00  0.00    -0.266 OA
BRANCH   5  13
ATOM     13  N   UNL     1      -2.099  -4.420  -1.964  0.00  0.00    -0.343 N 
ATOM     14  H   UNL     1      -1.505  -4.275  -1.211  0.00  0.00    +0.144 HD
ATOM     15  H   UNL     1      -1.899  -5.112  -2.614  0.00  0.00    +0.144 HD
ENDBRANCH   5  13
BRANCH   6  16
ATOM     16  C   UNL     1      -3.659  -4.743  -4.267  0.00  0.00    +0.131 C 
BRANCH  16  17
ATOM     17  C   UNL     1      -4.318  -6.089  -3.957  0.00  0.00    +0.003 C 
ATOM     18  C   UNL     1      -5.839  -5.944  -4.044  0.00  0.00    +0.009 C 
ATOM     19  C   UNL     1      -3.846  -7.133  -4.970  0.00  0.00    +0.009 C 
ENDBRANCH  16  17
ENDBRANCH   6  16
ENDBRANCH   1   4
BRANCH   1  20
ATOM     20  C   UNL     1      -1.415  -2.051  -0.095  0.00  0.00    +0.114 C 
BRANCH  20  21
ATOM     21  C   UNL     1      -1.452  -0.521  -0.090  0.00  0.00    +0.019 C 
BRANCH  21  23
ATOM     22  C   UNL     1      -0.063   1.553  -0.201  0.00  0.00    +0.004 C 
ATOM     23  C   UNL     1      -0.027   0.023  -0.206  0.00  0.00    -0.002 C 
ENDBRANCH  21  23
ENDBRANCH  20  21
ENDBRANCH   1  20
BRANCH   2  24
ATOM     24  C   UNL     1      -2.479  -2.627   2.473  0.00  0.00    +0.138 C 
BRANCH  24  25
ATOM     25  C   UNL     1      -3.255  -3.088   3.679  0.00  0.00    +0.000 A 
ATOM     26  C   UNL     1      -3.242  -4.298   4.291  0.00  0.00    +0.013 A 
ATOM     27  C   UNL     1      -4.045  -4.498   5.398  0.00  0.00    +0.036 A 
ATOM     28  C   UNL     1      -4.821  -3.478   5.840  0.00  0.00    +0.143 A 
ATOM     29  S   UNL     1      -4.422  -2.181   4.680  0.00  0.00    -0.073 S 
BRANCH  28  30
ATOM     30  S   UNL     1      -5.931  -3.441   7.207  0.00  0.00    +0.067 S 
ATOM     31  O   UNL     1      -6.879  -2.418   6.934  0.00  0.00    -0.152 OA
ATOM     32  O   UNL     1      -6.314  -4.787   7.456  0.00  0.00    -0.152 OA
BRANCH  30  33
ATOM     33  N   UNL     1      -5.065  -2.944   8.528  0.00  0.00    -0.172 NA
ATOM     34  C   UNL     1      -4.378  -3.915   9.393  0.00  0.00    +0.137 C 
ATOM     35  C   UNL     1      -2.925  -3.459   9.574  0.00  0.00    +0.177 C 
ATOM     36  O   UNL     1      -2.910  -2.098  10.011  0.00  0.00    -0.377 OA
ATOM     37  C   UNL     1      -3.478  -1.177   9.077  0.00  0.00    +0.177 C 
ATOM     38  C   UNL     1      -4.955  -1.516   8.867  0.00  0.00    +0.137 C 
ENDBRANCH  30  33
ENDBRANCH  28  30
ENDBRANCH  24  25
ENDBRANCH   2  24
TORSDOF 11
