REMARK  Name = ZINC12805714
REMARK  12 active torsions:
REMARK  status: ('A' for Active; 'I' for Inactive)
REMARK    1  A    between atoms: C_1  and  C_2
REMARK    2  A    between atoms: C_5  and  C_8
REMARK    3  A    between atoms: C_8  and  C_10
REMARK    4  A    between atoms: C_8  and  N_15
REMARK    5  A    between atoms: C_16  and  C_18
REMARK    6  A    between atoms: C_18  and  N_19
REMARK    7  A    between atoms: C_22  and  C_26
REMARK    8  A    between atoms: C_22  and  C_27
REMARK    9  A    between atoms: C_30  and  O_35
REMARK   10  A    between atoms: C_31  and  O_33
REMARK   11  A    between atoms: O_33  and  C_34
REMARK   12  A    between atoms: O_35  and  C_36
REMARK                            x       y       z     vdW  Elec       q    Type
REMARK                         _______ _______ _______ _____ _____    ______ ____
ROOT
ATOM      1  N   UNL     1       4.398  -1.982  -1.810  0.00  0.00    -0.215 N 
ATOM      2  C   UNL     1       3.564  -2.044  -0.753  0.00  0.00    +0.251 C 
ATOM      3  O   UNL     1       2.845  -2.968  -0.440  0.00  0.00    -0.272 OA
ATOM      4  C   UNL     1       3.710  -0.715  -0.038  0.00  0.00    +0.135 C 
ATOM      5  N   UNL     1       4.703   0.008  -0.851  0.00  0.00    -0.281 N 
ATOM      6  C   UNL     1       5.044  -0.812  -1.861  0.00  0.00    +0.310 C 
ATOM      7  O   UNL     1       5.849  -0.522  -2.725  0.00  0.00    -0.252 OA
ATOM      8  C   UNL     1       4.227  -0.925   1.387  0.00  0.00    +0.047 C 
ATOM      9  H   UNL     1       5.044   0.902  -0.690  0.00  0.00    +0.152 HD
ENDROOT
BRANCH   4  10
ATOM     10  C   UNL     1       2.398   0.026  -0.021  0.00  0.00    -0.012 A 
ATOM     11  C   UNL     1       1.208  -0.679  -0.013  0.00  0.00    +0.010 A 
ATOM     12  C   UNL     1       0.002  -0.004   0.002  0.00  0.00    +0.050 A 
ATOM     13  C   UNL     1      -0.017   1.381   0.010  0.00  0.00    +0.162 A 
ATOM     14  C   UNL     1       1.181   2.091   0.002  0.00  0.00    +0.162 A 
ATOM     15  C   UNL     1       2.386   1.408  -0.013  0.00  0.00    +0.055 A 
BRANCH  14  16
ATOM     16  O   UNL     1       1.167   3.450   0.009  0.00  0.00    -0.491 OA
ATOM     17  C   UNL     1       2.434   4.112   0.001  0.00  0.00    +0.277 C 
ENDBRANCH  14  16
BRANCH  13  18
ATOM     18  O   UNL     1      -1.203   2.047   0.019  0.00  0.00    -0.491 OA
ATOM     19  C   UNL     1      -2.392   1.254   0.020  0.00  0.00    +0.277 C 
ENDBRANCH  13  18
ENDBRANCH   4  10
BRANCH   1  20
ATOM     20  C   UNL     1       4.574  -3.063  -2.783  0.00  0.00    +0.213 C 
BRANCH  20  22
ATOM     21  N   UNL     1       3.567  -3.774  -4.928  0.00  0.00    -0.303 N 
ATOM     22  C   UNL     1       3.589  -2.890  -3.910  0.00  0.00    +0.232 C 
ATOM     23  O   UNL     1       2.816  -1.956  -3.902  0.00  0.00    -0.274 OA
ATOM     24  H   UNL     1       4.186  -4.521  -4.934  0.00  0.00    +0.150 HD
BRANCH  21  25
ATOM     25  C   UNL     1       2.610  -3.606  -6.024  0.00  0.00    +0.140 C 
BRANCH  25  30
ATOM     26  C   UNL     1       1.588  -8.730  -8.492  0.00  0.00    +0.044 C 
ATOM     27  C   UNL     1       1.855  -7.394  -7.849  0.00  0.00    -0.050 A 
ATOM     28  C   UNL     1       0.817  -6.502  -7.653  0.00  0.00    +0.004 A 
ATOM     29  C   UNL     1       1.061  -5.276  -7.062  0.00  0.00    +0.006 A 
ATOM     30  C   UNL     1       2.344  -4.942  -6.667  0.00  0.00    -0.022 A 
ATOM     31  C   UNL     1       3.382  -5.832  -6.868  0.00  0.00    +0.006 A 
ATOM     32  C   UNL     1       3.137  -7.059  -7.455  0.00  0.00    +0.004 A 
ENDBRANCH  25  30
BRANCH  25  33
ATOM     33  C   UNL     1       3.180  -2.659  -7.048  0.00  0.00    +0.014 A 
ATOM     34  C   UNL     1       2.555  -1.682  -7.749  0.00  0.00    +0.013 A 
ATOM     35  C   UNL     1       3.287  -0.927  -8.646  0.00  0.00    +0.008 A 
ATOM     36  C   UNL     1       4.609  -1.187  -8.799  0.00  0.00    +0.045 A 
ATOM     37  S   UNL     1       4.857  -2.530  -7.649  0.00  0.00    -0.099 S 
ENDBRANCH  25  33
ENDBRANCH  21  25
ENDBRANCH  20  22
ENDBRANCH   1  20
TORSDOF 8
