REMARK  Name = ZINC59891422
REMARK  12 active torsions:
REMARK  status: ('A' for Active; 'I' for Inactive)
REMARK    1  A    between atoms: C_1  and  C_2
REMARK    2  A    between atoms: C_7  and  C_9
REMARK    3  A    between atoms: C_7  and  N_30
REMARK    4  A    between atoms: C_9  and  N_10
REMARK    5  A    between atoms: C_11  and  C_13
REMARK    6  A    between atoms: C_16  and  S_19
REMARK    7  A    between atoms: S_19  and  N_22
REMARK    8  A    between atoms: N_22  and  C_23
REMARK    9  A    between atoms: C_23  and  C_24
REMARK   10  A    between atoms: C_24  and  C_25
REMARK   11  A    between atoms: N_30  and  C_31
REMARK   12  A    between atoms: N_30  and  C_32
REMARK                            x       y       z     vdW  Elec       q    Type
REMARK                         _______ _______ _______ _____ _____    ______ ____
ROOT
ATOM      1  C   UNL     1       1.360  -6.344   3.373  0.00  0.00    +0.037 A 
ATOM      2  C   UNL     1       0.670  -6.927   2.309  0.00  0.00    +0.015 A 
ATOM      3  C   UNL     1       0.449  -8.289   2.298  0.00  0.00    +0.029 A 
ATOM      4  C   UNL     1       0.909  -9.076   3.338  0.00  0.00    +0.105 A 
ATOM      5  C   UNL     1       1.593  -8.505   4.396  0.00  0.00    +0.029 A 
ATOM      6  C   UNL     1       1.826  -7.145   4.417  0.00  0.00    +0.015 A 
ENDROOT
BRANCH   1   8
ATOM      7  N   UNL     1       1.149  -4.115   2.383  0.00  0.00    -0.313 N 
ATOM      8  C   UNL     1       1.601  -4.886   3.392  0.00  0.00    +0.244 C 
ATOM      9  O   UNL     1       2.206  -4.382   4.318  0.00  0.00    -0.270 OA
ATOM     10  H   UNL     1       0.666  -4.517   1.644  0.00  0.00    +0.149 HD
BRANCH   7  11
ATOM     11  C   UNL     1       1.388  -2.670   2.402  0.00  0.00    +0.092 C 
BRANCH  11  17
ATOM     12  C   UNL     1       1.112  -2.509  -2.585  0.00  0.00    +0.007 C 
ATOM     13  C   UNL     1       0.543  -1.940  -1.284  0.00  0.00    -0.015 C 
ATOM     14  C   UNL     1      -0.956  -2.236  -1.210  0.00  0.00    +0.003 C 
ATOM     15  C   UNL     1      -1.525  -1.667   0.091  0.00  0.00    -0.001 C 
ATOM     16  C   UNL     1      -0.818  -2.316   1.283  0.00  0.00    -0.010 C 
ATOM     17  C   UNL     1       0.681  -2.021   1.210  0.00  0.00    -0.050 C 
ATOM     18  C   UNL     1       1.250  -2.589  -0.092  0.00  0.00    -0.007 C 
BRANCH  17  19
ATOM     19  N   UNL     1       0.896  -0.568   1.245  0.00  0.00    +0.381 N 
ATOM     20  C   UNL     1       0.328  -0.018   2.483  0.00  0.00    -0.096 C 
ATOM     21  C   UNL     1       2.337  -0.285   1.199  0.00  0.00    -0.096 C 
ATOM     22  H   UNL     1       0.445  -0.142   0.449  0.00  0.00    -0.082 HD
ENDBRANCH  17  19
ENDBRANCH  11  17
ENDBRANCH   7  11
ENDBRANCH   1   8
BRANCH   4  23
ATOM     23  S   UNL     1       0.622 -10.815   3.316  0.00  0.00    +0.058 S 
ATOM     24  O   UNL     1       0.674 -11.252   4.667  0.00  0.00    -0.153 OA
ATOM     25  O   UNL     1      -0.514 -11.028   2.489  0.00  0.00    -0.153 OA
BRANCH  23  26
ATOM     26  N   UNL     1       1.908 -11.513   2.542  0.00  0.00    -0.190 NA
ATOM     27  H   UNL     1       1.776 -11.970   1.696  0.00  0.00    +0.148 HD
BRANCH  26  28
ATOM     28  C   UNL     1       3.246 -11.442   3.134  0.00  0.00    +0.111 C 
BRANCH  28  29
ATOM     29  C   UNL     1       4.163 -12.455   2.446  0.00  0.00    +0.059 C 
BRANCH  29  30
ATOM     30  C   UNL     1       5.540 -12.382   3.055  0.00  0.00    -0.009 A 
ATOM     31  C   UNL     1       6.047 -13.074   4.105  0.00  0.00    +0.011 A 
ATOM     32  C   UNL     1       7.352 -12.841   4.494  0.00  0.00    +0.008 A 
ATOM     33  C   UNL     1       8.087 -11.927   3.815  0.00  0.00    +0.045 A 
ATOM     34  S   UNL     1       6.928 -11.367   2.578  0.00  0.00    -0.102 S 
ENDBRANCH  29  30
ENDBRANCH  28  29
ENDBRANCH  26  28
ENDBRANCH  23  26
ENDBRANCH   4  23
TORSDOF 9
