REMARK  Name = ZINC15502313
REMARK  4 active torsions:
REMARK  status: ('A' for Active; 'I' for Inactive)
REMARK    1  A    between atoms: C_1  and  C_2
REMARK    2  A    between atoms: C_5  and  C_7
REMARK    3  A    between atoms: C_10  and  C_12
REMARK    4  A    between atoms: N_23  and  C_24
REMARK                            x       y       z     vdW  Elec       q    Type
REMARK                         _______ _______ _______ _____ _____    ______ ____
ROOT
ATOM      1  C   UNL     1       3.546   0.608  -0.036  0.00  0.00    +0.233 C 
ATOM      2  N   UNL     1       4.049   1.817  -0.698  0.00  0.00    -0.319 N 
ATOM      3  C   UNL     1       4.049   1.869  -2.087  0.00  0.00    +0.041 A 
ATOM      4  C   UNL     1       3.939   3.067  -2.772  0.00  0.00    +0.024 A 
ATOM      5  C   UNL     1       3.952   3.070  -4.153  0.00  0.00    +0.002 A 
ATOM      6  C   UNL     1       4.076   1.883  -4.859  0.00  0.00    +0.001 A 
ATOM      7  C   UNL     1       4.184   0.680  -4.192  0.00  0.00    +0.015 A 
ATOM      8  C   UNL     1       4.168   0.663  -2.800  0.00  0.00    +0.058 A 
ATOM      9  C   UNL     1       4.266  -0.597  -2.042  0.00  0.00    +0.254 C 
ATOM     10  O   UNL     1       4.539  -1.636  -2.612  0.00  0.00    -0.270 OA
ATOM     11  N   UNL     1       4.049  -0.588  -0.712  0.00  0.00    -0.241 N 
ATOM     12  H   UNL     1       4.376   2.566  -0.176  0.00  0.00    +0.148 HD
ENDROOT
BRANCH  11  13
ATOM     13  C   UNL     1       4.311  -1.742   0.036  0.00  0.00    +0.043 A 
ATOM     14  C   UNL     1       5.354  -1.755   0.953  0.00  0.00    +0.027 A 
ATOM     15  C   UNL     1       5.610  -2.891   1.696  0.00  0.00    +0.051 A 
ATOM     16  C   UNL     1       4.834  -4.026   1.520  0.00  0.00    +0.166 A 
ATOM     17  C   UNL     1       3.790  -4.018   0.598  0.00  0.00    +0.168 A 
ATOM     18  C   UNL     1       3.531  -2.877  -0.142  0.00  0.00    +0.073 A 
ATOM     19  O   UNL     1       3.185  -5.242   0.614  0.00  0.00    -0.453 OA
ATOM     20  C   UNL     1       3.606  -5.863   1.843  0.00  0.00    +0.466 C 
ATOM     21  O   UNL     1       4.882  -5.255   2.114  0.00  0.00    -0.453 OA
ENDBRANCH  11  13
BRANCH   1  25
ATOM     22  C   UNL     1      -0.034  -0.105  -0.141  0.00  0.00    +0.109 A 
ATOM     23  C   UNL     1      -0.084   1.239  -0.124  0.00  0.00    +0.045 A 
ATOM     24  C   UNL     1       1.252   1.698  -0.082  0.00  0.00    +0.048 A 
ATOM     25  C   UNL     1       2.039   0.608  -0.076  0.00  0.00    +0.144 A 
ATOM     26  O   UNL     1       1.255  -0.482  -0.112  0.00  0.00    -0.461 OA
BRANCH  22  30
ATOM     27  C   UNL     1      -2.818  -2.345   1.419  0.00  0.00    +0.008 C 
ATOM     28  C   UNL     1      -1.391  -2.018   0.972  0.00  0.00    -0.003 C 
ATOM     29  C   UNL     1      -0.949  -2.520  -0.405  0.00  0.00    +0.015 C 
ATOM     30  C   UNL     1      -1.222  -1.031  -0.185  0.00  0.00    +0.058 C 
ENDBRANCH  22  30
ENDBRANCH   1  25
TORSDOF 3
