REMARK  Name = ZINC65964365
REMARK  5 active torsions:
REMARK  status: ('A' for Active; 'I' for Inactive)
REMARK    1  A    between atoms: C_4  and  N_7
REMARK    2  A    between atoms: C_8  and  C_10
REMARK    3  A    between atoms: N_13  and  C_16
REMARK    4  A    between atoms: C_16  and  C_17
REMARK    5  A    between atoms: N_19  and  C_20
REMARK                            x       y       z     vdW  Elec       q    Type
REMARK                         _______ _______ _______ _____ _____    ______ ____
ROOT
ATOM      1  C   UNL     1       4.130  -2.140  -3.723  0.00  0.00    +0.071 C 
ATOM      2  C   UNL     1       5.275  -1.184  -4.069  0.00  0.00    -0.006 C 
ATOM      3  C   UNL     1       6.036  -1.726  -5.281  0.00  0.00    -0.077 C 
ATOM      4  N   UNL     1       6.581  -3.052  -4.968  0.00  0.00    +0.385 N 
ATOM      5  C   UNL     1       5.485  -3.992  -4.706  0.00  0.00    -0.077 C 
ATOM      6  C   UNL     1       4.703  -3.538  -3.472  0.00  0.00    -0.006 C 
ATOM      7  H   UNL     1       7.171  -2.989  -4.152  0.00  0.00    -0.081 HD
ENDROOT
BRANCH   1   9
ATOM      8  N   UNL     1       2.839  -0.440  -2.473  0.00  0.00    -0.312 N 
ATOM      9  C   UNL     1       3.424  -1.655  -2.483  0.00  0.00    +0.216 C 
ATOM     10  O   UNL     1       3.383  -2.356  -1.495  0.00  0.00    -0.276 OA
ATOM     11  H   UNL     1       2.872   0.121  -3.264  0.00  0.00    +0.149 HD
BRANCH   8  15
ATOM     12  C   UNL     1      -0.019   1.526   0.010  0.00  0.00    +0.000 C 
ATOM     13  C   UNL     1       1.417   2.055  -0.000  0.00  0.00    +0.002 C 
ATOM     14  C   UNL     1       2.133   1.562  -1.259  0.00  0.00    +0.022 C 
ATOM     15  C   UNL     1       2.154   0.032  -1.268  0.00  0.00    +0.073 C 
ATOM     16  C   UNL     1       0.718  -0.497  -1.257  0.00  0.00    +0.022 C 
ATOM     17  C   UNL     1       0.002  -0.004   0.002  0.00  0.00    +0.002 C 
ENDBRANCH   8  15
ENDBRANCH   1   9
BRANCH   4  18
ATOM     18  C   UNL     1       7.376  -3.534  -6.106  0.00  0.00    +0.019 C 
BRANCH  18  19
ATOM     19  C   UNL     1       8.036  -4.838  -5.741  0.00  0.00    +0.197 C 
ATOM     20  O   UNL     1       7.862  -5.319  -4.641  0.00  0.00    -0.278 OA
ATOM     21  N   UNL     1       8.820  -5.471  -6.637  0.00  0.00    -0.306 N 
ATOM     22  H   UNL     1       8.960  -5.086  -7.516  0.00  0.00    +0.149 HD
BRANCH  21  23
ATOM     23  C   UNL     1       9.463  -6.739  -6.282  0.00  0.00    +0.159 C 
ATOM     24  C   UNL     1       9.773  -7.532  -7.554  0.00  0.00    +0.032 C 
ATOM     25  C   UNL     1       9.859  -9.017  -7.254  0.00  0.00    +0.004 C 
ATOM     26  C   UNL     1      11.037  -9.398  -6.375  0.00  0.00    +0.019 C 
ATOM     27  C   UNL     1      10.873  -8.825  -4.965  0.00  0.00    +0.104 C 
ATOM     28  N   UNL     1      11.414  -7.457  -4.947  0.00  0.00    -0.314 N 
ATOM     29  C   UNL     1      10.764  -6.465  -5.557  0.00  0.00    +0.233 C 
ATOM     30  O   UNL     1      11.216  -5.340  -5.531  0.00  0.00    -0.274 OA
ATOM     31  H   UNL     1      12.249  -7.275  -4.488  0.00  0.00    +0.149 HD
ENDBRANCH  21  23
ENDBRANCH  18  19
ENDBRANCH   4  18
TORSDOF 5
