REMARK  Name = ZINC43746586
REMARK  11 active torsions:
REMARK  status: ('A' for Active; 'I' for Inactive)
REMARK    1  A    between atoms: C_1  and  C_2
REMARK    2  A    between atoms: C_2  and  C_3
REMARK    3  A    between atoms: C_3  and  C_5
REMARK    4  A    between atoms: C_3  and  C_6
REMARK    5  A    between atoms: C_6  and  C_8
REMARK    6  A    between atoms: C_6  and  N_15
REMARK    7  A    between atoms: N_10  and  C_11
REMARK    8  A    between atoms: C_11  and  C_12
REMARK    9  A    between atoms: C_12  and  O_13
REMARK   10  A    between atoms: O_13  and  C_14
REMARK   11  A    between atoms: C_16  and  C_18
REMARK                            x       y       z     vdW  Elec       q    Type
REMARK                         _______ _______ _______ _____ _____    ______ ____
ROOT
ATOM      1  C   UNL     1      -1.917  -1.845   4.056  0.00  0.00    +0.167 C 
ATOM      2  C   UNL     1      -1.034  -0.644   4.425  0.00  0.00    +0.069 C 
ATOM      3  C   UNL     1      -1.227  -0.282   5.876  0.00  0.00    -0.015 A 
ATOM      4  C   UNL     1      -0.371   0.560   6.693  0.00  0.00    +0.003 A 
ATOM      5  C   UNL     1       0.820   1.240   6.421  0.00  0.00    +0.010 A 
ATOM      6  C   UNL     1       1.371   1.960   7.452  0.00  0.00    +0.001 A 
ATOM      7  C   UNL     1       0.785   2.017   8.706  0.00  0.00    +0.002 A 
ATOM      8  C   UNL     1      -0.392   1.352   9.002  0.00  0.00    +0.026 A 
ATOM      9  C   UNL     1      -0.974   0.612   7.975  0.00  0.00    +0.047 A 
ATOM     10  N   UNL     1      -2.106  -0.149   7.922  0.00  0.00    -0.356 N 
ATOM     11  H   UNL     1      -2.720  -0.288   8.660  0.00  0.00    +0.166 HD
ATOM     12  C   UNL     1      -2.244  -0.685   6.671  0.00  0.00    +0.046 A 
ATOM     13  C   UNL     1      -3.337  -1.614   6.200  0.00  0.00    +0.155 C 
ATOM     14  N   UNL     1      -3.211  -1.677   4.725  0.00  0.00    -0.273 N 
ATOM     15  C   UNL     1      -4.428  -1.519   4.189  0.00  0.00    +0.248 C 
ATOM     16  O   UNL     1      -4.718  -1.742   3.029  0.00  0.00    -0.270 OA
ATOM     17  C   UNL     1      -5.358  -1.036   5.215  0.00  0.00    +0.042 A 
ATOM     18  C   UNL     1      -4.700  -1.084   6.485  0.00  0.00    -0.009 A 
ATOM     19  C   UNL     1      -5.313  -0.689   7.653  0.00  0.00    +0.006 A 
ATOM     20  C   UNL     1      -6.630  -0.249   7.560  0.00  0.00    +0.000 A 
ATOM     21  C   UNL     1      -7.301  -0.210   6.355  0.00  0.00    +0.001 A 
ATOM     22  C   UNL     1      -6.681  -0.601   5.117  0.00  0.00    +0.013 A 
ENDROOT
BRANCH   1  24
ATOM     23  N   UNL     1      -1.529  -2.859   1.833  0.00  0.00    -0.302 N 
ATOM     24  C   UNL     1      -2.117  -1.891   2.563  0.00  0.00    +0.235 C 
ATOM     25  O   UNL     1      -2.808  -1.056   2.018  0.00  0.00    -0.274 OA
ATOM     26  H   UNL     1      -0.976  -3.527   2.269  0.00  0.00    +0.150 HD
BRANCH  23  27
ATOM     27  C   UNL     1      -1.723  -2.904   0.382  0.00  0.00    +0.162 C 
BRANCH  27  28
ATOM     28  C   UNL     1      -1.524  -4.315  -0.108  0.00  0.00    +0.234 C 
ATOM     29  O   UNL     1      -1.118  -5.169   0.651  0.00  0.00    -0.274 OA
ATOM     30  N   UNL     1      -1.798  -4.627  -1.391  0.00  0.00    -0.312 N 
ATOM     31  H   UNL     1      -2.194  -3.965  -1.977  0.00  0.00    +0.149 HD
BRANCH  30  32
ATOM     32  C   UNL     1      -1.496  -5.968  -1.898  0.00  0.00    +0.132 C 
BRANCH  32  33
ATOM     33  C   UNL     1      -1.901  -6.059  -3.371  0.00  0.00    +0.178 C 
BRANCH  33  34
ATOM     34  O   UNL     1      -1.090  -5.171  -4.143  0.00  0.00    -0.381 OA
ATOM     35  C   UNL     1      -1.388  -5.179  -5.541  0.00  0.00    +0.194 C 
ENDBRANCH  33  34
ENDBRANCH  32  33
ENDBRANCH  30  32
ENDBRANCH  27  28
BRANCH  27  36
ATOM     36  C   UNL     1      -0.710  -1.980  -0.297  0.00  0.00    +0.015 C 
ATOM     37  C   UNL     1       0.706  -2.385   0.117  0.00  0.00    +0.010 C 
BRANCH  36  39
ATOM     38  C   UNL     1      -0.042   0.402  -0.644  0.00  0.00    +0.004 C 
ATOM     39  C   UNL     1      -0.972  -0.534   0.130  0.00  0.00    +0.002 C 
ENDBRANCH  36  39
ENDBRANCH  27  36
ENDBRANCH  23  27
ENDBRANCH   1  24
TORSDOF 8
