REMARK  Name = ZINC06168472
REMARK  10 active torsions:
REMARK  status: ('A' for Active; 'I' for Inactive)
REMARK    1  A    between atoms: C_1  and  C_2
REMARK    2  A    between atoms: C_2  and  C_3
REMARK    3  A    between atoms: C_3  and  C_5
REMARK    4  A    between atoms: C_3  and  C_6
REMARK    5  A    between atoms: C_6  and  C_8
REMARK    6  A    between atoms: C_6  and  N_23
REMARK    7  A    between atoms: N_10  and  N_11
REMARK    8  A    between atoms: C_12  and  C_14
REMARK    9  A    between atoms: C_14  and  O_15
REMARK   10  A    between atoms: O_15  and  C_16
REMARK                            x       y       z     vdW  Elec       q    Type
REMARK                         _______ _______ _______ _____ _____    ______ ____
ROOT
ATOM      1  C   UNL     1      -8.008   0.609   0.100  0.00  0.00    +0.250 C 
ATOM      2  O   UNL     1      -8.570   1.440   0.781  0.00  0.00    -0.272 OA
ATOM      3  N   UNL     1      -6.673   0.671  -0.074  0.00  0.00    -0.233 N 
ATOM      4  H   UNL     1      -6.212  -0.037  -0.551  0.00  0.00    +0.173 HD
ENDROOT
BRANCH   3   5
ATOM      5  N   UNL     1      -5.950   1.758   0.435  0.00  0.00    -0.232 N 
ATOM      6  C   UNL     1      -4.615   1.820   0.261  0.00  0.00    +0.267 C 
ATOM      7  O   UNL     1      -4.039   0.934  -0.336  0.00  0.00    -0.271 OA
ATOM      8  H   UNL     1      -6.410   2.466   0.912  0.00  0.00    +0.173 HD
BRANCH   6   9
ATOM      9  C   UNL     1      -3.837   2.989   0.808  0.00  0.00    +0.326 C 
BRANCH   9  10
ATOM     10  O   UNL     1      -2.452   2.826   0.498  0.00  0.00    -0.483 OA
BRANCH  10  11
ATOM     11  C   UNL     1      -1.606   3.801   0.923  0.00  0.00    +0.122 A 
ATOM     12  C   UNL     1      -0.247   3.708   0.656  0.00  0.00    +0.046 A 
ATOM     13  C   UNL     1       0.610   4.703   1.084  0.00  0.00    +0.005 A 
ATOM     14  C   UNL     1       0.117   5.790   1.782  0.00  0.00    +0.015 A 
ATOM     15  C   UNL     1      -1.236   5.883   2.054  0.00  0.00    +0.021 A 
ATOM     16  C   UNL     1      -2.098   4.889   1.628  0.00  0.00    +0.061 A 
ATOM     17 BR   UNL     1      -1.908   7.371   3.009  0.00  0.00    -0.050 Br
ENDBRANCH  10  11
ENDBRANCH   9  10
ENDBRANCH   6   9
ENDBRANCH   3   5
BRANCH   1  18
ATOM     18  C   UNL     1      -8.802  -0.493  -0.552  0.00  0.00    +0.165 C 
BRANCH  18  19
ATOM     19  N   UNL     1     -10.212  -0.368  -0.174  0.00  0.00    -0.288 N 
ATOM     20  C   UNL     1     -10.944  -1.473   0.070  0.00  0.00    +0.298 C 
ATOM     21  O   UNL     1     -10.416  -2.568   0.058  0.00  0.00    -0.253 OA
ATOM     22  N   UNL     1     -12.263  -1.364   0.329  0.00  0.00    -0.313 N 
ATOM     23  H   UNL     1     -10.618   0.509  -0.099  0.00  0.00    +0.151 HD
ATOM     24  H   UNL     1     -12.684  -0.491   0.339  0.00  0.00    +0.146 HD
ATOM     25  H   UNL     1     -12.790  -2.159   0.504  0.00  0.00    +0.146 HD
ENDBRANCH  18  19
BRANCH  18  26
ATOM     26  C   UNL     1      -8.671  -0.385  -2.073  0.00  0.00    +0.015 C 
ATOM     27  C   UNL     1      -9.323  -1.604  -2.729  0.00  0.00    +0.010 C 
BRANCH  26  29
ATOM     28  C   UNL     1      -8.604   2.112  -2.047  0.00  0.00    +0.004 C 
ATOM     29  C   UNL     1      -9.368   0.888  -2.556  0.00  0.00    +0.002 C 
ENDBRANCH  26  29
ENDBRANCH  18  26
ENDBRANCH   1  18
TORSDOF 8
