REMARK  Name = ZINC08876849
REMARK  12 active torsions:
REMARK  status: ('A' for Active; 'I' for Inactive)
REMARK    1  A    between atoms: CG1_1  and  CB_2
REMARK    2  A    between atoms: CB_2  and  CG2_4
REMARK    3  A    between atoms: CB_2  and  CA_5
REMARK    4  A    between atoms: CA_5  and  C_7
REMARK    5  A    between atoms: CA_5  and  N_9
REMARK    6  A    between atoms: C_7  and  O_8
REMARK    7  A    between atoms: C_10  and  CA_12
REMARK    8  A    between atoms: CA_12  and  C_14
REMARK    9  A    between atoms: CA_12  and  N_20
REMARK   10  A    between atoms: C_21  and  C_23
REMARK   11  A    between atoms: C_25  and  C_38
REMARK   12  A    between atoms: C_25  and  C_39
REMARK                            x       y       z     vdW  Elec       q    Type
REMARK                         _______ _______ _______ _____ _____    ______ ____
ROOT
ATOM      1  N   UNL     1      -3.002   1.505  -0.949  0.00  0.00    -0.299 N 
ATOM      2  C   UNL     1      -2.851   1.215  -2.256  0.00  0.00    +0.236 C 
ATOM      3  O   UNL     1      -2.000   0.426  -2.608  0.00  0.00    -0.274 OA
ATOM      4  H   UNL     1      -3.683   2.136  -0.667  0.00  0.00    +0.150 HD
ENDROOT
BRANCH   2   5
ATOM      5  C   UNL     1      -3.741   1.871  -3.281  0.00  0.00    +0.179 C 
ATOM      6  C   UNL     1      -5.123   1.175  -3.256  0.00  0.00    +0.040 C 
ATOM      7  S   UNL     1      -5.377   0.786  -5.040  0.00  0.00    -0.125 S 
ATOM      8  C   UNL     1      -4.072   1.909  -5.697  0.00  0.00    +0.167 C 
ATOM      9  N   UNL     1      -3.082   1.804  -4.587  0.00  0.00    -0.269 N 
ATOM     10  C   UNL     1      -1.876   1.649  -5.174  0.00  0.00    +0.249 C 
ATOM     11  O   UNL     1      -0.806   1.868  -4.641  0.00  0.00    -0.270 OA
ATOM     12  C   UNL     1      -2.051   1.175  -6.561  0.00  0.00    +0.043 A 
ATOM     13  C   UNL     1      -3.405   1.292  -6.893  0.00  0.00    -0.005 A 
ATOM     14  C   UNL     1      -3.854   0.874  -8.123  0.00  0.00    +0.007 A 
ATOM     15  C   UNL     1      -2.963   0.350  -9.045  0.00  0.00    +0.000 A 
ATOM     16  C   UNL     1      -1.619   0.244  -8.732  0.00  0.00    +0.001 A 
ATOM     17  C   UNL     1      -1.159   0.653  -7.497  0.00  0.00    +0.013 A 
ATOM     18  C   UNL     1      -5.078  -0.104  -2.417  0.00  0.00    +0.025 C 
ATOM     19  C   UNL     1      -6.207   2.126  -2.744  0.00  0.00    +0.025 C 
ENDBRANCH   2   5
BRANCH   1  20
ATOM     20  CA  UNL     1      -2.137   0.867   0.047  0.00  0.00    +0.190 C 
BRANCH  20  21
ATOM     21  C   UNL     1      -0.853   1.647   0.170  0.00  0.00    -0.018 A 
ATOM     22  C   UNL     1       0.350   0.980   0.310  0.00  0.00    +0.006 A 
ATOM     23  C   UNL     1       1.528   1.695   0.417  0.00  0.00    +0.000 A 
ATOM     24  C   UNL     1       1.503   3.077   0.391  0.00  0.00    +0.000 A 
ATOM     25  C   UNL     1       0.299   3.744   0.257  0.00  0.00    +0.000 A 
ATOM     26  C   UNL     1      -0.879   3.029   0.148  0.00  0.00    +0.006 A 
ENDBRANCH  20  21
BRANCH  20  28
ATOM     27  N   UNL     1      -2.230   0.300   2.453  0.00  0.00    -0.308 N 
ATOM     28  C   UNL     1      -2.839   0.843   1.380  0.00  0.00    +0.238 C 
ATOM     29  O   UNL     1      -3.953   1.311   1.488  0.00  0.00    -0.273 OA
ATOM     30  H   UNL     1      -1.340  -0.075   2.367  0.00  0.00    +0.149 HD
BRANCH  27  31
ATOM     31  CA  UNL     1      -2.913   0.276   3.749  0.00  0.00    +0.101 C 
BRANCH  31  33
ATOM     32  CG1 UNL     1      -3.121  -0.941   5.921  0.00  0.00    +0.009 C 
ATOM     33  CB  UNL     1      -2.359  -0.871   4.596  0.00  0.00    +0.005 C 
ATOM     34  CG2 UNL     1      -2.527  -2.191   3.841  0.00  0.00    +0.009 C 
ENDBRANCH  31  33
BRANCH  31  35
ATOM     35  C   UNL     1      -2.681   1.603   4.473  0.00  0.00    +0.178 C 
BRANCH  35  36
ATOM     36  O   UNL     1      -1.291   1.746   4.772  0.00  0.00    -0.393 OA
ATOM     37  H   UNL     1      -1.069   2.567   5.232  0.00  0.00    +0.209 HD
ENDBRANCH  35  36
ENDBRANCH  31  35
ENDBRANCH  27  31
ENDBRANCH  20  28
ENDBRANCH   1  20
TORSDOF 8
