REMARK  Name = ZINC09672835
REMARK  14 active torsions:
REMARK  status: ('A' for Active; 'I' for Inactive)
REMARK    1  A    between atoms: C_1  and  C_2
REMARK    2  A    between atoms: C_2  and  O_3
REMARK    3  A    between atoms: O_3  and  C_4
REMARK    4  A    between atoms: C_6  and  C_12
REMARK    5  A    between atoms: C_9  and  O_10
REMARK    6  A    between atoms: C_17  and  C_27
REMARK    7  A    between atoms: C_19  and  C_23
REMARK    8  A    between atoms: C_23  and  O_25
REMARK    9  A    between atoms: O_25  and  C_26
REMARK   10  A    between atoms: C_29  and  C_36
REMARK   11  A    between atoms: C_30  and  C_31
REMARK   12  A    between atoms: C_31  and  O_33
REMARK   13  A    between atoms: O_33  and  C_34
REMARK   14  A    between atoms: C_34  and  C_35
REMARK                            x       y       z     vdW  Elec       q    Type
REMARK                         _______ _______ _______ _____ _____    ______ ____
ROOT
ATOM      1  C   UNL     1       0.655  -4.954  -0.020  0.00  0.00    +0.092 C 
ATOM      2  C   UNL     1       0.629  -5.801  -1.267  0.00  0.00    +0.025 C 
ATOM      3  C   UNL     1       0.245  -7.094  -1.214  0.00  0.00    +0.016 C 
ATOM      4  C   UNL     1       0.205  -7.945  -2.459  0.00  0.00    +0.055 C 
ATOM      5  C   UNL     1       1.281  -7.472  -3.439  0.00  0.00    +0.013 C 
ATOM      6  C   UNL     1       1.029  -5.996  -3.763  0.00  0.00    +0.171 C 
ATOM      7  C   UNL     1       1.017  -5.209  -2.481  0.00  0.00    +0.176 C 
ATOM      8  O   UNL     1       1.348  -4.040  -2.496  0.00  0.00    -0.291 OA
ATOM      9  C   UNL     1       1.209  -8.303  -4.722  0.00  0.00    +0.009 C 
ATOM     10  N   UNL     1      -0.115  -7.664  -0.022  0.00  0.00    -0.321 N 
ATOM     11  C   UNL     1       0.264  -7.098   1.163  0.00  0.00    +0.016 C 
ATOM     12  C   UNL     1       0.642  -5.810   1.212  0.00  0.00    +0.065 C 
ATOM     13  C   UNL     1       0.257  -7.925   2.423  0.00  0.00    +0.061 C 
ATOM     14  H   UNL     1      -0.643  -8.477  -0.018  0.00  0.00    +0.152 HD
ENDROOT
BRANCH   1  17
ATOM     15  C   UNL     1      -1.498  -1.849   0.006  0.00  0.00    +0.163 A 
ATOM     16  C   UNL     1      -0.389  -2.680  -0.003  0.00  0.00    +0.054 A 
ATOM     17  C   UNL     1      -0.553  -4.052  -0.009  0.00  0.00    -0.030 A 
ATOM     18  C   UNL     1      -1.822  -4.600  -0.006  0.00  0.00    +0.023 A 
ATOM     19  C   UNL     1      -2.934  -3.777   0.003  0.00  0.00    +0.063 A 
ATOM     20  C   UNL     1      -2.776  -2.400   0.016  0.00  0.00    +0.173 A 
ATOM     21 BR   UNL     1      -4.668  -4.531   0.006  0.00  0.00    -0.046 Br
BRANCH  20  22
ATOM     22  O   UNL     1      -3.868  -1.589   0.030  0.00  0.00    -0.503 OA
ATOM     23  H   UNL     1      -4.192  -1.350  -0.849  0.00  0.00    +0.292 HD
ENDBRANCH  20  22
BRANCH  15  24
ATOM     24  O   UNL     1      -1.339  -0.499   0.012  0.00  0.00    -0.489 OA
BRANCH  24  26
ATOM     25  C   UNL     1      -0.019   1.526   0.010  0.00  0.00    +0.048 C 
ATOM     26  C   UNL     1       0.002  -0.004   0.002  0.00  0.00    +0.226 C 
ENDBRANCH  24  26
ENDBRANCH  15  24
ENDBRANCH   1  17
BRANCH   6  27
ATOM     27  C   UNL     1       2.124  -5.482  -4.662  0.00  0.00    +0.318 C 
ATOM     28  O   UNL     1       3.016  -6.220  -5.010  0.00  0.00    -0.250 OA
BRANCH  27  29
ATOM     29  O   UNL     1       2.109  -4.206  -5.077  0.00  0.00    -0.467 OA
ATOM     30  C   UNL     1       3.178  -3.788  -5.928  0.00  0.00    +0.280 C 
ENDBRANCH  27  29
ENDBRANCH   6  27
BRANCH  12  31
ATOM     31  C   UNL     1       1.035  -5.250   2.450  0.00  0.00    +0.338 C 
ATOM     32  O   UNL     1       1.029  -5.934   3.457  0.00  0.00    -0.245 OA
BRANCH  31  33
ATOM     33  O   UNL     1       1.418  -3.958   2.516  0.00  0.00    -0.462 OA
BRANCH  33  34
ATOM     34  C   UNL     1       1.802  -3.459   3.798  0.00  0.00    +0.229 C 
ATOM     35  C   UNL     1       2.200  -1.987   3.675  0.00  0.00    +0.048 C 
ENDBRANCH  33  34
ENDBRANCH  31  33
ENDBRANCH  12  31
TORSDOF 9
