REMARK  Name = ZINC01054742
REMARK  6 active torsions:
REMARK  status: ('A' for Active; 'I' for Inactive)
REMARK    1  A    between atoms: C_4  and  O_23
REMARK    2  A    between atoms: C_5  and  C_7
REMARK    3  A    between atoms: N_8  and  N_9
REMARK    4  A    between atoms: C_10  and  C_12
REMARK    5  A    between atoms: C_12  and  N_13
REMARK    6  A    between atoms: N_13  and  C_14
REMARK                            x       y       z     vdW  Elec       q    Type
REMARK                         _______ _______ _______ _____ _____    ______ ____
ROOT
ATOM      1  N   UNL     1      -4.870   0.916   0.498  0.00  0.00    -0.206 N 
ATOM      2  C   UNL     1      -6.035   1.584   0.386  0.00  0.00    +0.249 C 
ATOM      3  O   UNL     1      -6.053   2.793   0.487  0.00  0.00    -0.272 OA
ATOM      4  H   UNL     1      -4.855  -0.051   0.417  0.00  0.00    +0.177 HD
ENDROOT
BRANCH   1   6
ATOM      5  C   UNL     1      -2.558   0.974   0.842  0.00  0.00    +0.142 C 
ATOM      6  N   UNL     1      -3.680   1.617   0.733  0.00  0.00    -0.188 NA
BRANCH   5  11
ATOM      7  C   UNL     1       1.072   1.720   1.431  0.00  0.00    +0.001 A 
ATOM      8  C   UNL     1       1.051   3.100   1.546  0.00  0.00    +0.004 A 
ATOM      9  C   UNL     1      -0.140   3.792   1.438  0.00  0.00    +0.046 A 
ATOM     10  C   UNL     1      -1.323   3.108   1.212  0.00  0.00    +0.125 A 
ATOM     11  C   UNL     1      -1.306   1.712   1.088  0.00  0.00    +0.036 A 
ATOM     12  C   UNL     1      -0.097   1.023   1.206  0.00  0.00    +0.013 A 
BRANCH  10  13
ATOM     13  O   UNL     1      -2.494   3.787   1.105  0.00  0.00    -0.506 OA
ATOM     14  H   UNL     1      -2.711   4.059   0.202  0.00  0.00    +0.292 HD
ENDBRANCH  10  13
ENDBRANCH   5  11
ENDBRANCH   1   6
BRANCH   2  15
ATOM     15  C   UNL     1      -7.315   0.830   0.134  0.00  0.00    +0.199 C 
BRANCH  15  16
ATOM     16  N   UNL     1      -8.434   1.778   0.052  0.00  0.00    -0.334 N 
ATOM     17  H   UNL     1      -8.306   2.423  -0.713  0.00  0.00    +0.147 HD
BRANCH  16  18
ATOM     18  C   UNL     1      -9.654   1.104  -0.060  0.00  0.00    +0.056 A 
ATOM     19  C   UNL     1     -10.371   0.768   1.082  0.00  0.00    +0.041 A 
ATOM     20  C   UNL     1     -11.579   0.107   0.968  0.00  0.00    +0.032 A 
ATOM     21  C   UNL     1     -12.069  -0.231  -0.281  0.00  0.00    +0.020 A 
ATOM     22  C   UNL     1     -11.355   0.097  -1.420  0.00  0.00    +0.032 A 
ATOM     23  C   UNL     1     -10.149   0.763  -1.313  0.00  0.00    +0.041 A 
ATOM     24 BR   UNL     1      -9.174   1.212  -2.870  0.00  0.00    -0.048 Br
ATOM     25 BR   UNL     1     -13.719  -1.142  -0.432  0.00  0.00    -0.050 Br
ATOM     26 BR   UNL     1      -9.698   1.223   2.790  0.00  0.00    -0.048 Br
ENDBRANCH  16  18
ENDBRANCH  15  16
ENDBRANCH   2  15
TORSDOF 6
