REMARK  Name = ZINC12391085
REMARK  4 active torsions:
REMARK  status: ('A' for Active; 'I' for Inactive)
REMARK    1  A    between atoms: C_1  and  O_2
REMARK    2  A    between atoms: O_2  and  C_3
REMARK    3  A    between atoms: C_6  and  C_9
REMARK    4  A    between atoms: C_14  and  C_23
REMARK                            x       y       z     vdW  Elec       q    Type
REMARK                         _______ _______ _______ _____ _____    ______ ____
ROOT
ATOM      1  C   UNL     1       3.649   2.475  -1.127  0.00  0.00    +0.032 C 
ATOM      2  C   UNL     1       2.768   1.282  -0.756  0.00  0.00    +0.059 C 
ATOM      3  C   UNL     1       1.569   1.756   0.050  0.00  0.00    +0.019 C 
ATOM      4  C   UNL     1       1.663   2.809   0.873  0.00  0.00    +0.037 C 
ATOM      5  C   UNL     1       0.606   3.480   1.727  0.00  0.00    +0.137 C 
ATOM      6  N   UNL     1      -0.630   2.736   1.887  0.00  0.00    -0.313 N 
ATOM      7  C   UNL     1      -1.371   2.399   0.756  0.00  0.00    +0.205 A 
ATOM      8  C   UNL     1      -0.814   1.569  -0.308  0.00  0.00    +0.208 A 
ATOM      9  N   UNL     1      -1.667   1.487  -1.277  0.00  0.00    -0.032 NA
ATOM     10  O   UNL     1      -2.832   2.194  -0.873  0.00  0.00    -0.239 OA
ATOM     11  N   UNL     1      -2.580   2.732   0.431  0.00  0.00    -0.032 NA
ATOM     12  N   UNL     1       0.446   1.007  -0.148  0.00  0.00    -0.297 N 
ATOM     13  C   UNL     1       2.918   3.470   1.003  0.00  0.00    +0.163 C 
ATOM     14  O   UNL     1       3.018   4.366   1.817  0.00  0.00    -0.292 OA
ATOM     15  C   UNL     1       4.119   3.113   0.186  0.00  0.00    +0.088 C 
ATOM     16  H   UNL     1      -0.937   2.478   2.770  0.00  0.00    +0.149 HD
ATOM     17  H   UNL     1       0.531   0.041  -0.183  0.00  0.00    +0.153 HD
ENDROOT
BRANCH   5  18
ATOM     18  C   UNL     1       0.275   4.814   1.109  0.00  0.00    -0.023 A 
ATOM     19  C   UNL     1      -0.315   4.869  -0.141  0.00  0.00    +0.008 A 
ATOM     20  C   UNL     1      -0.624   6.091  -0.707  0.00  0.00    +0.038 A 
ATOM     21  C   UNL     1      -0.334   7.261  -0.026  0.00  0.00    +0.123 A 
ATOM     22  C   UNL     1       0.262   7.206   1.222  0.00  0.00    +0.038 A 
ATOM     23  C   UNL     1       0.566   5.982   1.788  0.00  0.00    +0.008 A 
ATOM     24  F   UNL     1      -0.631   8.457  -0.581  0.00  0.00    -0.205 F 
ENDBRANCH   5  18
BRANCH   1  28
ATOM     25  C   UNL     1       7.021   1.148  -3.391  0.00  0.00    +0.120 A 
ATOM     26  C   UNL     1       6.155   2.092  -3.923  0.00  0.00    +0.046 A 
ATOM     27  C   UNL     1       5.066   2.519  -3.189  0.00  0.00    +0.007 A 
ATOM     28  C   UNL     1       4.838   2.007  -1.925  0.00  0.00    -0.043 A 
ATOM     29  C   UNL     1       5.702   1.070  -1.391  0.00  0.00    +0.007 A 
ATOM     30  C   UNL     1       6.790   0.635  -2.123  0.00  0.00    +0.046 A 
BRANCH  25  32
ATOM     31  C   UNL     1       8.942  -0.249  -3.501  0.00  0.00    +0.277 C 
ATOM     32  O   UNL     1       8.093   0.725  -4.111  0.00  0.00    -0.495 OA
ENDBRANCH  25  32
ENDBRANCH   1  28
TORSDOF 3
