REMARK  Name = ZINC12646260
REMARK  11 active torsions:
REMARK  status: ('A' for Active; 'I' for Inactive)
REMARK    1  A    between atoms: C_1  and  C_2
REMARK    2  A    between atoms: C_4  and  C_30
REMARK    3  A    between atoms: C_7  and  C_28
REMARK    4  A    between atoms: N_11  and  C_12
REMARK    5  A    between atoms: C_12  and  C_13
REMARK    6  A    between atoms: C_13  and  N_14
REMARK    7  A    between atoms: N_14  and  S_15
REMARK    8  A    between atoms: S_15  and  C_18
REMARK    9  A    between atoms: C_21  and  C_24
REMARK   10  A    between atoms: C_24  and  O_26
REMARK   11  A    between atoms: O_26  and  C_27
REMARK                            x       y       z     vdW  Elec       q    Type
REMARK                         _______ _______ _______ _____ _____    ______ ____
ROOT
ATOM      1  C   UNL     1       2.466   1.028  -0.015  0.00  0.00    +0.044 C 
ATOM      2  C   UNL     1       1.156   1.774   0.001  0.00  0.00    -0.048 A 
ATOM      3  C   UNL     1       1.161   3.167   0.007  0.00  0.00    +0.007 A 
ATOM      4  C   UNL     1      -0.006   3.869   0.022  0.00  0.00    -0.041 A 
ATOM      5  C   UNL     1      -1.231   3.181   0.030  0.00  0.00    +0.003 A 
ATOM      6  C   UNL     1      -2.454   3.875   0.045  0.00  0.00    +0.032 A 
ATOM      7  C   UNL     1      -3.627   3.133   0.053  0.00  0.00    +0.090 A 
ATOM      8  C   UNL     1      -3.554   1.720   0.045  0.00  0.00    +0.114 A 
ATOM      9  C   UNL     1      -1.238   1.764   0.018  0.00  0.00    +0.048 A 
ATOM     10  C   UNL     1      -0.013   1.076   0.008  0.00  0.00    +0.029 A 
ATOM     11  N   UNL     1      -4.724   0.981   0.053  0.00  0.00    -0.328 N 
ATOM     12  C   UNL     1       0.017   5.376   0.029  0.00  0.00    +0.044 C 
ATOM     13  H   UNL     1      -5.582   1.432   0.063  0.00  0.00    +0.147 HD
ATOM     14  N   UNL     1      -2.397   1.015   0.030  0.00  0.00    -0.342 N 
ATOM     15  H   UNL     1      -2.383  -0.011   0.028  0.00  0.00    +0.167 HD
ENDROOT
BRANCH   7  16
ATOM     16  C   UNL     1      -4.898   3.792   0.068  0.00  0.00    +0.103 C 
ATOM     17  N   UNL     1      -5.907   4.314   0.081  0.00  0.00    -0.191 NA
ENDBRANCH   7  16
BRANCH  11  18
ATOM     18  C   UNL     1      -4.665  -0.483   0.045  0.00  0.00    +0.119 C 
BRANCH  18  19
ATOM     19  C   UNL     1      -6.087  -1.050   0.056  0.00  0.00    +0.124 C 
BRANCH  19  20
ATOM     20  N   UNL     1      -6.028  -2.513   0.047  0.00  0.00    -0.188 NA
ATOM     21  H   UNL     1      -5.200  -2.965  -0.180  0.00  0.00    +0.148 HD
BRANCH  20  22
ATOM     22  S   UNL     1      -7.376  -3.398   0.427  0.00  0.00    +0.058 S 
ATOM     23  O   UNL     1      -7.011  -4.766   0.305  0.00  0.00    -0.153 OA
ATOM     24  O   UNL     1      -7.894  -2.852   1.633  0.00  0.00    -0.153 OA
BRANCH  22  25
ATOM     25  C   UNL     1      -8.575  -3.083  -0.824  0.00  0.00    +0.105 A 
ATOM     26  C   UNL     1      -9.473  -2.041  -0.671  0.00  0.00    +0.029 A 
ATOM     27  C   UNL     1     -10.412  -1.786  -1.649  0.00  0.00    +0.017 A 
ATOM     28  C   UNL     1     -10.461  -2.588  -2.791  0.00  0.00    +0.059 A 
ATOM     29  C   UNL     1      -9.556  -3.641  -2.937  0.00  0.00    +0.017 A 
ATOM     30  C   UNL     1      -8.619  -3.882  -1.953  0.00  0.00    +0.029 A 
BRANCH  28  31
ATOM     31  C   UNL     1     -11.467  -2.324  -3.840  0.00  0.00    +0.339 C 
ATOM     32  O   UNL     1     -11.508  -3.023  -4.832  0.00  0.00    -0.245 OA
BRANCH  31  33
ATOM     33  O   UNL     1     -12.339  -1.307  -3.697  0.00  0.00    -0.464 OA
ATOM     34  C   UNL     1     -13.300  -1.106  -4.767  0.00  0.00    +0.280 C 
ENDBRANCH  31  33
ENDBRANCH  28  31
ENDBRANCH  22  25
ENDBRANCH  20  22
ENDBRANCH  19  20
ENDBRANCH  18  19
ENDBRANCH  11  18
TORSDOF 8
