REMARK  Name = ZINC65298103
REMARK  8 active torsions:
REMARK  status: ('A' for Active; 'I' for Inactive)
REMARK    1  A    between atoms: C_1  and  C_2
REMARK    2  A    between atoms: C_2  and  C_3
REMARK    3  A    between atoms: C_2  and  N_4
REMARK    4  A    between atoms: C_11  and  C_24
REMARK    5  A    between atoms: C_14  and  C_16
REMARK    6  A    between atoms: C_19  and  O_22
REMARK    7  A    between atoms: O_22  and  C_23
REMARK    8  A    between atoms: C_29  and  O_30
REMARK                            x       y       z     vdW  Elec       q    Type
REMARK                         _______ _______ _______ _____ _____    ______ ____
ROOT
ATOM      1  N   UNL     1      -1.376  -0.512   0.012  0.00  0.00    +0.381 N 
ATOM      2  C   UNL     1      -1.354  -1.980   0.014  0.00  0.00    -0.075 C 
ATOM      3  C   UNL     1      -2.785  -2.515   0.104  0.00  0.00    +0.027 C 
ATOM      4  C   UNL     1      -3.586  -2.018  -1.104  0.00  0.00    +0.109 C 
ATOM      5  C   UNL     1      -3.543  -0.487  -1.132  0.00  0.00    +0.027 C 
ATOM      6  C   UNL     1      -2.085  -0.025  -1.177  0.00  0.00    -0.075 C 
ATOM      7  N   UNL     1      -4.981  -2.461  -0.974  0.00  0.00    -0.286 NA
ATOM      8  C   UNL     1      -5.067  -3.922  -1.134  0.00  0.00    +0.095 C 
ATOM      9  C   UNL     1      -4.722  -4.265  -2.587  0.00  0.00    +0.079 C 
ATOM     10  C   UNL     1      -3.475  -3.531  -2.992  0.00  0.00    +0.047 C 
ATOM     11  N   UNL     1      -2.996  -2.545  -2.330  0.00  0.00    -0.266 NA
ATOM     12  H   UNL     1      -5.371  -2.170  -0.090  0.00  0.00    +0.125 HD
ATOM     13  H   UNL     1      -1.848  -0.184   0.842  0.00  0.00    -0.081 HD
ENDROOT
BRANCH   8  14
ATOM     14  C   UNL     1      -6.466  -4.387  -0.819  0.00  0.00    +0.012 A 
ATOM     15  C   UNL     1      -7.531  -3.517  -0.959  0.00  0.00    +0.024 A 
ATOM     16  C   UNL     1      -8.815  -3.943  -0.670  0.00  0.00    +0.018 A 
ATOM     17  C   UNL     1      -9.036  -5.240  -0.241  0.00  0.00    +0.019 A 
ATOM     18  C   UNL     1      -7.974  -6.112  -0.101  0.00  0.00    +0.047 A 
ATOM     19  C   UNL     1      -6.686  -5.689  -0.395  0.00  0.00    +0.122 A 
ATOM     20 BR   UNL     1     -10.270  -2.751  -0.862  0.00  0.00    -0.050 Br
BRANCH  19  21
ATOM     21  O   UNL     1      -5.641  -6.547  -0.262  0.00  0.00    -0.506 OA
ATOM     22  H   UNL     1      -5.234  -6.539   0.616  0.00  0.00    +0.292 HD
ENDBRANCH  19  21
ENDBRANCH   8  14
BRANCH  10  23
ATOM     23  C   UNL     1      -2.768  -3.967  -4.210  0.00  0.00    -0.004 A 
ATOM     24  C   UNL     1      -3.263  -5.035  -4.963  0.00  0.00    +0.013 A 
ATOM     25  C   UNL     1      -2.600  -5.439  -6.100  0.00  0.00    +0.046 A 
ATOM     26  C   UNL     1      -1.440  -4.786  -6.500  0.00  0.00    +0.120 A 
ATOM     27  C   UNL     1      -0.944  -3.724  -5.754  0.00  0.00    +0.046 A 
ATOM     28  C   UNL     1      -1.605  -3.309  -4.619  0.00  0.00    +0.013 A 
BRANCH  26  29
ATOM     29  O   UNL     1      -0.789  -5.188  -7.622  0.00  0.00    -0.495 OA
ATOM     30  C   UNL     1       0.396  -4.473  -7.975  0.00  0.00    +0.277 C 
ENDBRANCH  26  29
ENDBRANCH  10  23
BRANCH   1  32
ATOM     31  C   UNL     1      -0.019   1.526   0.010  0.00  0.00    -0.014 C 
ATOM     32  C   UNL     1       0.002  -0.004   0.002  0.00  0.00    -0.075 C 
ATOM     33  C   UNL     1       0.742  -0.511   1.242  0.00  0.00    -0.014 C 
ENDBRANCH   1  32
TORSDOF 5
