REMARK  Name = ZINC39665961
REMARK  9 active torsions:
REMARK  status: ('A' for Active; 'I' for Inactive)
REMARK    1  A    between atoms: C_1  and  C_2
REMARK    2  A    between atoms: C_5  and  O_8
REMARK    3  A    between atoms: O_8  and  C_9
REMARK    4  A    between atoms: C_9  and  C_11
REMARK    5  A    between atoms: C_9  and  C_12
REMARK    6  A    between atoms: C_12  and  N_13
REMARK    7  A    between atoms: C_14  and  C_16
REMARK    8  A    between atoms: C_27  and  C_29
REMARK    9  A    between atoms: C_34  and  C_35
REMARK                            x       y       z     vdW  Elec       q    Type
REMARK                         _______ _______ _______ _____ _____    ______ ____
ROOT
ATOM      1  C   UNL     1      -4.532  -6.556  -0.406  0.00  0.00    +0.100 C 
ATOM      2  C   UNL     1      -4.852  -5.701   0.841  0.00  0.00    +0.121 C 
ATOM      3  N   UNL     1      -6.122  -6.260   1.361  0.00  0.00    -0.296 N 
ATOM      4  C   UNL     1      -5.980  -7.725   1.185  0.00  0.00    +0.115 C 
ATOM      5  C   UNL     1      -5.273  -7.883  -0.176  0.00  0.00    -0.004 C 
ATOM      6  C   UNL     1      -4.280  -9.040  -0.122  0.00  0.00    -0.010 C 
ATOM      7  C   UNL     1      -5.045 -10.356   0.049  0.00  0.00    -0.082 C 
ATOM      8  N   UNL     1      -5.973 -10.533  -1.074  0.00  0.00    +0.379 N 
ATOM      9  C   UNL     1      -6.982  -9.467  -1.063  0.00  0.00    -0.082 C 
ATOM     10  C   UNL     1      -6.299  -8.114  -1.281  0.00  0.00    -0.010 C 
ATOM     11  C   UNL     1      -7.170  -5.588   1.878  0.00  0.00    +0.247 C 
ATOM     12  O   UNL     1      -8.181  -6.186   2.190  0.00  0.00    -0.270 OA
ATOM     13  H   UNL     1      -5.460 -10.500  -1.942  0.00  0.00    -0.086 HD
ATOM     14  H   UNL     1      -6.432 -11.429  -0.992  0.00  0.00    -0.086 HD
ENDROOT
BRANCH  11  15
ATOM     15  C   UNL     1      -7.090  -4.124   2.065  0.00  0.00    +0.049 A 
ATOM     16  C   UNL     1      -5.923  -3.544   2.567  0.00  0.00    +0.013 A 
ATOM     17  C   UNL     1      -5.855  -2.177   2.739  0.00  0.00    +0.001 A 
ATOM     18  C   UNL     1      -6.939  -1.381   2.415  0.00  0.00    +0.001 A 
ATOM     19  C   UNL     1      -8.098  -1.949   1.917  0.00  0.00    +0.013 A 
ATOM     20  C   UNL     1      -8.178  -3.314   1.735  0.00  0.00    +0.067 A 
BRANCH  20  21
ATOM     21  C   UNL     1      -9.439  -3.931   1.187  0.00  0.00    +0.418 C 
ATOM     22  F   UNL     1     -10.378  -2.925   0.935  0.00  0.00    -0.166 F 
ATOM     23  F   UNL     1      -9.149  -4.607  -0.003  0.00  0.00    -0.166 F 
ATOM     24  F   UNL     1      -9.961  -4.833   2.120  0.00  0.00    -0.166 F 
ENDBRANCH  20  21
ENDBRANCH  11  15
BRANCH   1  26
ATOM     25  N   UNL     1      -2.475  -6.959  -1.719  0.00  0.00    -0.312 N 
ATOM     26  C   UNL     1      -3.047  -6.794  -0.510  0.00  0.00    +0.218 C 
ATOM     27  O   UNL     1      -2.368  -6.839   0.493  0.00  0.00    -0.275 OA
ATOM     28  H   UNL     1      -3.018  -6.923  -2.522  0.00  0.00    +0.149 HD
BRANCH  25  29
ATOM     29  C   UNL     1      -1.032  -7.191  -1.821  0.00  0.00    +0.148 C 
BRANCH  29  30
ATOM     30  C   UNL     1      -0.642  -7.343  -3.293  0.00  0.00    +0.187 C 
ATOM     31  C   UNL     1       0.865  -7.585  -3.399  0.00  0.00    +0.053 C 
BRANCH  30  32
ATOM     32  O   UNL     1      -1.344  -8.451  -3.860  0.00  0.00    -0.488 OA
BRANCH  32  37
ATOM     33  C   UNL     1      -2.155  -8.384  -9.433  0.00  0.00    +0.044 C 
ATOM     34  C   UNL     1      -1.938  -8.402  -7.942  0.00  0.00    -0.050 A 
ATOM     35  C   UNL     1      -1.168  -7.422  -7.345  0.00  0.00    +0.007 A 
ATOM     36  C   UNL     1      -0.967  -7.436  -5.978  0.00  0.00    +0.046 A 
ATOM     37  C   UNL     1      -1.540  -8.434  -5.204  0.00  0.00    +0.121 A 
ATOM     38  C   UNL     1      -2.314  -9.417  -5.806  0.00  0.00    +0.046 A 
ATOM     39  C   UNL     1      -2.515  -9.395  -7.172  0.00  0.00    +0.007 A 
ENDBRANCH  32  37
ENDBRANCH  30  32
ENDBRANCH  29  30
ENDBRANCH  25  29
ENDBRANCH   1  26
TORSDOF 7
