REMARK  Name = ZINC60343107
REMARK  13 active torsions:
REMARK  status: ('A' for Active; 'I' for Inactive)
REMARK    1  A    between atoms: C_1  and  C_2
REMARK    2  A    between atoms: C_2  and  C_4
REMARK    3  A    between atoms: C_2  and  N_27
REMARK    4  A    between atoms: N_10  and  C_11
REMARK    5  A    between atoms: C_11  and  C_12
REMARK    6  A    between atoms: N_14  and  C_15
REMARK    7  A    between atoms: C_20  and  S_21
REMARK    8  A    between atoms: S_21  and  C_24
REMARK    9  A    between atoms: C_28  and  O_30
REMARK   10  A    between atoms: O_30  and  C_31
REMARK   11  A    between atoms: C_31  and  C_32
REMARK   12  A    between atoms: C_31  and  C_33
REMARK   13  A    between atoms: C_31  and  C_34
REMARK                            x       y       z     vdW  Elec       q    Type
REMARK                         _______ _______ _______ _____ _____    ______ ____
ROOT
ATOM      1  C   UNL     1       0.712  -0.476  -1.241  0.00  0.00    -0.047 C 
ATOM      2  C   UNL     1       2.182  -0.052  -1.190  0.00  0.00    -0.014 C 
ATOM      3  C   UNL     1       2.897  -0.557  -2.446  0.00  0.00    -0.003 C 
ATOM      4  C   UNL     1       2.179  -0.014  -3.684  0.00  0.00    -0.019 C 
ATOM      5  C   UNL     1       0.710  -0.440  -3.643  0.00  0.00    -0.078 C 
ATOM      6  N   UNL     1       0.076   0.097  -2.433  0.00  0.00    +0.388 N 
ATOM      7  H   UNL     1       0.177   1.101  -2.418  0.00  0.00    -0.081 HD
ENDROOT
BRANCH   1   9
ATOM      8  C   UNL     1      -0.028   1.556   0.009  0.00  0.00    +0.026 C 
ATOM      9  C   UNL     1      -0.007   0.027   0.012  0.00  0.00    +0.060 C 
BRANCH   9  10
ATOM     10  N   UNL     1       0.699  -0.449   1.204  0.00  0.00    -0.280 N 
ATOM     11  C   UNL     1       0.037  -0.585   2.370  0.00  0.00    +0.401 C 
ATOM     12  O   UNL     1      -1.146  -0.312   2.433  0.00  0.00    -0.226 OA
ATOM     13  H   UNL     1       1.643  -0.667   1.155  0.00  0.00    +0.152 HD
BRANCH  11  14
ATOM     14  O   UNL     1       0.685  -1.022   3.466  0.00  0.00    -0.445 OA
BRANCH  14  15
ATOM     15  C   UNL     1      -0.079  -1.142   4.668  0.00  0.00    +0.107 C 
ATOM     16  C   UNL     1      -1.225  -2.130   4.447  0.00  0.00    +0.055 C 
ATOM     17  C   UNL     1       0.822  -1.649   5.796  0.00  0.00    +0.055 C 
ATOM     18  C   UNL     1      -0.650   0.226   5.047  0.00  0.00    +0.055 C 
ENDBRANCH  14  15
ENDBRANCH  11  14
ENDBRANCH   9  10
ENDBRANCH   1   9
BRANCH   6  19
ATOM     19  C   UNL     1      -1.352  -0.248  -2.437  0.00  0.00    +0.019 C 
BRANCH  19  20
ATOM     20  C   UNL     1      -2.032   0.440  -3.593  0.00  0.00    +0.201 C 
ATOM     21  O   UNL     1      -1.390   1.149  -4.339  0.00  0.00    -0.278 OA
ATOM     22  N   UNL     1      -3.353   0.269  -3.796  0.00  0.00    -0.285 N 
ATOM     23  H   UNL     1      -3.851  -0.359  -3.249  0.00  0.00    +0.155 HD
BRANCH  22  24
ATOM     24  C   UNL     1      -4.007   0.997  -4.797  0.00  0.00    +0.059 A 
ATOM     25  C   UNL     1      -3.491   2.214  -5.222  0.00  0.00    +0.025 A 
ATOM     26  C   UNL     1      -4.138   2.930  -6.210  0.00  0.00    +0.002 A 
ATOM     27  C   UNL     1      -5.300   2.436  -6.775  0.00  0.00    +0.002 A 
ATOM     28  C   UNL     1      -5.817   1.225  -6.353  0.00  0.00    +0.029 A 
ATOM     29  C   UNL     1      -5.170   0.501  -5.371  0.00  0.00    +0.116 A 
BRANCH  29  30
ATOM     30  S   UNL     1      -5.825  -1.046  -4.840  0.00  0.00    +0.060 S 
ATOM     31  O   UNL     1      -5.889  -0.947  -3.424  0.00  0.00    -0.164 OA
ATOM     32  O   UNL     1      -7.007  -1.222  -5.609  0.00  0.00    -0.164 OA
BRANCH  30  33
ATOM     33  C   UNL     1      -4.577  -2.271  -5.324  0.00  0.00    +0.485 C 
ATOM     34  F   UNL     1      -4.399  -2.233  -6.711  0.00  0.00    -0.183 F 
ATOM     35  F   UNL     1      -3.365  -1.977  -4.690  0.00  0.00    -0.183 F 
ENDBRANCH  30  33
ENDBRANCH  29  30
ENDBRANCH  22  24
ENDBRANCH  19  20
ENDBRANCH   6  19
TORSDOF 9
