REMARK  Name = ZINC40144217
REMARK  6 active torsions:
REMARK  status: ('A' for Active; 'I' for Inactive)
REMARK    1  A    between atoms: C_10  and  C_11
REMARK    2  A    between atoms: C_11  and  C_13
REMARK    3  A    between atoms: C_11  and  N_26
REMARK    4  A    between atoms: C_13  and  C_15
REMARK    5  A    between atoms: C_13  and  C_17
REMARK    6  A    between atoms: C_27  and  N_28
REMARK                            x       y       z     vdW  Elec       q    Type
REMARK                         _______ _______ _______ _____ _____    ______ ____
ROOT
ATOM      1  C   UNL     1       4.960   0.161  -0.046  0.00  0.00    +0.161 C 
ENDROOT
BRANCH   1  11
ATOM      2  C   UNL     1      -0.016   1.357   0.009  0.00  0.00    +0.001 A 
ATOM      3  C   UNL     1       1.169   2.091   0.002  0.00  0.00    +0.001 A 
ATOM      4  C   UNL     1       2.378   1.468  -0.013  0.00  0.00    +0.009 A 
ATOM      5  C   UNL     1       2.438   0.064  -0.021  0.00  0.00    -0.013 A 
ATOM      6  C   UNL     1       1.233  -0.683  -0.013  0.00  0.00    -0.018 A 
ATOM      7  C   UNL     1       0.002  -0.004   0.002  0.00  0.00    +0.008 A 
ATOM      8  C   UNL     1       1.292  -2.087  -0.021  0.00  0.00    +0.008 A 
ATOM      9  C   UNL     1       2.502  -2.709  -0.036  0.00  0.00    +0.001 A 
ATOM     10  C   UNL     1       3.687  -1.976  -0.043  0.00  0.00    +0.006 A 
ATOM     11  C   UNL     1       3.668  -0.615  -0.037  0.00  0.00    -0.014 A 
ENDBRANCH   1  11
BRANCH   1  12
ATOM     12  N   UNL     1       6.051  -0.703   0.412  0.00  0.00    -0.261 N 
ATOM     13  C   UNL     1       6.847  -0.486   1.507  0.00  0.00    +0.117 A 
ATOM     14  C   UNL     1       7.740  -1.516   1.591  0.00  0.00    +0.114 A 
ATOM     15  C   UNL     1       7.494  -2.392   0.524  0.00  0.00    +0.266 A 
ATOM     16  O   UNL     1       8.103  -3.421   0.288  0.00  0.00    -0.266 OA
ATOM     17  N   UNL     1       6.462  -1.900  -0.190  0.00  0.00    -0.261 N 
ATOM     18  H   UNL     1       6.074  -2.303  -0.982  0.00  0.00    +0.190 HD
BRANCH  13  19
ATOM     19  N   UNL     1       6.760   0.578   2.368  0.00  0.00    -0.343 N 
ATOM     20  H   UNL     1       6.089   1.263   2.225  0.00  0.00    +0.144 HD
ATOM     21  H   UNL     1       7.370   0.645   3.119  0.00  0.00    +0.144 HD
ENDBRANCH  13  19
ENDBRANCH   1  12
BRANCH   1  22
ATOM     22  C   UNL     1       5.255   0.644  -1.467  0.00  0.00    +0.176 C 
BRANCH  22  23
ATOM     23  C   UNL     1       6.547   1.420  -1.476  0.00  0.00    +0.099 A 
ATOM     24  N   UNL     1       6.834   2.499  -0.809  0.00  0.00    -0.243 NA
ATOM     25  C   UNL     1       8.037   3.103  -0.903  0.00  0.00    +0.079 A 
ATOM     26  C   UNL     1       8.518   4.264  -0.263  0.00  0.00    +0.029 A 
ATOM     27  C   UNL     1       9.782   4.712  -0.501  0.00  0.00    +0.002 A 
ATOM     28  C   UNL     1      10.636   4.051  -1.373  0.00  0.00    +0.001 A 
ATOM     29  C   UNL     1      10.199   2.909  -2.018  0.00  0.00    +0.017 A 
ATOM     30  C   UNL     1       8.926   2.449  -1.785  0.00  0.00    +0.039 A 
ATOM     31  S   UNL     1       7.947   1.081  -2.347  0.00  0.00    -0.071 S 
ENDBRANCH  22  23
BRANCH  22  32
ATOM     32  C   UNL     1       4.159   1.513  -1.927  0.00  0.00    +0.075 C 
ATOM     33  N   UNL     1       3.312   2.183  -2.282  0.00  0.00    -0.196 NA
ENDBRANCH  22  32
ENDBRANCH   1  22
TORSDOF 6
