REMARK  Name = ZINC14460961
REMARK  4 active torsions:
REMARK  status: ('A' for Active; 'I' for Inactive)
REMARK    1  A    between atoms: C_1  and  C_2
REMARK    2  A    between atoms: C_7  and  C_8
REMARK    3  A    between atoms: C_10  and  C_19
REMARK    4  A    between atoms: C_24  and  O_25
REMARK                            x       y       z     vdW  Elec       q    Type
REMARK                         _______ _______ _______ _____ _____    ______ ____
ROOT
ATOM      1  C   UNL     1      -2.210   2.768   5.050  0.00  0.00    +0.044 C 
ATOM      2  C   UNL     1      -1.641   2.337   3.723  0.00  0.00    -0.046 A 
ATOM      3  C   UNL     1      -2.458   2.278   2.609  0.00  0.00    +0.004 A 
ATOM      4  C   UNL     1      -1.932   1.876   1.396  0.00  0.00    +0.006 A 
ATOM      5  C   UNL     1      -0.601   1.534   1.289  0.00  0.00    -0.019 A 
ATOM      6  C   UNL     1       0.249   1.573   2.409  0.00  0.00    +0.035 A 
ATOM      7  C   UNL     1      -0.294   1.960   3.635  0.00  0.00    -0.026 A 
ATOM      8  C   UNL     1       0.589   2.015   4.856  0.00  0.00    +0.046 C 
ATOM      9  N   UNL     1       1.608   1.267   2.373  0.00  0.00    -0.336 N 
ATOM     10  C   UNL     1       2.145   0.785   1.091  0.00  0.00    +0.108 C 
ATOM     11  C   UNL     1       1.467   1.583  -0.003  0.00  0.00    +0.029 C 
ATOM     12  C   UNL     1      -0.013   1.086   0.008  0.00  0.00    +0.049 C 
ATOM     13  C   UNL     1      -0.533   1.550  -1.302  0.00  0.00    -0.023 C 
ATOM     14  C   UNL     1       0.479   1.612  -2.160  0.00  0.00    -0.030 C 
ATOM     15  C   UNL     1       1.783   1.220  -1.459  0.00  0.00    +0.033 C 
ATOM     16  H   UNL     1       1.858   0.645   3.127  0.00  0.00    +0.147 HD
ENDROOT
BRANCH  10  17
ATOM     17  C   UNL     1       1.840  -0.681   0.923  0.00  0.00    +0.015 A 
ATOM     18  C   UNL     1       0.795  -1.254   1.622  0.00  0.00    +0.024 A 
ATOM     19  C   UNL     1       0.512  -2.599   1.465  0.00  0.00    +0.018 A 
ATOM     20  C   UNL     1       1.280  -3.375   0.615  0.00  0.00    +0.019 A 
ATOM     21  C   UNL     1       2.329  -2.807  -0.082  0.00  0.00    +0.047 A 
ATOM     22  C   UNL     1       2.612  -1.457   0.070  0.00  0.00    +0.122 A 
ATOM     23 BR   UNL     1      -0.922  -3.380   2.418  0.00  0.00    -0.050 Br
BRANCH  22  24
ATOM     24  O   UNL     1       3.643  -0.896  -0.614  0.00  0.00    -0.506 OA
ATOM     25  H   UNL     1       4.488  -0.924  -0.144  0.00  0.00    +0.292 HD
ENDBRANCH  22  24
ENDBRANCH  10  17
TORSDOF 2
