REMARK  Name = ZINC63514842
REMARK  9 active torsions:
REMARK  status: ('A' for Active; 'I' for Inactive)
REMARK    1  A    between atoms: C_1  and  C_2
REMARK    2  A    between atoms: C_2  and  C_3
REMARK    3  A    between atoms: C_3  and  N_26
REMARK    4  A    between atoms: C_5  and  C_20
REMARK    5  A    between atoms: N_7  and  C_10
REMARK    6  A    between atoms: N_26  and  C_27
REMARK    7  A    between atoms: C_27  and  C_28
REMARK    8  A    between atoms: C_28  and  C_29
REMARK    9  A    between atoms: C_37  and  C_39
REMARK                            x       y       z     vdW  Elec       q    Type
REMARK                         _______ _______ _______ _____ _____    ______ ____
ROOT
ATOM      1  C   UNL     1      -1.427  -0.524   0.006  0.00  0.00    +0.018 C 
ATOM      2  C   UNL     1      -2.078  -0.875  -1.161  0.00  0.00    +0.083 C 
ATOM      3  C   UNL     1      -3.413  -1.494  -1.287  0.00  0.00    +0.103 C 
ATOM      4  N   UNL     1      -3.644  -1.657  -2.563  0.00  0.00    -0.174 NA
ATOM      5  N   UNL     1      -2.561  -1.194  -3.312  0.00  0.00    -0.157 N 
ATOM      6  C   UNL     1      -1.606  -0.712  -2.493  0.00  0.00    +0.272 C 
ATOM      7  O   UNL     1      -0.537  -0.229  -2.830  0.00  0.00    -0.268 OA
ENDROOT
BRANCH   5   8
ATOM      8  C   UNL     1      -2.477  -1.221  -4.774  0.00  0.00    +0.249 C 
ATOM      9  N   UNL     1      -2.655  -2.586  -5.288  0.00  0.00    -0.315 N 
ATOM     10  C   UNL     1      -3.748  -2.824  -6.120  0.00  0.00    +0.043 A 
ATOM     11  C   UNL     1      -4.078  -4.060  -6.705  0.00  0.00    +0.024 A 
ATOM     12  C   UNL     1      -5.182  -4.192  -7.515  0.00  0.00    +0.002 A 
ATOM     13  C   UNL     1      -6.005  -3.115  -7.782  0.00  0.00    +0.001 A 
ATOM     14  C   UNL     1      -5.705  -1.885  -7.220  0.00  0.00    +0.016 A 
ATOM     15  C   UNL     1      -4.599  -1.753  -6.410  0.00  0.00    +0.032 A 
ATOM     16  S   UNL     1      -3.914  -0.364  -5.535  0.00  0.00    -0.080 S 
ATOM     17  H   UNL     1      -2.035  -3.295  -5.058  0.00  0.00    +0.149 HD
ENDBRANCH   5   8
BRANCH   3  18
ATOM     18  C   UNL     1      -4.321  -1.861  -0.175  0.00  0.00    +0.003 A 
ATOM     19  C   UNL     1      -5.323  -0.981   0.231  0.00  0.00    +0.010 A 
ATOM     20  C   UNL     1      -6.165  -1.328   1.267  0.00  0.00    +0.001 A 
ATOM     21  C   UNL     1      -6.016  -2.548   1.904  0.00  0.00    +0.000 A 
ATOM     22  C   UNL     1      -5.024  -3.425   1.506  0.00  0.00    +0.001 A 
ATOM     23  C   UNL     1      -4.180  -3.091   0.466  0.00  0.00    +0.010 A 
ENDBRANCH   3  18
BRANCH   1  25
ATOM     24  C   UNL     1      -0.011   1.510  -0.074  0.00  0.00    +0.010 C 
ATOM     25  C   UNL     1      -0.007  -0.019  -0.046  0.00  0.00    +0.048 C 
ENDBRANCH   1  25
BRANCH   1  26
ATOM     26  N   UNL     1      -2.061  -0.632   1.192  0.00  0.00    -0.346 N 
ATOM     27  H   UNL     1      -2.948  -1.022   1.233  0.00  0.00    +0.146 HD
BRANCH  26  28
ATOM     28  C   UNL     1      -1.409  -0.162   2.417  0.00  0.00    +0.105 C 
BRANCH  28  29
ATOM     29  C   UNL     1      -2.336  -0.399   3.611  0.00  0.00    +0.052 C 
BRANCH  29  30
ATOM     30  C   UNL     1      -1.666   0.085   4.871  0.00  0.00    -0.037 C 
ATOM     31  C   UNL     1      -0.443   0.652   4.975  0.00  0.00    -0.001 A 
ATOM     32  C   UNL     1       0.591   0.975   3.984  0.00  0.00    +0.010 A 
ATOM     33  C   UNL     1       1.741   1.553   4.400  0.00  0.00    +0.001 A 
ATOM     34  C   UNL     1       1.969   1.851   5.750  0.00  0.00    +0.002 A 
ATOM     35  C   UNL     1       1.067   1.585   6.719  0.00  0.00    +0.026 A 
ATOM     36  C   UNL     1      -0.177   0.977   6.394  0.00  0.00    +0.043 A 
ATOM     37  N   UNL     1      -1.197   0.625   7.139  0.00  0.00    -0.378 N 
ATOM     38  C   UNL     1      -2.228   0.041   6.274  0.00  0.00    +0.103 C 
ATOM     39  C   UNL     1      -3.515   0.865   6.353  0.00  0.00    +0.035 C 
ATOM     40  H   UNL     1      -1.260   0.735   8.101  0.00  0.00    +0.160 HD
ENDBRANCH  29  30
ENDBRANCH  28  29
ENDBRANCH  26  28
ENDBRANCH   1  26
TORSDOF 7
