REMARK  Name = ZINC36794777
REMARK  12 active torsions:
REMARK  status: ('A' for Active; 'I' for Inactive)
REMARK    1  A    between atoms: C_1  and  C_2
REMARK    2  A    between atoms: C_2  and  C_3
REMARK    3  A    between atoms: C_3  and  C_4
REMARK    4  A    between atoms: C_4  and  C_29
REMARK    5  A    between atoms: N_7  and  C_11
REMARK    6  A    between atoms: C_11  and  C_12
REMARK    7  A    between atoms: C_14  and  O_15
REMARK    8  A    between atoms: C_24  and  O_26
REMARK    9  A    between atoms: O_26  and  C_27
REMARK   10  A    between atoms: C_27  and  C_28
REMARK   11  A    between atoms: C_29  and  C_30
REMARK   12  A    between atoms: C_30  and  C_31
REMARK                            x       y       z     vdW  Elec       q    Type
REMARK                         _______ _______ _______ _____ _____    ______ ____
ROOT
ATOM      1  C   UNL     1      -2.602  -5.286   0.516  0.00  0.00    -0.012 A 
ATOM      2  C   UNL     1      -3.399  -5.509  -0.590  0.00  0.00    +0.093 A 
ATOM      3  C   UNL     1      -3.540  -6.793  -1.093  0.00  0.00    +0.285 A 
ATOM      4  O   UNL     1      -2.918  -7.834  -0.530  0.00  0.00    -0.425 OA
ATOM      5  C   UNL     1      -2.128  -7.673   0.552  0.00  0.00    +0.141 A 
ATOM      6  C   UNL     1      -1.944  -6.386   1.104  0.00  0.00    +0.022 A 
ATOM      7  C   UNL     1      -1.117  -6.213   2.229  0.00  0.00    +0.014 A 
ATOM      8  C   UNL     1      -0.490  -7.284   2.781  0.00  0.00    +0.024 A 
ATOM      9  C   UNL     1      -0.664  -8.569   2.235  0.00  0.00    +0.040 A 
ATOM     10  C   UNL     1      -1.490  -8.758   1.125  0.00  0.00    +0.070 A 
ATOM     11  N   UNL     1      -0.032  -9.633   2.797  0.00  0.00    -0.251 N 
ATOM     12  C   UNL     1       0.976  -9.439   3.635  0.00  0.00    +0.405 C 
ATOM     13  O   UNL     1       1.421  -8.316   3.804  0.00  0.00    -0.226 OA
ATOM     14  H   UNL     1      -0.319 -10.535   2.584  0.00  0.00    +0.158 HD
ENDROOT
BRANCH   3  15
ATOM     15  O   UNL     1      -4.321  -6.996  -2.172  0.00  0.00    -0.480 OA
ATOM     16  H   UNL     1      -4.364  -7.919  -2.458  0.00  0.00    +0.295 HD
ENDBRANCH   3  15
BRANCH   1  17
ATOM     17  C   UNL     1      -2.436  -3.898   1.079  0.00  0.00    +0.154 C 
BRANCH  17  21
ATOM     18  C   UNL     1      -0.213  -1.934  -1.157  0.00  0.00    +0.113 C 
ATOM     19  C   UNL     1      -1.579  -2.454  -0.755  0.00  0.00    +0.247 C 
ATOM     20  O   UNL     1      -2.636  -2.244  -1.311  0.00  0.00    -0.273 OA
ATOM     21  N   UNL     1      -1.374  -3.200   0.349  0.00  0.00    -0.220 N 
ATOM     22  C   UNL     1      -0.083  -3.223   0.696  0.00  0.00    +0.310 C 
ATOM     23  O   UNL     1       0.348  -3.829   1.658  0.00  0.00    -0.252 OA
ATOM     24  N   UNL     1       0.687  -2.500  -0.138  0.00  0.00    -0.285 N 
ATOM     25  H   UNL     1       1.647  -2.377  -0.079  0.00  0.00    +0.151 HD
BRANCH  18  26
ATOM     26  C   UNL     1      -0.184  -0.405  -1.111  0.00  0.00    +0.035 C 
BRANCH  26  28
ATOM     27  C   UNL     1      -0.470   1.598   0.355  0.00  0.00    +0.004 C 
ATOM     28  C   UNL     1      -0.499   0.069   0.309  0.00  0.00    -0.001 C 
ENDBRANCH  26  28
ENDBRANCH  18  26
BRANCH  18  29
ATOM     29  C   UNL     1       0.169  -2.437  -2.551  0.00  0.00    +0.035 C 
BRANCH  29  30
ATOM     30  C   UNL     1       0.132  -3.966  -2.570  0.00  0.00    -0.001 C 
ATOM     31  C   UNL     1       0.514  -4.468  -3.963  0.00  0.00    +0.004 C 
ENDBRANCH  29  30
ENDBRANCH  18  29
ENDBRANCH  17  21
ENDBRANCH   1  17
BRANCH  12  32
ATOM     32  O   UNL     1       1.511 -10.485   4.304  0.00  0.00    -0.450 OA
BRANCH  32  33
ATOM     33  C   UNL     1       2.594 -10.202   5.192  0.00  0.00    +0.230 C 
ATOM     34  C   UNL     1       3.064 -11.500   5.853  0.00  0.00    +0.048 C 
ENDBRANCH  32  33
ENDBRANCH  12  32
TORSDOF 9
