REMARK  Name = ZINC39488299
REMARK  9 active torsions:
REMARK  status: ('A' for Active; 'I' for Inactive)
REMARK    1  A    between atoms: C_1  and  C_2
REMARK    2  A    between atoms: C_2  and  S_24
REMARK    3  A    between atoms: N_4  and  O_23
REMARK    4  A    between atoms: N_7  and  C_8
REMARK    5  A    between atoms: C_8  and  C_9
REMARK    6  A    between atoms: C_9  and  C_17
REMARK    7  A    between atoms: N_12  and  O_15
REMARK    8  A    between atoms: O_15  and  C_16
REMARK    9  A    between atoms: S_24  and  C_27
REMARK                            x       y       z     vdW  Elec       q    Type
REMARK                         _______ _______ _______ _____ _____    ______ ____
ROOT
ATOM      1  C   UNL     1       5.047   0.352   0.447  0.00  0.00    +0.059 C 
ATOM      2  C   UNL     1       3.923  -0.252  -0.398  0.00  0.00    +0.176 C 
ATOM      3  C   UNL     1       3.860   0.429  -1.779  0.00  0.00    +0.190 C 
ATOM      4  N   UNL     1       2.521   1.035  -1.813  0.00  0.00    -0.164 N 
ATOM      5  C   UNL     1       1.888   0.769  -0.662  0.00  0.00    +0.329 C 
ATOM      6  O   UNL     1       0.760   1.153  -0.422  0.00  0.00    -0.250 OA
ATOM      7  N   UNL     1       2.612   0.043   0.200  0.00  0.00    -0.257 N 
ENDROOT
BRANCH   2   8
ATOM      8  S   UNL     1       4.154  -2.042  -0.576  0.00  0.00    +0.020 S 
ATOM      9  O   UNL     1       4.647  -2.595   0.636  0.00  0.00    -0.167 OA
ATOM     10  O   UNL     1       3.032  -2.617  -1.231  0.00  0.00    -0.167 OA
BRANCH   8  11
ATOM     11  C   UNL     1       5.481  -2.216  -1.722  0.00  0.00    +0.091 A 
ATOM     12  C   UNL     1       5.219  -2.289  -3.078  0.00  0.00    +0.027 A 
ATOM     13  C   UNL     1       6.260  -2.425  -3.977  0.00  0.00    +0.002 A 
ATOM     14  C   UNL     1       7.564  -2.487  -3.520  0.00  0.00    +0.000 A 
ATOM     15  C   UNL     1       7.826  -2.413  -2.165  0.00  0.00    +0.002 A 
ATOM     16  C   UNL     1       6.785  -2.273  -1.266  0.00  0.00    +0.027 A 
ENDBRANCH   8  11
ENDBRANCH   2   8
BRANCH   4  17
ATOM     17  O   UNL     1       1.984   1.780  -2.890  0.00  0.00    -0.291 OA
ATOM     18  H   UNL     1       1.085   2.103  -2.736  0.00  0.00    +0.242 HD
ENDBRANCH   4  17
BRANCH   7  19
ATOM     19  C   UNL     1       2.168  -0.389   1.528  0.00  0.00    +0.119 C 
BRANCH  19  20
ATOM     20  C   UNL     1       2.150   0.812   2.475  0.00  0.00    -0.008 C 
ATOM     21  C   UNL     1       1.569   0.388   3.827  0.00  0.00    +0.026 C 
ATOM     22  C   UNL     1       0.124  -0.075   3.634  0.00  0.00    +0.115 C 
ATOM     23  N   UNL     1      -0.670   1.020   3.062  0.00  0.00    -0.188 NA
ATOM     24  C   UNL     1      -0.160   1.413   1.742  0.00  0.00    +0.115 C 
ATOM     25  C   UNL     1       1.277   1.920   1.879  0.00  0.00    +0.026 C 
BRANCH  20  26
ATOM     26  C   UNL     1       3.575   1.332   2.669  0.00  0.00    -0.003 C 
ATOM     27  C   UNL     1       4.384   0.314   3.475  0.00  0.00    +0.004 C 
ATOM     28  C   UNL     1       5.810   0.835   3.670  0.00  0.00    +0.000 C 
ATOM     29  C   UNL     1       5.769   2.165   4.424  0.00  0.00    +0.000 C 
ATOM     30  C   UNL     1       4.959   3.183   3.618  0.00  0.00    +0.000 C 
ATOM     31  C   UNL     1       3.534   2.663   3.423  0.00  0.00    +0.004 C 
ENDBRANCH  20  26
BRANCH  23  32
ATOM     32  O   UNL     1      -2.086   0.660   2.992  0.00  0.00    -0.300 OA
ATOM     33  C   UNL     1      -2.944   1.525   3.739  0.00  0.00    +0.221 C 
ENDBRANCH  23  32
ENDBRANCH  19  20
ENDBRANCH   7  19
TORSDOF 7
