REMARK  Name = ZINC33122199
REMARK  9 active torsions:
REMARK  status: ('A' for Active; 'I' for Inactive)
REMARK    1  A    between atoms: C_1  and  C_2
REMARK    2  A    between atoms: C_2  and  C_3
REMARK    3  A    between atoms: C_3  and  C_4
REMARK    4  A    between atoms: C_6  and  S_13
REMARK    5  A    between atoms: S_13  and  C_14
REMARK    6  A    between atoms: C_17  and  N_20
REMARK    7  A    between atoms: N_23  and  C_24
REMARK    8  A    between atoms: C_27  and  C_30
REMARK    9  A    between atoms: C_30  and  C_31
REMARK                            x       y       z     vdW  Elec       q    Type
REMARK                         _______ _______ _______ _____ _____    ______ ____
ROOT
ATOM      1  C   UNL     1       1.498   1.952  -0.098  0.00  0.00    +0.014 A 
ATOM      2  C   UNL     1       2.315   0.832  -0.173  0.00  0.00    +0.017 A 
ATOM      3  C   UNL     1       3.682   0.982  -0.293  0.00  0.00    +0.024 A 
ATOM      4  C   UNL     1       4.241   2.253  -0.328  0.00  0.00    +0.035 A 
ATOM      5  C   UNL     1       3.424   3.373  -0.247  0.00  0.00    +0.024 A 
ATOM      6  C   UNL     1       2.057   3.224  -0.132  0.00  0.00    +0.017 A 
ENDROOT
BRANCH   4   7
ATOM      7  N   UNL     1       5.629   2.405  -0.444  0.00  0.00    -0.269 N 
ATOM      8  C   UNL     1       6.342   1.536  -1.188  0.00  0.00    +0.308 C 
ATOM      9  O   UNL     1       5.794   0.575  -1.692  0.00  0.00    -0.252 OA
ATOM     10  N   UNL     1       7.662   1.734  -1.374  0.00  0.00    -0.269 N 
ATOM     11  H   UNL     1       6.137   3.233   0.073  0.00  0.00    +0.156 HD
ATOM     12  H   UNL     1       8.175   2.553  -0.849  0.00  0.00    +0.156 HD
BRANCH  10  13
ATOM     13  C   UNL     1       8.380   0.898  -2.236  0.00  0.00    +0.035 A 
ATOM     14  C   UNL     1       9.702   0.578  -1.954  0.00  0.00    +0.023 A 
ATOM     15  C   UNL     1      10.406  -0.253  -2.804  0.00  0.00    +0.005 A 
ATOM     16  C   UNL     1       9.801  -0.756  -3.940  0.00  0.00    -0.048 A 
ATOM     17  C   UNL     1       8.486  -0.435  -4.227  0.00  0.00    +0.005 A 
ATOM     18  C   UNL     1       7.775   0.390  -3.378  0.00  0.00    +0.023 A 
BRANCH  16  19
ATOM     19  C   UNL     1      10.574  -1.657  -4.869  0.00  0.00    +0.032 C 
ATOM     20  C   UNL     1      11.280  -0.810  -5.930  0.00  0.00    +0.009 C 
ENDBRANCH  16  19
ENDBRANCH  10  13
ENDBRANCH   4   7
BRANCH   1  21
ATOM     21  S   UNL     1      -0.248   1.761   0.050  0.00  0.00    -0.070 S 
BRANCH  21  24
ATOM     22  C   UNL     1      -1.167  -2.140  -0.331  0.00  0.00    +0.048 A 
ATOM     23  C   UNL     1      -1.119  -0.766  -0.548  0.00  0.00    +0.058 A 
ATOM     24  C   UNL     1      -0.346   0.018   0.289  0.00  0.00    +0.109 A 
ATOM     25  N   UNL     1       0.337  -0.585   1.308  0.00  0.00    -0.190 N 
ATOM     26  C   UNL     1       0.254  -1.937   1.484  0.00  0.00    +0.254 A 
ATOM     27  N   UNL     1      -0.495  -2.683   0.663  0.00  0.00    -0.216 NA
ATOM     28  N   UNL     1       1.008  -2.243   2.534  0.00  0.00    -0.197 NA
ATOM     29  C   UNL     1       1.561  -1.140   3.024  0.00  0.00    +0.247 A 
ATOM     30  N   UNL     1       1.184  -0.105   2.314  0.00  0.00    -0.151 NA
BRANCH  22  31
ATOM     31  C   UNL     1      -1.999  -3.011  -1.236  0.00  0.00    +0.055 C 
BRANCH  31  33
ATOM     32  C   UNL     1      -1.969  -5.008  -2.738  0.00  0.00    +0.004 C 
ATOM     33  C   UNL     1      -1.124  -4.123  -1.819  0.00  0.00    +0.003 C 
ENDBRANCH  31  33
ENDBRANCH  22  31
ENDBRANCH  21  24
ENDBRANCH   1  21
TORSDOF 7
