REMARK  Name = ZINC65265889
REMARK  2 active torsions:
REMARK  status: ('A' for Active; 'I' for Inactive)
REMARK    1  A    between atoms: C_14  and  C_16
REMARK    2  A    between atoms: N_27  and  C_28
REMARK                            x       y       z     vdW  Elec       q    Type
REMARK                         _______ _______ _______ _____ _____    ______ ____
ROOT
ATOM      1  C   UNL     1      -0.057   1.349   0.073  0.00  0.00    +0.000 A 
ATOM      2  C   UNL     1       1.123   2.071   0.075  0.00  0.00    +0.002 A 
ATOM      3  C   UNL     1       2.329   1.400   0.063  0.00  0.00    +0.023 A 
ATOM      4  C   UNL     1       2.356   0.013   0.045  0.00  0.00    +0.037 A 
ATOM      5  C   UNL     1       1.177  -0.722   0.031  0.00  0.00    -0.012 A 
ATOM      6  C   UNL     1      -0.030  -0.029   0.052  0.00  0.00    +0.007 A 
ATOM      7  C   UNL     1       1.096  -2.226  -0.025  0.00  0.00    +0.119 C 
ATOM      8  N   UNL     1       2.232  -2.880   0.638  0.00  0.00    -0.299 NA
ATOM      9  C   UNL     1       3.357  -3.064  -0.307  0.00  0.00    +0.091 C 
ATOM     10  C   UNL     1       2.940  -4.000  -1.456  0.00  0.00    +0.050 C 
ATOM     11  C   UNL     1       3.204  -5.394  -0.829  0.00  0.00    +0.110 C 
ATOM     12  N   UNL     1       4.408  -5.216   0.004  0.00  0.00    -0.295 N 
ATOM     13  C   UNL     1       4.520  -3.794   0.371  0.00  0.00    +0.137 C 
ATOM     14  C   UNL     1       5.263  -6.192   0.369  0.00  0.00    +0.247 C 
ATOM     15  O   UNL     1       6.281  -5.914   0.972  0.00  0.00    -0.270 OA
ATOM     16  C   UNL     1       3.753  -1.717  -0.809  0.00  0.00    +0.095 C 
ATOM     17  N   UNL     1       3.573  -0.661   0.051  0.00  0.00    -0.303 N 
ATOM     18  N   UNL     1       4.242  -1.551  -1.995  0.00  0.00    -0.372 N 
ATOM     19  H   UNL     1       2.525  -2.360   1.452  0.00  0.00    +0.123 HD
ATOM     20  H   UNL     1       4.358  -2.314  -2.583  0.00  0.00    +0.161 HD
ATOM     21  H   UNL     1       4.284  -0.389   0.653  0.00  0.00    +0.153 HD
ENDROOT
BRANCH  14  22
ATOM     22  C   UNL     1       4.963  -7.598   0.037  0.00  0.00    +0.041 A 
ATOM     23  C   UNL     1       5.998  -8.530  -0.065  0.00  0.00    +0.017 A 
ATOM     24  C   UNL     1       5.716  -9.843  -0.374  0.00  0.00    +0.050 A 
ATOM     25  C   UNL     1       4.404 -10.245  -0.586  0.00  0.00    +0.166 A 
ATOM     26  C   UNL     1       3.365  -9.318  -0.487  0.00  0.00    +0.167 A 
ATOM     27  C   UNL     1       3.641  -8.002  -0.171  0.00  0.00    +0.062 A 
ATOM     28  O   UNL     1       2.185  -9.959  -0.737  0.00  0.00    -0.453 OA
ATOM     29  C   UNL     1       2.548 -11.189  -1.390  0.00  0.00    +0.466 C 
ATOM     30  O   UNL     1       3.873 -11.461  -0.897  0.00  0.00    -0.453 OA
ENDBRANCH  14  22
BRANCH  18  31
ATOM     31  C   UNL     1       4.618  -0.210  -2.451  0.00  0.00    +0.080 C 
ATOM     32  C   UNL     1       3.402   0.491  -3.090  0.00  0.00    +0.024 C 
ATOM     33  C   UNL     1       4.003   1.292  -4.272  0.00  0.00    +0.002 C 
ATOM     34  C   UNL     1       5.095   0.336  -4.813  0.00  0.00    +0.002 C 
ATOM     35  C   UNL     1       5.694  -0.310  -3.547  0.00  0.00    +0.024 C 
ENDBRANCH  18  31
TORSDOF 2
