REMARK  Name = ZINC26891024
REMARK  6 active torsions:
REMARK  status: ('A' for Active; 'I' for Inactive)
REMARK    1  A    between atoms: C_9  and  C_13
REMARK    2  A    between atoms: C_13  and  O_14
REMARK    3  A    between atoms: O_14  and  C_15
REMARK    4  A    between atoms: C_15  and  C_17
REMARK    5  A    between atoms: C_17  and  N_18
REMARK    6  A    between atoms: C_19  and  C_21
REMARK                            x       y       z     vdW  Elec       q    Type
REMARK                         _______ _______ _______ _____ _____    ______ ____
ROOT
ATOM      1  O   UNL     1      -1.562   1.825   0.136  0.00  0.00    -0.456 OA
ENDROOT
BRANCH   1   2
ATOM      2  C   UNL     1      -0.494   1.013   0.146  0.00  0.00    +0.325 C 
ATOM      3  O   UNL     1       0.619   1.478   0.072  0.00  0.00    -0.249 OA
BRANCH   2   4
ATOM      4  C   UNL     1      -0.682  -0.479   0.243  0.00  0.00    +0.224 C 
BRANCH   4   5
ATOM      5  N   UNL     1       0.626  -1.139   0.229  0.00  0.00    -0.304 N 
ATOM      6  C   UNL     1       0.705  -2.482   0.306  0.00  0.00    +0.220 C 
ATOM      7  O   UNL     1      -0.308  -3.145   0.387  0.00  0.00    -0.275 OA
ATOM      8  H   UNL     1       1.544  -0.537   0.155  0.00  0.00    +0.149 HD
BRANCH   6   9
ATOM      9  C   UNL     1       2.050  -3.160   0.291  0.00  0.00    +0.048 C 
ATOM     10  C   UNL     1       2.778  -2.822  -1.012  0.00  0.00    +0.019 C 
ATOM     11  C   UNL     1       4.144  -3.510  -1.027  0.00  0.00    -0.009 C 
ATOM     12  C   UNL     1       3.953  -5.025  -0.929  0.00  0.00    +0.007 C 
ATOM     13  C   UNL     1       3.225  -5.364   0.374  0.00  0.00    -0.009 C 
ATOM     14  C   UNL     1       1.859  -4.675   0.390  0.00  0.00    +0.019 C 
ATOM     15  C   UNL     1       4.056  -4.876   1.563  0.00  0.00    +0.007 C 
ATOM     16  C   UNL     1       4.247  -3.361   1.465  0.00  0.00    -0.009 C 
ATOM     17  C   UNL     1       4.974  -3.022   0.162  0.00  0.00    +0.007 C 
ATOM     18  C   UNL     1       2.881  -2.672   1.480  0.00  0.00    +0.019 C 
ENDBRANCH   6   9
ENDBRANCH   4   5
ENDBRANCH   2   4
ENDBRANCH   1   2
BRANCH   1  19
ATOM     19  C   UNL     1      -1.306   3.251   0.040  0.00  0.00    +0.308 C 
BRANCH  19  28
ATOM     20  C   UNL     1      -8.520   6.790  -0.459  0.00  0.00    +0.005 C 
ATOM     21  C   UNL     1      -8.444   7.805   0.685  0.00  0.00    +0.005 C 
ATOM     22  C   UNL     1      -7.824   7.120   1.911  0.00  0.00    +0.043 C 
ATOM     23  C   UNL     1      -6.595   6.384   1.471  0.00  0.00    -0.004 A 
ATOM     24  C   UNL     1      -6.236   6.077   0.208  0.00  0.00    -0.025 A 
ATOM     25  C   UNL     1      -4.979   5.346   0.034  0.00  0.00    +0.051 A 
ATOM     26  C   UNL     1      -4.368   4.900  -1.170  0.00  0.00    +0.128 A 
ATOM     27  N   UNL     1      -3.215   4.253  -1.106  0.00  0.00    -0.214 NA
ATOM     28  C   UNL     1      -2.615   3.998   0.043  0.00  0.00    +0.170 A 
ATOM     29  N   UNL     1      -3.133   4.387   1.192  0.00  0.00    -0.221 NA
ATOM     30  C   UNL     1      -4.277   5.042   1.218  0.00  0.00    +0.114 A 
ATOM     31  S   UNL     1      -5.301   5.730   2.492  0.00  0.00    -0.073 S 
ATOM     32  N   UNL     1      -4.968   5.143  -2.393  0.00  0.00    -0.343 N 
ATOM     33  C   UNL     1      -7.114   6.481  -0.973  0.00  0.00    +0.037 C 
ATOM     34  H   UNL     1      -4.488   4.794  -3.320  0.00  0.00    +0.144 HD
ATOM     35  H   UNL     1      -5.924   5.685  -2.438  0.00  0.00    +0.144 HD
ENDBRANCH  19  28
ENDBRANCH   1  19
TORSDOF 6
