REMARK  Name = ZINC02354225
REMARK  7 active torsions:
REMARK  status: ('A' for Active; 'I' for Inactive)
REMARK    1  A    between atoms: C_1  and  C_2
REMARK    2  A    between atoms: C_2  and  O_3
REMARK    3  A    between atoms: O_3  and  C_4
REMARK    4  A    between atoms: C_8  and  C_11
REMARK    5  A    between atoms: C_9  and  O_10
REMARK    6  A    between atoms: N_12  and  N_13
REMARK    7  A    between atoms: C_14  and  C_16
REMARK                            x       y       z     vdW  Elec       q    Type
REMARK                         _______ _______ _______ _____ _____    ______ ____
ROOT
ATOM      1  C   UNL     1      -3.148  10.279   0.336  0.00  0.00    +0.143 C 
ATOM      2  N   UNL     1      -2.173   9.486   0.009  0.00  0.00    -0.187 NA
ENDROOT
BRANCH   1   7
ATOM      3  C   UNL     1      -4.088  13.902  -0.043  0.00  0.00    +0.164 A 
ATOM      4  C   UNL     1      -2.994  14.388  -0.743  0.00  0.00    +0.071 A 
ATOM      5  C   UNL     1      -1.954  13.541  -1.090  0.00  0.00    +0.064 A 
ATOM      6  C   UNL     1      -1.996  12.207  -0.738  0.00  0.00    +0.072 A 
ATOM      7  C   UNL     1      -3.096  11.703  -0.038  0.00  0.00    +0.059 A 
ATOM      8  C   UNL     1      -4.146  12.561   0.313  0.00  0.00    +0.169 A 
ATOM      9 CL   UNL     1      -0.686  11.153  -1.171  0.00  0.00    -0.081 Cl
ATOM     10 CL   UNL     1      -0.591  14.162  -1.967  0.00  0.00    -0.082 Cl
BRANCH   8  11
ATOM     11  O   UNL     1      -5.218  12.083   0.998  0.00  0.00    -0.503 OA
ATOM     12  H   UNL     1      -5.123  12.129   1.959  0.00  0.00    +0.292 HD
ENDBRANCH   8  11
BRANCH   3  13
ATOM     13  O   UNL     1      -5.105  14.740   0.294  0.00  0.00    -0.489 OA
BRANCH  13  15
ATOM     14  C   UNL     1      -6.209  16.889   0.361  0.00  0.00    +0.048 C 
ATOM     15  C   UNL     1      -4.979  16.107  -0.104  0.00  0.00    +0.226 C 
ENDBRANCH  13  15
ENDBRANCH   3  13
ENDBRANCH   1   7
BRANCH   2  16
ATOM     16  N   UNL     1      -2.222   8.132   0.364  0.00  0.00    -0.204 N 
ATOM     17  C   UNL     1      -1.210   7.309   0.025  0.00  0.00    +0.276 C 
ATOM     18  O   UNL     1      -0.256   7.742  -0.587  0.00  0.00    -0.270 OA
ATOM     19  H   UNL     1      -2.985   7.786   0.854  0.00  0.00    +0.177 HD
BRANCH  17  20
ATOM     20  C   UNL     1      -1.263   5.852   0.407  0.00  0.00    +0.297 C 
ATOM     21  C   UNL     1      -2.424   5.167  -0.326  0.00  0.00    +0.283 C 
ATOM     22  O   UNL     1      -2.437   3.785   0.048  0.00  0.00    -0.484 OA
ATOM     23  C   UNL     1      -1.241   3.136   0.030  0.00  0.00    +0.162 A 
ATOM     24  C   UNL     1      -1.219   1.749   0.017  0.00  0.00    +0.049 A 
ATOM     25  C   UNL     1      -0.013   1.076   0.008  0.00  0.00    +0.004 A 
ATOM     26  C   UNL     1       1.176   1.782   0.000  0.00  0.00    +0.004 A 
ATOM     27  C   UNL     1       1.161   3.164   0.007  0.00  0.00    +0.049 A 
ATOM     28  C   UNL     1      -0.046   3.846   0.020  0.00  0.00    +0.163 A 
ATOM     29  O   UNL     1      -0.045   5.207   0.019  0.00  0.00    -0.472 OA
ENDBRANCH  17  20
ENDBRANCH   2  16
TORSDOF 6
