REMARK  Name = ZINC52584120
REMARK  10 active torsions:
REMARK  status: ('A' for Active; 'I' for Inactive)
REMARK    1  A    between atoms: C_1  and  C_2
REMARK    2  A    between atoms: C_2  and  C_3
REMARK    3  A    between atoms: C_3  and  C_4
REMARK    4  A    between atoms: C_4  and  C_5
REMARK    5  A    between atoms: N_11  and  C_34
REMARK    6  A    between atoms: N_15  and  C_16
REMARK    7  A    between atoms: C_16  and  C_17
REMARK    8  A    between atoms: C_20  and  C_23
REMARK    9  A    between atoms: C_28  and  C_29
REMARK   10  A    between atoms: C_34  and  C_35
REMARK                            x       y       z     vdW  Elec       q    Type
REMARK                         _______ _______ _______ _____ _____    ______ ____
ROOT
ATOM      1  C   UNL     1       1.498  -2.544   2.484  0.00  0.00    +0.159 C 
ATOM      2  N   UNL     1       2.921  -2.195   2.396  0.00  0.00    -0.324 N 
ATOM      3  C   UNL     1       3.644  -3.380   2.389  0.00  0.00    +0.057 A 
ATOM      4  C   UNL     1       5.035  -3.615   2.319  0.00  0.00    +0.043 A 
ATOM      5  C   UNL     1       5.503  -4.880   2.328  0.00  0.00    +0.091 A 
ATOM      6  N   UNL     1       4.654  -5.941   2.404  0.00  0.00    -0.303 N 
ATOM      7  C   UNL     1       3.323  -5.761   2.473  0.00  0.00    +0.275 A 
ATOM      8  O   UNL     1       2.579  -6.728   2.541  0.00  0.00    -0.266 OA
ATOM      9  C   UNL     1       2.786  -4.463   2.467  0.00  0.00    +0.118 A 
ATOM     10  N   UNL     1       1.452  -4.012   2.529  0.00  0.00    -0.302 N 
ATOM     11  H   UNL     1       3.289  -1.299   2.350  0.00  0.00    +0.148 HD
ENDROOT
BRANCH   1  12
ATOM     12  C   UNL     1       0.749  -2.029   1.253  0.00  0.00    +0.042 C 
BRANCH  12  13
ATOM     13  C   UNL     1       0.723  -0.499   1.276  0.00  0.00    +0.003 C 
BRANCH  13  15
ATOM     14  C   UNL     1      -0.052   1.546   0.068  0.00  0.00    +0.004 C 
ATOM     15  C   UNL     1      -0.025   0.017   0.045  0.00  0.00    -0.003 C 
ENDBRANCH  13  15
ENDBRANCH  12  13
ENDBRANCH   1  12
BRANCH  10  16
ATOM     16  C   UNL     1       0.251  -4.845   2.620  0.00  0.00    +0.142 C 
BRANCH  16  17
ATOM     17  C   UNL     1      -0.161  -4.976   4.064  0.00  0.00    -0.030 A 
ATOM     18  C   UNL     1       0.417  -5.949   4.859  0.00  0.00    +0.006 A 
ATOM     19  C   UNL     1       0.044  -6.074   6.182  0.00  0.00    +0.009 A 
ATOM     20  C   UNL     1      -0.917  -5.217   6.716  0.00  0.00    -0.017 A 
ATOM     21  C   UNL     1      -1.497  -4.238   5.909  0.00  0.00    +0.009 A 
ATOM     22  C   UNL     1      -1.112  -4.120   4.590  0.00  0.00    +0.006 A 
BRANCH  20  23
ATOM     23  C   UNL     1      -1.323  -5.346   8.136  0.00  0.00    -0.007 A 
ATOM     24  C   UNL     1      -1.677  -6.589   8.652  0.00  0.00    +0.009 A 
ATOM     25  C   UNL     1      -2.054  -6.705   9.975  0.00  0.00    +0.001 A 
ATOM     26  C   UNL     1      -2.082  -5.590  10.796  0.00  0.00    +0.001 A 
ATOM     27  C   UNL     1      -1.734  -4.350  10.302  0.00  0.00    +0.012 A 
ATOM     28  C   UNL     1      -1.345  -4.216   8.970  0.00  0.00    +0.030 A 
BRANCH  28  29
ATOM     29  C   UNL     1      -0.966  -2.890   8.437  0.00  0.00    +0.207 A 
ATOM     30  N   UNL     1      -0.586  -2.610   7.188  0.00  0.00    -0.106 NA
ATOM     31  N   UNL     1      -0.343  -1.345   7.131  0.00  0.00    -0.021 NA
ATOM     32  N   UNL     1      -0.553  -0.820   8.287  0.00  0.00    -0.021 NA
ATOM     33  N   UNL     1      -0.941  -1.736   9.107  0.00  0.00    -0.106 NA
ENDBRANCH  28  29
ENDBRANCH  20  23
ENDBRANCH  16  17
ENDBRANCH  10  16
BRANCH   6  34
ATOM     34  C   UNL     1       5.199  -7.301   2.412  0.00  0.00    +0.249 C 
BRANCH  34  35
ATOM     35  C   UNL     1       5.465  -7.727   3.833  0.00  0.00    +0.375 C 
ATOM     36  O   UNL     1       5.221  -6.966   4.754  0.00  0.00    -0.244 OA
ATOM     37  O   UNL     1       5.923  -8.834   4.062  0.00  0.00    -0.244 OA
ENDBRANCH  34  35
ENDBRANCH   6  34
TORSDOF 9
