REMARK  Name = ZINC36316112
REMARK  19 active torsions:
REMARK  status: ('A' for Active; 'I' for Inactive)
REMARK    1  A    between atoms: C_1  and  C_2
REMARK    2  A    between atoms: C_2  and  C_3
REMARK    3  A    between atoms: C_2  and  C_4
REMARK    4  A    between atoms: C_4  and  N_5
REMARK    5  A    between atoms: N_5  and  C_6
REMARK    6  A    between atoms: N_5  and  C_28
REMARK    7  A    between atoms: C_6  and  C_7
REMARK    8  A    between atoms: C_8  and  C_22
REMARK    9  A    between atoms: N_10  and  C_21
REMARK   10  A    between atoms: C_11  and  O_12
REMARK   11  A    between atoms: O_12  and  C_13
REMARK   12  A    between atoms: C_28  and  C_29
REMARK   13  A    between atoms: C_29  and  C_31
REMARK   14  A    between atoms: C_29  and  O_37
REMARK   15  A    between atoms: C_31  and  O_32
REMARK   16  A    between atoms: O_32  and  C_33
REMARK   17  A    between atoms: C_33  and  C_34
REMARK   18  A    between atoms: C_33  and  C_35
REMARK   19  A    between atoms: C_33  and  C_36
REMARK                            x       y       z     vdW  Elec       q    Type
REMARK                         _______ _______ _______ _____ _____    ______ ____
ROOT
ATOM      1  C   UNL     1      -3.595   1.398  -0.024  0.00  0.00    +0.025 A 
ATOM      2  C   UNL     1      -3.638   1.121   1.355  0.00  0.00    +0.098 A 
ATOM      3  N   UNL     1      -4.061   2.201   1.977  0.00  0.00    -0.168 NA
ATOM      4  N   UNL     1      -4.301   3.194   1.018  0.00  0.00    -0.235 N 
ATOM      5  C   UNL     1      -4.003   2.681  -0.203  0.00  0.00    +0.221 A 
ATOM      6  C   UNL     1      -4.783   4.551   1.287  0.00  0.00    +0.176 C 
ENDROOT
BRANCH   2   7
ATOM      7  C   UNL     1      -3.268  -0.165   1.998  0.00  0.00    +0.002 A 
ATOM      8  C   UNL     1      -2.508  -0.170   3.165  0.00  0.00    +0.010 A 
ATOM      9  C   UNL     1      -2.167  -1.369   3.758  0.00  0.00    +0.001 A 
ATOM     10  C   UNL     1      -2.579  -2.564   3.195  0.00  0.00    +0.000 A 
ATOM     11  C   UNL     1      -3.334  -2.564   2.036  0.00  0.00    +0.001 A 
ATOM     12  C   UNL     1      -3.686  -1.371   1.438  0.00  0.00    +0.010 A 
ENDBRANCH   2   7
BRANCH   1  13
ATOM     13  C   UNL     1      -3.168   0.443  -1.109  0.00  0.00    -0.035 C 
BRANCH  13  14
ATOM     14  N   UNL     1      -1.760   0.687  -1.449  0.00  0.00    +0.384 N 
ATOM     15  H   UNL     1      -1.645   1.647  -1.736  0.00  0.00    -0.081 HD
BRANCH  14  16
ATOM     16  C   UNL     1      -0.919   0.423  -0.274  0.00  0.00    -0.075 C 
BRANCH  16  18
ATOM     17  C   UNL     1       0.598   2.334  -0.810  0.00  0.00    +0.005 C 
ATOM     18  C   UNL     1       0.525   0.823  -0.580  0.00  0.00    -0.034 C 
ATOM     19  C   UNL     1       1.421   0.444   0.602  0.00  0.00    +0.005 C 
ENDBRANCH  16  18
ENDBRANCH  14  16
BRANCH  14  20
ATOM     20  C   UNL     1      -1.360  -0.203  -2.547  0.00  0.00    -0.044 C 
BRANCH  20  21
ATOM     21  C   UNL     1      -2.113   0.187  -3.820  0.00  0.00    +0.124 C 
BRANCH  21  22
ATOM     22  O   UNL     1      -3.500  -0.119  -3.666  0.00  0.00    -0.391 OA
ATOM     23  H   UNL     1      -3.681  -1.055  -3.504  0.00  0.00    +0.210 HD
ENDBRANCH  21  22
BRANCH  21  24
ATOM     24  C   UNL     1      -1.547  -0.595  -5.008  0.00  0.00    +0.189 C 
BRANCH  24  25
ATOM     25  O   UNL     1      -2.170  -0.146  -6.213  0.00  0.00    -0.372 OA
BRANCH  25  26
ATOM     26  C   UNL     1      -1.710  -0.816  -7.389  0.00  0.00    +0.061 C 
ATOM     27  C   UNL     1      -1.992  -2.314  -7.265  0.00  0.00    +0.041 C 
ATOM     28  C   UNL     1      -2.440  -0.258  -8.612  0.00  0.00    +0.041 C 
ATOM     29  C   UNL     1      -0.204  -0.592  -7.547  0.00  0.00    +0.041 C 
ENDBRANCH  25  26
ENDBRANCH  24  25
ENDBRANCH  21  24
ENDBRANCH  20  21
ENDBRANCH  14  20
ENDBRANCH  13  14
ENDBRANCH   1  13
BRANCH   5  30
ATOM     30  O   UNL     1      -4.098   3.332  -1.390  0.00  0.00    -0.435 OA
BRANCH  30  31
ATOM     31  C   UNL     1      -5.300   3.328  -2.026  0.00  0.00    +0.166 A 
ATOM     32  C   UNL     1      -6.408   2.764  -1.412  0.00  0.00    +0.052 A 
ATOM     33  C   UNL     1      -7.629   2.760  -2.059  0.00  0.00    +0.042 A 
ATOM     34  C   UNL     1      -7.747   3.319  -3.321  0.00  0.00    +0.126 A 
ATOM     35  C   UNL     1      -6.643   3.883  -3.936  0.00  0.00    +0.080 A 
ATOM     36  C   UNL     1      -5.420   3.894  -3.289  0.00  0.00    +0.168 A 
ATOM     37  F   UNL     1      -4.343   4.449  -3.886  0.00  0.00    -0.202 F 
ATOM     38  F   UNL     1      -8.942   3.314  -3.952  0.00  0.00    -0.205 F 
ENDBRANCH  30  31
ENDBRANCH   5  30
TORSDOF 13
