REMARK  Name = ZINC21248487
REMARK  12 active torsions:
REMARK  status: ('A' for Active; 'I' for Inactive)
REMARK    1  A    between atoms: C_1  and  C_2
REMARK    2  A    between atoms: C_2  and  O_3
REMARK    3  A    between atoms: O_3  and  C_4
REMARK    4  A    between atoms: C_7  and  C_10
REMARK    5  A    between atoms: C_15  and  C_25
REMARK    6  A    between atoms: C_28  and  O_34
REMARK    7  A    between atoms: C_29  and  O_31
REMARK    8  A    between atoms: O_31  and  C_32
REMARK    9  A    between atoms: C_32  and  C_33
REMARK   10  A    between atoms: O_34  and  C_35
REMARK   11  A    between atoms: C_35  and  C_36
REMARK   12  A    between atoms: C_35  and  C_37
REMARK                            x       y       z     vdW  Elec       q    Type
REMARK                         _______ _______ _______ _____ _____    ______ ____
ROOT
ATOM      1  C   UNL     1       5.912   2.237   3.574  0.00  0.00    +0.032 C 
ATOM      2  C   UNL     1       4.848   3.318   3.389  0.00  0.00    +0.059 C 
ATOM      3  C   UNL     1       4.350   3.314   1.953  0.00  0.00    +0.017 C 
ATOM      4  C   UNL     1       4.281   2.165   1.262  0.00  0.00    +0.036 C 
ATOM      5  C   UNL     1       3.774   2.010  -0.152  0.00  0.00    +0.136 C 
ATOM      6  N   UNL     1       3.587   3.258  -0.861  0.00  0.00    -0.331 N 
ATOM      7  C   UNL     1       2.638   4.189  -0.443  0.00  0.00    +0.049 A 
ATOM      8  C   UNL     1       1.540   4.505  -1.228  0.00  0.00    +0.025 A 
ATOM      9  C   UNL     1       0.600   5.402  -0.752  0.00  0.00    +0.002 A 
ATOM     10  C   UNL     1       0.750   5.977   0.497  0.00  0.00    +0.002 A 
ATOM     11  C   UNL     1       1.854   5.676   1.276  0.00  0.00    +0.025 A 
ATOM     12  C   UNL     1       2.806   4.795   0.792  0.00  0.00    +0.052 A 
ATOM     13  N   UNL     1       3.988   4.532   1.476  0.00  0.00    -0.316 N 
ATOM     14  C   UNL     1       4.710   0.952   1.850  0.00  0.00    +0.163 C 
ATOM     15  O   UNL     1       4.624  -0.074   1.205  0.00  0.00    -0.292 OA
ATOM     16  C   UNL     1       5.266   0.886   3.241  0.00  0.00    +0.088 C 
ATOM     17  H   UNL     1       4.201   3.485  -1.746  0.00  0.00    +0.147 HD
ATOM     18  H   UNL     1       4.650   5.399   1.619  0.00  0.00    +0.152 HD
ENDROOT
BRANCH   1  22
ATOM     19  C   UNL     1       7.285   2.231   7.620  0.00  0.00    +0.121 A 
ATOM     20  C   UNL     1       8.177   2.466   6.584  0.00  0.00    +0.046 A 
ATOM     21  C   UNL     1       7.730   2.468   5.277  0.00  0.00    +0.007 A 
ATOM     22  C   UNL     1       6.396   2.235   5.001  0.00  0.00    -0.043 A 
ATOM     23  C   UNL     1       5.504   2.006   6.032  0.00  0.00    +0.007 A 
ATOM     24  C   UNL     1       5.946   1.998   7.341  0.00  0.00    +0.046 A 
BRANCH  19  25
ATOM     25  O   UNL     1       7.721   2.229   8.907  0.00  0.00    -0.492 OA
BRANCH  25  27
ATOM     26  C   UNL     1       7.421   2.017  11.296  0.00  0.00    +0.048 C 
ATOM     27  C   UNL     1       6.747   1.980   9.923  0.00  0.00    +0.225 C 
ENDBRANCH  25  27
ENDBRANCH  19  25
ENDBRANCH   1  22
BRANCH   5  28
ATOM     28  C   UNL     1       2.455   1.282  -0.110  0.00  0.00    -0.019 A 
ATOM     29  C   UNL     1       1.361   1.872   0.498  0.00  0.00    +0.009 A 
ATOM     30  C   UNL     1       0.149   1.208   0.539  0.00  0.00    +0.050 A 
ATOM     31  C   UNL     1       0.029  -0.050  -0.028  0.00  0.00    +0.162 A 
ATOM     32  C   UNL     1       1.129  -0.643  -0.639  0.00  0.00    +0.162 A 
ATOM     33  C   UNL     1       2.341   0.027  -0.677  0.00  0.00    +0.055 A 
BRANCH  32  34
ATOM     34  O   UNL     1       1.015  -1.878  -1.197  0.00  0.00    -0.489 OA
BRANCH  34  35
ATOM     35  C   UNL     1       2.186  -2.425  -1.807  0.00  0.00    +0.226 C 
ATOM     36  C   UNL     1       1.867  -3.809  -2.375  0.00  0.00    +0.048 C 
ENDBRANCH  34  35
ENDBRANCH  32  34
BRANCH  31  37
ATOM     37  O   UNL     1      -1.163  -0.704   0.012  0.00  0.00    -0.486 OA
BRANCH  37  38
ATOM     38  C   UNL     1      -2.235  -0.057   0.701  0.00  0.00    +0.167 C 
ATOM     39  C   UNL     1      -3.572  -0.576   0.166  0.00  0.00    +0.051 C 
ATOM     40  C   UNL     1      -2.135  -0.357   2.198  0.00  0.00    +0.051 C 
ENDBRANCH  37  38
ENDBRANCH  31  37
ENDBRANCH   5  28
TORSDOF 8
