REMARK  Name = ZINC62075398
REMARK  3 active torsions:
REMARK  status: ('A' for Active; 'I' for Inactive)
REMARK    1  A    between atoms: C_1  and  C_2
REMARK    2  A    between atoms: C_2  and  C_3
REMARK    3  A    between atoms: C_2  and  C_4
REMARK                            x       y       z     vdW  Elec       q    Type
REMARK                         _______ _______ _______ _____ _____    ______ ____
ROOT
ATOM      1  C   UNL     1       0.603  -0.549  -1.268  0.00  0.00    +0.218 C 
ATOM      2  O   UNL     1      -0.084  -1.184  -2.040  0.00  0.00    -0.275 OA
ATOM      3  N   UNL     1       1.900  -0.321  -1.552  0.00  0.00    -0.297 N 
ATOM      4  C   UNL     1       2.489  -0.740  -2.835  0.00  0.00    +0.113 C 
ATOM      5  C   UNL     1       2.915   0.519  -3.589  0.00  0.00    +0.054 C 
ATOM      6  C   UNL     1       3.688   1.447  -2.689  0.00  0.00    -0.038 A 
ATOM      7  C   UNL     1       4.498   2.401  -3.293  0.00  0.00    +0.053 A 
ATOM      8  C   UNL     1       5.229   3.292  -2.530  0.00  0.00    +0.167 A 
ATOM      9  C   UNL     1       5.151   3.233  -1.140  0.00  0.00    +0.167 A 
ATOM     10  C   UNL     1       4.346   2.281  -0.542  0.00  0.00    +0.055 A 
ATOM     11  C   UNL     1       3.619   1.385  -1.315  0.00  0.00    -0.023 A 
ATOM     12  C   UNL     1       2.782   0.361  -0.598  0.00  0.00    +0.143 C 
ATOM     13  O   UNL     1       5.950   4.207  -0.616  0.00  0.00    -0.453 OA
ATOM     14  C   UNL     1       6.835   4.594  -1.685  0.00  0.00    +0.466 C 
ATOM     15  O   UNL     1       6.080   4.301  -2.876  0.00  0.00    -0.453 OA
ENDROOT
BRANCH   1  17
ATOM     16  C   UNL     1      -0.651   1.338  -0.262  0.00  0.00    +0.017 C 
ATOM     17  C   UNL     1       0.006  -0.017   0.009  0.00  0.00    +0.069 C 
ATOM     18  C   UNL     1      -1.046  -0.999   0.529  0.00  0.00    +0.017 C 
ENDBRANCH   1  17
TORSDOF 1
