REMARK  Name = ZINC34367679
REMARK  10 active torsions:
REMARK  status: ('A' for Active; 'I' for Inactive)
REMARK    1  A    between atoms: C_1  and  O_2
REMARK    2  A    between atoms: O_2  and  C_3
REMARK    3  A    between atoms: C_3  and  C_5
REMARK    4  A    between atoms: C_8  and  C_11
REMARK    5  A    between atoms: N_19  and  C_22
REMARK    6  A    between atoms: C_22  and  C_23
REMARK    7  A    between atoms: C_23  and  O_24
REMARK    8  A    between atoms: C_25  and  C_27
REMARK    9  A    between atoms: C_25  and  C_38
REMARK   10  A    between atoms: C_27  and  C_28
REMARK                            x       y       z     vdW  Elec       q    Type
REMARK                         _______ _______ _______ _____ _____    ______ ____
ROOT
ATOM      1  C   UNL     1      -1.413  -6.381  -0.019  0.00  0.00    -0.027 C 
ATOM      2  C   UNL     1      -1.837  -6.884  -1.389  0.00  0.00    +0.077 C 
ATOM      3  C   UNL     1      -3.399  -6.802  -1.194  0.00  0.00    +0.086 C 
ATOM      4  C   UNL     1      -3.869  -6.884  -2.554  0.00  0.00    +0.225 C 
ATOM      5  O   UNL     1      -4.887  -7.408  -2.953  0.00  0.00    -0.275 OA
ATOM      6  N   UNL     1      -2.913  -6.240  -3.301  0.00  0.00    -0.240 N 
ATOM      7  C   UNL     1      -1.749  -6.012  -2.603  0.00  0.00    +0.224 C 
ATOM      8  O   UNL     1      -0.843  -5.263  -2.899  0.00  0.00    -0.275 OA
ATOM      9  C   UNL     1      -3.580  -7.470   0.106  0.00  0.00    +0.052 C 
ATOM     10  N   UNL     1      -2.463  -6.862   0.929  0.00  0.00    +0.396 N 
ATOM     11  H   UNL     1      -2.075  -7.564   1.542  0.00  0.00    -0.083 HD
ATOM     12  H   UNL     1      -2.812  -6.088   1.474  0.00  0.00    -0.083 HD
ENDROOT
BRANCH   1  16
ATOM     13  C   UNL     1      -1.247  -2.108   0.003  0.00  0.00    +0.059 A 
ATOM     14  C   UNL     1      -2.462  -2.764   0.213  0.00  0.00    +0.015 A 
ATOM     15  C   UNL     1      -2.508  -4.142   0.205  0.00  0.00    +0.003 A 
ATOM     16  C   UNL     1      -1.354  -4.875  -0.011  0.00  0.00    -0.061 A 
ATOM     17  C   UNL     1      -0.147  -4.232  -0.220  0.00  0.00    +0.003 A 
ATOM     18  C   UNL     1      -0.088  -2.854  -0.220  0.00  0.00    +0.015 A 
BRANCH  13  19
ATOM     19  C   UNL     1      -1.190  -0.632   0.010  0.00  0.00    +0.339 C 
ATOM     20  O   UNL     1      -0.133  -0.064  -0.178  0.00  0.00    -0.245 OA
BRANCH  19  22
ATOM     21  C   UNL     1      -2.181   1.508   0.219  0.00  0.00    +0.280 C 
ATOM     22  O   UNL     1      -2.310   0.085   0.226  0.00  0.00    -0.464 OA
ENDBRANCH  19  22
ENDBRANCH  13  19
ENDBRANCH   1  16
BRANCH   9  23
ATOM     23  C   UNL     1      -3.417  -8.962  -0.032  0.00  0.00    +0.347 C 
ATOM     24  O   UNL     1      -2.547  -9.541   0.597  0.00  0.00    -0.248 OA
ATOM     25  O   UNL     1      -4.155  -9.590  -0.771  0.00  0.00    -0.248 OA
ENDBRANCH   9  23
BRANCH   6  26
ATOM     26  C   UNL     1      -3.106  -5.845  -4.699  0.00  0.00    +0.144 C 
BRANCH  26  27
ATOM     27  C   UNL     1      -3.694  -4.434  -4.754  0.00  0.00    +0.175 C 
BRANCH  27  28
ATOM     28  O   UNL     1      -2.749  -3.502  -4.225  0.00  0.00    -0.393 OA
ATOM     29  H   UNL     1      -3.056  -2.585  -4.229  0.00  0.00    +0.209 HD
ENDBRANCH  27  28
ENDBRANCH  26  27
ENDBRANCH   6  26
BRANCH   9  30
ATOM     30  C   UNL     1      -4.942  -7.124   0.711  0.00  0.00    +0.035 C 
BRANCH  30  31
ATOM     31  C   UNL     1      -5.046  -7.722   2.090  0.00  0.00    -0.048 A 
ATOM     32  C   UNL     1      -5.556  -9.009   2.244  0.00  0.00    +0.004 A 
ATOM     33  C   UNL     1      -5.663  -9.579   3.475  0.00  0.00    +0.009 A 
ATOM     34  C   UNL     1      -5.254  -8.860   4.612  0.00  0.00    -0.018 A 
ATOM     35  C   UNL     1      -5.349  -9.414   5.899  0.00  0.00    +0.008 A 
ATOM     36  C   UNL     1      -4.942  -8.689   6.977  0.00  0.00    +0.001 A 
ATOM     37  C   UNL     1      -4.431  -7.401   6.823  0.00  0.00    +0.001 A 
ATOM     38  C   UNL     1      -4.325  -6.832   5.592  0.00  0.00    +0.008 A 
ATOM     39  C   UNL     1      -4.734  -7.551   4.455  0.00  0.00    -0.018 A 
ATOM     40  C   UNL     1      -4.634  -6.998   3.167  0.00  0.00    +0.012 A 
ENDBRANCH  30  31
ENDBRANCH   9  30
TORSDOF 9
