REMARK  Name = ZINC63281779
REMARK  6 active torsions:
REMARK  status: ('A' for Active; 'I' for Inactive)
REMARK    1  A    between atoms: C_1  and  O_2
REMARK    2  A    between atoms: O_2  and  C_3
REMARK    3  A    between atoms: C_8  and  O_9
REMARK    4  A    between atoms: O_9  and  C_10
REMARK    5  A    between atoms: C_10  and  C_11
REMARK    6  A    between atoms: C_14  and  C_21
REMARK                            x       y       z     vdW  Elec       q    Type
REMARK                         _______ _______ _______ _____ _____    ______ ____
ROOT
ATOM      1  C   UNL     1      -0.453  -4.838   0.897  0.00  0.00    +0.132 C 
ATOM      2  N   UNL     1      -1.034  -4.278   1.905  0.00  0.00    -0.175 NA
ATOM      3  N   UNL     1      -1.565  -4.987   2.961  0.00  0.00    -0.206 N 
ATOM      4  C   UNL     1      -1.988  -4.902   4.379  0.00  0.00    +0.202 C 
ATOM      5  N   UNL     1      -1.566  -6.183   4.994  0.00  0.00    -0.231 NA
ATOM      6  N   UNL     1      -1.019  -7.011   3.905  0.00  0.00    -0.224 NA
ATOM      7  C   UNL     1      -1.680  -6.458   2.707  0.00  0.00    +0.240 C 
ATOM      8  S   UNL     1      -0.619  -6.588   1.221  0.00  0.00    -0.064 S 
ATOM      9  H   UNL     1      -0.876  -6.028   5.713  0.00  0.00    +0.143 HD
ATOM     10  H   UNL     1      -0.016  -6.911   3.844  0.00  0.00    +0.144 HD
ENDROOT
BRANCH   4  11
ATOM     11  C   UNL     1      -3.507  -4.743   4.469  0.00  0.00    +0.141 C 
ATOM     12  C   UNL     1      -3.950  -3.517   3.702  0.00  0.00    +0.010 C 
ATOM     13  C   UNL     1      -4.539  -2.702   4.607  0.00  0.00    -0.004 A 
ATOM     14  C   UNL     1      -5.166  -1.379   4.493  0.00  0.00    +0.010 A 
ATOM     15  C   UNL     1      -5.680  -0.800   5.602  0.00  0.00    +0.001 A 
ATOM     16  C   UNL     1      -5.631  -1.430   6.853  0.00  0.00    +0.002 A 
ATOM     17  C   UNL     1      -5.072  -2.645   7.036  0.00  0.00    +0.026 A 
ATOM     18  C   UNL     1      -4.500  -3.346   5.939  0.00  0.00    +0.043 A 
ATOM     19  N   UNL     1      -3.910  -4.516   5.862  0.00  0.00    -0.375 N 
ATOM     20  H   UNL     1      -3.764  -5.127   6.600  0.00  0.00    +0.160 HD
ENDBRANCH   4  11
BRANCH   1  21
ATOM     21  C   UNL     1       0.206  -4.171  -0.283  0.00  0.00    +0.293 C 
BRANCH  21  22
ATOM     22  O   UNL     1       0.112  -2.753  -0.142  0.00  0.00    -0.482 OA
BRANCH  22  28
ATOM     23  C   UNL     1       0.606  -0.608  -1.056  0.00  0.00    +0.162 A 
ATOM     24  C   UNL     1       1.173   0.159  -2.062  0.00  0.00    +0.049 A 
ATOM     25  C   UNL     1       1.787  -0.456  -3.137  0.00  0.00    +0.004 A 
ATOM     26  C   UNL     1       1.837  -1.836  -3.212  0.00  0.00    +0.004 A 
ATOM     27  C   UNL     1       1.273  -2.606  -2.212  0.00  0.00    +0.049 A 
ATOM     28  C   UNL     1       0.662  -1.996  -1.129  0.00  0.00    +0.162 A 
BRANCH  23  30
ATOM     29  C   UNL     1      -0.017   1.425   0.010  0.00  0.00    +0.277 C 
ATOM     30  O   UNL     1       0.002  -0.004   0.002  0.00  0.00    -0.491 OA
ENDBRANCH  23  30
ENDBRANCH  22  28
ENDBRANCH  21  22
ENDBRANCH   1  21
TORSDOF 5
