REMARK  Name = ZINC08789211
REMARK  7 active torsions:
REMARK  status: ('A' for Active; 'I' for Inactive)
REMARK    1  A    between atoms: C_1  and  C_2
REMARK    2  A    between atoms: C_2  and  O_4
REMARK    3  A    between atoms: O_4  and  C_5
REMARK    4  A    between atoms: C_8  and  N_11
REMARK    5  A    between atoms: C_16  and  C_32
REMARK    6  A    between atoms: C_32  and  C_33
REMARK    7  A    between atoms: C_33  and  C_34
REMARK                            x       y       z     vdW  Elec       q    Type
REMARK                         _______ _______ _______ _____ _____    ______ ____
ROOT
ATOM      1  N   UNL     1       2.111   1.747   2.996  0.00  0.00    -0.210 N 
ATOM      2  C   UNL     1       1.426   0.883   2.237  0.00  0.00    +0.228 C 
ATOM      3  O   UNL     1       1.916   0.087   1.467  0.00  0.00    -0.275 OA
ATOM      4  C   UNL     1      -0.054   1.056   2.491  0.00  0.00    +0.073 C 
ATOM      5  C   UNL     1      -0.724   1.639   1.229  0.00  0.00    -0.057 C 
ATOM      6  C   UNL     1      -0.790   3.364   2.804  0.00  0.00    +0.050 C 
ATOM      7  C   UNL     1      -0.108   2.203   3.538  0.00  0.00    +0.088 C 
ATOM      8  C   UNL     1       1.350   2.534   3.766  0.00  0.00    +0.229 C 
ATOM      9  O   UNL     1       1.766   3.379   4.529  0.00  0.00    -0.275 OA
ATOM     10  C   UNL     1      -2.252   3.446   3.142  0.00  0.00    -0.028 A 
ATOM     11  C   UNL     1      -3.306   2.569   3.011  0.00  0.00    +0.004 A 
ATOM     12  C   UNL     1      -4.572   2.942   3.424  0.00  0.00    +0.000 A 
ATOM     13  C   UNL     1      -4.777   4.197   3.968  0.00  0.00    +0.002 A 
ATOM     14  C   UNL     1      -3.724   5.078   4.102  0.00  0.00    +0.023 A 
ATOM     15  C   UNL     1      -2.446   4.711   3.689  0.00  0.00    +0.036 A 
ATOM     16  N   UNL     1      -1.239   5.413   3.720  0.00  0.00    -0.286 N 
ATOM     17  C   UNL     1      -0.218   4.691   3.220  0.00  0.00    +0.211 C 
ATOM     18  O   UNL     1       0.939   5.043   3.123  0.00  0.00    -0.277 OA
ATOM     19  H   UNL     1      -1.147   6.316   4.062  0.00  0.00    +0.155 HD
ATOM     20  N   UNL     1      -0.590   3.088   1.391  0.00  0.00    +0.394 N 
ATOM     21  H   UNL     1      -1.298   3.576   0.830  0.00  0.00    -0.083 HD
ATOM     22  H   UNL     1       0.347   3.393   1.100  0.00  0.00    -0.083 HD
ENDROOT
BRANCH   1  26
ATOM     23  C   UNL     1       6.276   1.968   2.963  0.00  0.00    +0.132 A 
ATOM     24  C   UNL     1       5.521   3.031   2.487  0.00  0.00    +0.048 A 
ATOM     25  C   UNL     1       4.143   2.958   2.498  0.00  0.00    +0.027 A 
ATOM     26  C   UNL     1       3.511   1.821   2.985  0.00  0.00    +0.044 A 
ATOM     27  C   UNL     1       4.267   0.761   3.467  0.00  0.00    +0.027 A 
ATOM     28  C   UNL     1       5.646   0.832   3.450  0.00  0.00    +0.048 A 
BRANCH  23  29
ATOM     29  O   UNL     1       7.634   2.040   2.953  0.00  0.00    -0.426 OA
BRANCH  29  31
ATOM     30  C   UNL     1       9.700   3.033   3.870  0.00  0.00    +0.136 C 
ATOM     31  C   UNL     1       8.211   2.805   3.894  0.00  0.00    +0.309 C 
ATOM     32  O   UNL     1       7.536   3.310   4.759  0.00  0.00    -0.251 OA
ENDBRANCH  29  31
ENDBRANCH  23  29
ENDBRANCH   1  26
BRANCH   5  33
ATOM     33  C   UNL     1      -0.006   1.149  -0.030  0.00  0.00    -0.006 C 
BRANCH  33  34
ATOM     34  C   UNL     1      -0.738   1.668  -1.269  0.00  0.00    +0.094 C 
BRANCH  34  35
ATOM     35  C   UNL     1      -0.030   1.185  -2.509  0.00  0.00    +0.210 C 
ATOM     36  O   UNL     1       0.962   0.494  -2.411  0.00  0.00    -0.276 OA
ATOM     37  N   UNL     1      -0.499   1.521  -3.727  0.00  0.00    -0.329 N 
ATOM     38  H   UNL     1      -1.292   2.074  -3.805  0.00  0.00    +0.145 HD
ATOM     39  H   UNL     1      -0.044   1.210  -4.525  0.00  0.00    +0.145 HD
ENDBRANCH  34  35
ENDBRANCH  33  34
ENDBRANCH   5  33
TORSDOF 6
