REMARK  Name = ZINC40562378
REMARK  5 active torsions:
REMARK  status: ('A' for Active; 'I' for Inactive)
REMARK    1  A    between atoms: C_4  and  N_7
REMARK    2  A    between atoms: C_14  and  N_21
REMARK    3  A    between atoms: C_15  and  N_18
REMARK    4  A    between atoms: N_21  and  C_22
REMARK    5  A    between atoms: C_22  and  C_23
REMARK                            x       y       z     vdW  Elec       q    Type
REMARK                         _______ _______ _______ _____ _____    ______ ____
ROOT
ATOM      1  N   UNL     1       3.611  -0.672  -0.055  0.00  0.00    -0.275 N 
ATOM      2  C   UNL     1       3.628  -2.044  -0.212  0.00  0.00    +0.059 A 
ATOM      3  C   UNL     1       2.445  -2.763  -0.354  0.00  0.00    +0.027 A 
ATOM      4  C   UNL     1       2.492  -4.132  -0.509  0.00  0.00    +0.002 A 
ATOM      5  C   UNL     1       3.707  -4.801  -0.526  0.00  0.00    +0.001 A 
ATOM      6  C   UNL     1       4.881  -4.114  -0.389  0.00  0.00    +0.012 A 
ATOM      7  C   UNL     1       4.856  -2.727  -0.230  0.00  0.00    +0.022 A 
ATOM      8  C   UNL     1       6.099  -1.955  -0.080  0.00  0.00    +0.073 A 
ATOM      9  C   UNL     1       6.006  -0.597   0.073  0.00  0.00    +0.212 A 
ATOM     10  C   UNL     1       4.752   0.027   0.076  0.00  0.00    +0.288 A 
ATOM     11  O   UNL     1       4.693   1.239   0.208  0.00  0.00    -0.265 OA
ENDROOT
BRANCH   1  15
ATOM     12  C   UNL     1      -0.037   1.340  -0.003  0.00  0.00    +0.000 A 
ATOM     13  C   UNL     1       0.488   0.834   1.171  0.00  0.00    +0.002 A 
ATOM     14  C   UNL     1       1.697   0.166   1.158  0.00  0.00    +0.026 A 
ATOM     15  C   UNL     1       2.385   0.004  -0.038  0.00  0.00    +0.050 A 
ATOM     16  C   UNL     1       1.855   0.513  -1.216  0.00  0.00    +0.026 A 
ATOM     17  C   UNL     1       0.645   1.180  -1.195  0.00  0.00    +0.002 A 
ENDBRANCH   1  15
BRANCH   9  18
ATOM     18  N   UNL     1       7.234   0.215   0.227  0.00  0.00    +0.064 N 
ATOM     19  O   UNL     1       8.320  -0.307   0.127  0.00  0.00    -0.126 OA
ATOM     20  O   UNL     1       7.152   1.399   0.454  0.00  0.00    -0.126 OA
ENDBRANCH   9  18
BRANCH   8  21
ATOM     21  N   UNL     1       7.327  -2.582  -0.091  0.00  0.00    -0.337 N 
ATOM     22  H   UNL     1       7.976  -2.366  -0.779  0.00  0.00    +0.146 HD
BRANCH  21  23
ATOM     23  C   UNL     1       7.651  -3.575   0.936  0.00  0.00    +0.137 C 
BRANCH  23  24
ATOM     24  C   UNL     1       8.985  -4.203   0.624  0.00  0.00    -0.027 A 
ATOM     25  C   UNL     1       9.046  -5.335  -0.169  0.00  0.00    +0.009 A 
ATOM     26  C   UNL     1      10.267  -5.914  -0.458  0.00  0.00    +0.050 A 
ATOM     27  C   UNL     1      11.434  -5.362   0.046  0.00  0.00    +0.166 A 
ATOM     28  C   UNL     1      11.372  -4.223   0.845  0.00  0.00    +0.167 A 
ATOM     29  C   UNL     1      10.145  -3.644   1.126  0.00  0.00    +0.054 A 
ATOM     30  O   UNL     1      12.641  -3.879   1.212  0.00  0.00    -0.453 OA
ATOM     31  C   UNL     1      13.442  -5.051   0.970  0.00  0.00    +0.466 C 
ATOM     32  O   UNL     1      12.741  -5.732  -0.086  0.00  0.00    -0.453 OA
ENDBRANCH  23  24
ENDBRANCH  21  23
ENDBRANCH   8  21
TORSDOF 5
