REMARK  Name = ZINC54227008
REMARK  9 active torsions:
REMARK  status: ('A' for Active; 'I' for Inactive)
REMARK    1  A    between atoms: C_1  and  C_2
REMARK    2  A    between atoms: C_6  and  N_9
REMARK    3  A    between atoms: C_7  and  C_8
REMARK    4  A    between atoms: C_10  and  C_12
REMARK    5  A    between atoms: C_12  and  N_13
REMARK    6  A    between atoms: C_16  and  C_20
REMARK    7  A    between atoms: C_16  and  C_21
REMARK    8  A    between atoms: C_21  and  C_22
REMARK    9  A    between atoms: C_21  and  C_23
REMARK                            x       y       z     vdW  Elec       q    Type
REMARK                         _______ _______ _______ _____ _____    ______ ____
ROOT
ATOM      1  C   UNL     1      -0.129  -4.898   3.686  0.00  0.00    +0.214 C 
ENDROOT
BRANCH   1   2
ATOM      2  N   UNL     1      -0.207  -6.335   3.410  0.00  0.00    -0.215 N 
ATOM      3  C   UNL     1      -1.360  -7.007   3.220  0.00  0.00    +0.247 C 
ATOM      4  O   UNL     1      -2.484  -6.554   3.243  0.00  0.00    -0.273 OA
ATOM      5  C   UNL     1      -0.958  -8.447   2.970  0.00  0.00    +0.112 C 
ATOM      6  N   UNL     1       0.512  -8.416   3.056  0.00  0.00    -0.285 N 
ATOM      7  C   UNL     1       0.856  -7.141   3.311  0.00  0.00    +0.310 C 
ATOM      8  O   UNL     1       2.004  -6.763   3.441  0.00  0.00    -0.252 OA
ATOM      9  C   UNL     1      -1.541  -9.364   4.047  0.00  0.00    +0.042 C 
ATOM     10  H   UNL     1       1.115  -9.168   2.948  0.00  0.00    +0.151 HD
BRANCH   5  11
ATOM     11  C   UNL     1      -1.406  -8.897   1.578  0.00  0.00    +0.015 C 
ATOM     12  C   UNL     1      -1.099 -10.386   1.399  0.00  0.00    +0.010 C 
ATOM     13  C   UNL     1      -2.910  -8.665   1.426  0.00  0.00    +0.010 C 
ENDBRANCH   5  11
ENDBRANCH   1   2
BRANCH   1  15
ATOM     14  N   UNL     1       0.052  -2.797   2.393  0.00  0.00    -0.284 N 
ATOM     15  C   UNL     1      -0.031  -4.143   2.385  0.00  0.00    +0.235 C 
ATOM     16  O   UNL     1      -0.028  -4.745   1.333  0.00  0.00    -0.274 OA
ATOM     17  H   UNL     1       0.130  -2.321   3.234  0.00  0.00    +0.155 HD
BRANCH  14  23
ATOM     18  C   UNL     1       1.206   1.236  -0.172  0.00  0.00    +0.044 C 
ATOM     19  C   UNL     1       0.577  -0.131  -0.084  0.00  0.00    -0.046 A 
ATOM     20  C   UNL     1      -0.027  -0.686  -1.198  0.00  0.00    +0.004 A 
ATOM     21  C   UNL     1      -0.605  -1.940  -1.122  0.00  0.00    +0.002 A 
ATOM     22  C   UNL     1      -0.580  -2.642   0.067  0.00  0.00    +0.023 A 
ATOM     23  C   UNL     1       0.026  -2.088   1.187  0.00  0.00    +0.037 A 
ATOM     24  C   UNL     1       0.610  -0.831   1.106  0.00  0.00    -0.026 A 
ATOM     25  C   UNL     1       1.274  -0.228   2.317  0.00  0.00    +0.046 C 
ENDBRANCH  14  23
ENDBRANCH   1  15
TORSDOF 4
