REMARK  Name = ZINC65753367
REMARK  5 active torsions:
REMARK  status: ('A' for Active; 'I' for Inactive)
REMARK    1  A    between atoms: C_6  and  S_7
REMARK    2  A    between atoms: S_7  and  C_8
REMARK    3  A    between atoms: C_8  and  C_9
REMARK    4  A    between atoms: C_9  and  N_10
REMARK    5  A    between atoms: N_13  and  C_14
REMARK                            x       y       z     vdW  Elec       q    Type
REMARK                         _______ _______ _______ _____ _____    ______ ____
ROOT
ATOM      1  N   UNL     1      -1.793  -4.952  -0.012  0.00  0.00    -0.298 N 
ATOM      2  C   UNL     1      -2.715  -5.935   0.000  0.00  0.00    +0.304 C 
ATOM      3  O   UNL     1      -3.898  -5.658   0.024  0.00  0.00    -0.253 OA
ATOM      4  N   UNL     1      -2.325  -7.225  -0.014  0.00  0.00    -0.269 N 
ATOM      5  H   UNL     1      -0.849  -5.173  -0.031  0.00  0.00    +0.150 HD
ATOM      6  H   UNL     1      -1.384  -7.446  -0.100  0.00  0.00    +0.156 HD
ENDROOT
BRANCH   4   7
ATOM      7  C   UNL     1      -3.273  -8.242   0.096  0.00  0.00    +0.036 A 
ATOM      8  C   UNL     1      -4.524  -8.086  -0.489  0.00  0.00    +0.024 A 
ATOM      9  C   UNL     1      -5.472  -9.087  -0.389  0.00  0.00    +0.015 A 
ATOM     10  C   UNL     1      -5.174 -10.254   0.301  0.00  0.00    +0.049 A 
ATOM     11  C   UNL     1      -3.905 -10.415   0.896  0.00  0.00    +0.051 A 
ATOM     12  C   UNL     1      -2.960  -9.412   0.787  0.00  0.00    +0.037 A 
ATOM     13  C   UNL     1      -3.926 -11.748   1.537  0.00  0.00    +0.251 C 
ATOM     14  O   UNL     1      -3.011 -12.251   2.156  0.00  0.00    -0.270 OA
ATOM     15  N   UNL     1      -5.130 -12.307   1.320  0.00  0.00    -0.248 N 
ATOM     16  C   UNL     1      -5.920 -11.491   0.600  0.00  0.00    +0.251 C 
ATOM     17  O   UNL     1      -7.060 -11.733   0.254  0.00  0.00    -0.270 OA
ATOM     18  H   UNL     1      -5.393 -13.184   1.640  0.00  0.00    +0.158 HD
ENDBRANCH   4   7
BRANCH   1  19
ATOM     19  C   UNL     1      -2.217  -3.550   0.003  0.00  0.00    +0.116 C 
BRANCH  19  20
ATOM     20  C   UNL     1      -0.984  -2.644  -0.016  0.00  0.00    +0.093 C 
BRANCH  20  21
ATOM     21  S   UNL     1      -1.510  -0.908   0.003  0.00  0.00    -0.124 S 
BRANCH  21  27
ATOM     22  C   UNL     1      -0.015   1.385  -0.014  0.00  0.00    +0.016 A 
ATOM     23  C   UNL     1       1.172   2.090  -0.032  0.00  0.00    +0.021 A 
ATOM     24  C   UNL     1       2.379   1.414  -0.058  0.00  0.00    +0.041 A 
ATOM     25  C   UNL     1       2.401   0.030  -0.066  0.00  0.00    +0.021 A 
ATOM     26  C   UNL     1       1.217  -0.680  -0.047  0.00  0.00    +0.016 A 
ATOM     27  C   UNL     1       0.003  -0.004  -0.021  0.00  0.00    +0.008 A 
ATOM     28 CL   UNL     1       3.870   2.304  -0.082  0.00  0.00    -0.084 Cl
ENDBRANCH  21  27
ENDBRANCH  20  21
ENDBRANCH  19  20
ENDBRANCH   1  19
TORSDOF 5
