REMARK  Name = ZINC13413491
REMARK  10 active torsions:
REMARK  status: ('A' for Active; 'I' for Inactive)
REMARK    1  A    between atoms: C_1  and  C_2
REMARK    2  A    between atoms: C_2  and  C_3
REMARK    3  A    between atoms: C_3  and  N_4
REMARK    4  A    between atoms: C_14  and  S_15
REMARK    5  A    between atoms: S_15  and  C_16
REMARK    6  A    between atoms: C_16  and  C_17
REMARK    7  A    between atoms: N_19  and  CA_20
REMARK    8  A    between atoms: CA_20  and  CB_22
REMARK    9  A    between atoms: CA_20  and  C_33
REMARK   10  A    between atoms: CB_22  and  CG_23
REMARK                            x       y       z     vdW  Elec       q    Type
REMARK                         _______ _______ _______ _____ _____    ______ ____
ROOT
ATOM      1  C   UNK A   0      -3.901  -2.360  -3.891  0.00  0.00    +0.224 C 
ATOM      2  O   UNK A   0      -3.986  -1.150  -3.923  0.00  0.00    -0.275 OA
ATOM      3  N   TRP A   1      -4.867  -3.118  -4.446  0.00  0.00    -0.301 N 
ATOM      4  H   TRP A   1      -4.800  -4.085  -4.420  0.00  0.00    +0.150 HD
ENDROOT
BRANCH   1   5
ATOM      5  C   UNK A   0      -2.716  -3.015  -3.230  0.00  0.00    +0.173 C 
BRANCH   5   6
ATOM      6  S   UNK A   0      -1.602  -1.738  -2.584  0.00  0.00    -0.078 S 
BRANCH   6  17
ATOM      7  N   UNK A   0       0.738  -1.962  -1.265  0.00  0.00    -0.287 N 
ATOM      8  C   UNK A   0       1.767  -2.624  -0.686  0.00  0.00    +0.262 A 
ATOM      9  O   UNK A   0       2.684  -2.024  -0.154  0.00  0.00    -0.267 OA
ATOM     10  C   UNK A   0       1.736  -4.092  -0.723  0.00  0.00    +0.065 A 
ATOM     11  C   UNK A   0       2.748  -4.865  -0.154  0.00  0.00    +0.015 A 
ATOM     12  C   UNK A   0       2.670  -6.229  -0.216  0.00  0.00    +0.001 A 
ATOM     13  C   UNK A   0       1.595  -6.850  -0.838  0.00  0.00    +0.002 A 
ATOM     14  C   UNK A   0       0.589  -6.117  -1.403  0.00  0.00    +0.028 A 
ATOM     15  C   UNK A   0       0.640  -4.721  -1.356  0.00  0.00    +0.079 A 
ATOM     16  N   UNK A   0      -0.330  -3.960  -1.900  0.00  0.00    -0.223 NA
ATOM     17  C   UNK A   0      -0.285  -2.651  -1.851  0.00  0.00    +0.173 A 
BRANCH   7  18
ATOM     18  C   UNK A   0       0.718  -0.497  -1.257  0.00  0.00    +0.127 C 
BRANCH  18  20
ATOM     19  C   UNK A   0      -0.019   1.526   0.010  0.00  0.00    +0.005 C 
ATOM     20  C   UNK A   0       0.002  -0.004   0.002  0.00  0.00    +0.018 C 
ENDBRANCH  18  20
ENDBRANCH   7  18
ENDBRANCH   6  17
ENDBRANCH   5   6
ENDBRANCH   1   5
BRANCH   3  21
ATOM     21  CA  TRP A   1      -6.019  -2.481  -5.089  0.00  0.00    +0.191 C 
BRANCH  21  22
ATOM     22  C   TRP A   1      -5.672  -2.135  -6.514  0.00  0.00    +0.376 C 
ATOM     23  O   TRP A   1      -4.868  -2.816  -7.128  0.00  0.00    -0.244 OA
ATOM     24  OXT TRP A   1      -6.195  -1.175  -7.053  0.00  0.00    -0.244 OA
ENDBRANCH  21  22
BRANCH  21  25
ATOM     25  CB  TRP A   1      -7.209  -3.443  -5.073  0.00  0.00    +0.071 C 
BRANCH  25  26
ATOM     26  CG  TRP A   1      -7.634  -3.693  -3.649  0.00  0.00    -0.020 A 
ATOM     27  CD1 TRP A   1      -7.247  -4.713  -2.867  0.00  0.00    +0.087 A 
ATOM     28  NE1 TRP A   1      -7.839  -4.609  -1.637  0.00  0.00    -0.360 N 
ATOM     29  HE1 TRP A   1      -7.712  -5.230  -0.904  0.00  0.00    +0.165 HD
ATOM     30  CE2 TRP A   1      -8.641  -3.490  -1.597  0.00  0.00    +0.047 A 
ATOM     31  CD2 TRP A   1      -8.543  -2.864  -2.853  0.00  0.00    +0.003 A 
ATOM     32  CE3 TRP A   1      -9.254  -1.689  -3.103  0.00  0.00    +0.010 A 
ATOM     33  CZ3 TRP A   1     -10.040  -1.150  -2.123  0.00  0.00    +0.001 A 
ATOM     34  CH2 TRP A   1     -10.136  -1.762  -0.881  0.00  0.00    +0.002 A 
ATOM     35  CZ2 TRP A   1      -9.450  -2.928  -0.616  0.00  0.00    +0.026 A 
ENDBRANCH  25  26
ENDBRANCH  21  25
ENDBRANCH   3  21
TORSDOF 9
