REMARK  Name = ZINC67605605
REMARK  7 active torsions:
REMARK  status: ('A' for Active; 'I' for Inactive)
REMARK    1  A    between atoms: C_1  and  C_2
REMARK    2  A    between atoms: C_2  and  N_3
REMARK    3  A    between atoms: C_4  and  C_6
REMARK    4  A    between atoms: C_9  and  N_28
REMARK    5  A    between atoms: C_13  and  C_15
REMARK    6  A    between atoms: C_15  and  C_16
REMARK    7  A    between atoms: C_19  and  N_22
REMARK                            x       y       z     vdW  Elec       q    Type
REMARK                         _______ _______ _______ _____ _____    ______ ____
ROOT
ATOM      1  C   UNL     1      -2.979  -2.366   0.032  0.00  0.00    +0.160 C 
ATOM      2  C   UNL     1      -3.544  -2.326   1.467  0.00  0.00    +0.017 C 
ATOM      3  C   UNL     1      -4.391  -3.623   1.543  0.00  0.00    -0.055 C 
ATOM      4  C   UNL     1      -3.546  -4.597   0.684  0.00  0.00    +0.092 C 
ATOM      5  N   UNL     1      -3.013  -3.766  -0.415  0.00  0.00    -0.291 N 
ATOM      6  C   UNL     1      -2.624  -4.214  -1.625  0.00  0.00    +0.220 C 
ATOM      7  O   UNL     1      -2.201  -3.435  -2.453  0.00  0.00    -0.275 OA
ENDROOT
BRANCH   1   9
ATOM      8  N   UNL     1      -1.314  -0.536   0.037  0.00  0.00    -0.314 N 
ATOM      9  C   UNL     1      -1.559  -1.861   0.026  0.00  0.00    +0.234 C 
ATOM     10  O   UNL     1      -0.635  -2.648   0.011  0.00  0.00    -0.274 OA
ATOM     11  H   UNL     1      -2.053   0.093   0.049  0.00  0.00    +0.149 HD
BRANCH   8  13
ATOM     12  C   UNL     1       0.064   1.485   0.046  0.00  0.00    +0.024 C 
ATOM     13  C   UNL     1       0.066  -0.045   0.031  0.00  0.00    +0.101 C 
ENDBRANCH   8  13
ENDBRANCH   1   9
BRANCH   3  14
ATOM     14  N   UNL     1      -4.499  -4.101   2.928  0.00  0.00    +0.381 N 
ATOM     15  H   UNL     1      -4.941  -3.392   3.495  0.00  0.00    -0.090 HD
ATOM     16  H   UNL     1      -5.053  -4.944   2.951  0.00  0.00    -0.090 HD
ATOM     17  H   UNL     1      -3.577  -4.294   3.290  0.00  0.00    -0.090 HD
ENDBRANCH   3  14
BRANCH   6  18
ATOM     18  C   UNL     1      -2.715  -5.683  -1.950  0.00  0.00    +0.131 C 
BRANCH  18  19
ATOM     19  C   UNL     1      -2.222  -5.919  -3.354  0.00  0.00    -0.039 A 
ATOM     20  C   UNL     1      -3.107  -5.860  -4.415  0.00  0.00    +0.006 A 
ATOM     21  C   UNL     1      -2.658  -6.075  -5.704  0.00  0.00    +0.024 A 
ATOM     22  C   UNL     1      -1.316  -6.350  -5.933  0.00  0.00    +0.038 A 
ATOM     23  C   UNL     1      -0.430  -6.409  -4.865  0.00  0.00    +0.024 A 
ATOM     24  C   UNL     1      -0.884  -6.188  -3.580  0.00  0.00    +0.006 A 
BRANCH  22  25
ATOM     25  N   UNL     1      -0.858  -6.569  -7.237  0.00  0.00    -0.254 N 
ATOM     26  C   UNL     1       0.547  -6.757  -7.627  0.00  0.00    +0.134 C 
ATOM     27  C   UNL     1       0.484  -6.955  -9.153  0.00  0.00    +0.125 C 
ATOM     28  N   UNL     1      -0.950  -6.858  -9.462  0.00  0.00    -0.297 N 
ATOM     29  C   UNL     1      -1.631  -6.647  -8.328  0.00  0.00    +0.307 C 
ATOM     30  O   UNL     1      -2.841  -6.531  -8.293  0.00  0.00    -0.252 OA
ATOM     31  H   UNL     1      -1.342  -6.939 -10.346  0.00  0.00    +0.150 HD
ENDBRANCH  22  25
ENDBRANCH  18  19
ENDBRANCH   6  18
TORSDOF 6
