REMARK  Name = ZINC13548843
REMARK  9 active torsions:
REMARK  status: ('A' for Active; 'I' for Inactive)
REMARK    1  A    between atoms: C_1  and  C_2
REMARK    2  A    between atoms: C_2  and  C_18
REMARK    3  A    between atoms: N_3  and  N_4
REMARK    4  A    between atoms: C_5  and  C_7
REMARK    5  A    between atoms: C_7  and  O_8
REMARK    6  A    between atoms: O_8  and  C_9
REMARK    7  A    between atoms: C_12  and  O_16
REMARK    8  A    between atoms: O_16  and  C_17
REMARK    9  A    between atoms: C_21  and  N_24
REMARK                            x       y       z     vdW  Elec       q    Type
REMARK                         _______ _______ _______ _____ _____    ______ ____
ROOT
ATOM      1  N   UNL     1      -0.011   0.966   0.007  0.00  0.00    -0.204 N 
ATOM      2  C   UNL     1      -1.187   1.624   0.017  0.00  0.00    +0.270 C 
ATOM      3  O   UNL     1      -1.204   2.837   0.023  0.00  0.00    -0.270 OA
ATOM      4  H   UNL     1       0.002  -0.004   0.002  0.00  0.00    +0.177 HD
ENDROOT
BRANCH   1   7
ATOM      5  C   UNL     1       2.345  -0.458  -0.023  0.00  0.00    +0.068 C 
ATOM      6  C   UNL     1       2.325   1.049  -0.015  0.00  0.00    +0.063 C 
ATOM      7  N   UNL     1       1.193   1.683  -0.000  0.00  0.00    -0.184 NA
BRANCH   6   8
ATOM      8  C   UNL     1       3.592   1.804  -0.022  0.00  0.00    -0.002 A 
ATOM      9  C   UNL     1       4.813   1.125  -0.032  0.00  0.00    +0.012 A 
ATOM     10  C   UNL     1       5.994   1.838  -0.045  0.00  0.00    +0.033 A 
ATOM     11  C   UNL     1       5.971   3.221  -0.037  0.00  0.00    +0.126 A 
ATOM     12  C   UNL     1       4.766   3.900  -0.022  0.00  0.00    +0.033 A 
ATOM     13  C   UNL     1       3.577   3.201  -0.015  0.00  0.00    +0.012 A 
BRANCH  11  14
ATOM     14  N   UNL     1       7.243   3.979  -0.045  0.00  0.00    +0.056 N 
ATOM     15  O   UNL     1       7.227   5.197  -0.038  0.00  0.00    -0.126 OA
ATOM     16  O   UNL     1       8.306   3.384  -0.059  0.00  0.00    -0.126 OA
ENDBRANCH  11  14
ENDBRANCH   6   8
ENDBRANCH   1   7
BRANCH   2  17
ATOM     17  C   UNL     1      -2.482   0.853   0.018  0.00  0.00    +0.326 C 
BRANCH  17  18
ATOM     18  O   UNL     1      -3.581   1.766   0.029  0.00  0.00    -0.482 OA
BRANCH  18  19
ATOM     19  C   UNL     1      -4.830   1.230   0.032  0.00  0.00    +0.134 A 
ATOM     20  C   UNL     1      -4.993  -0.148   0.025  0.00  0.00    +0.050 A 
ATOM     21  C   UNL     1      -6.262  -0.693   0.028  0.00  0.00    +0.049 A 
ATOM     22  C   UNL     1      -7.374   0.137   0.039  0.00  0.00    +0.121 A 
ATOM     23  C   UNL     1      -7.211   1.514   0.045  0.00  0.00    +0.063 A 
ATOM     24  C   UNL     1      -5.942   2.059   0.047  0.00  0.00    +0.058 A 
ATOM     25  I   UNL     1      -5.696   4.140   0.066  0.00  0.00    -0.040 I 
BRANCH  22  26
ATOM     26  O   UNL     1      -8.623  -0.401   0.043  0.00  0.00    -0.495 OA
ATOM     27  C   UNL     1      -9.722   0.513   0.053  0.00  0.00    +0.277 C 
ENDBRANCH  22  26
ENDBRANCH  18  19
ENDBRANCH  17  18
ENDBRANCH   2  17
TORSDOF 7
