REMARK  Name = ZINC12590015
REMARK  8 active torsions:
REMARK  status: ('A' for Active; 'I' for Inactive)
REMARK    1  A    between atoms: C_1  and  O_2
REMARK    2  A    between atoms: O_2  and  C_3
REMARK    3  A    between atoms: C_6  and  C_11
REMARK    4  A    between atoms: C_7  and  O_9
REMARK    5  A    between atoms: O_9  and  C_10
REMARK    6  A    between atoms: C_11  and  N_57
REMARK    7  A    between atoms: C_24  and  C_26
REMARK    8  A    between atoms: C_30  and  O_32
REMARK                            x       y       z     vdW  Elec       q    Type
REMARK                         _______ _______ _______ _____ _____    ______ ____
ROOT
ATOM      1  C   UNL     1       1.435   1.998  -0.001  0.00  0.00    -0.072 C 
ATOM      2  C   UNL     1      -0.018   1.504   0.010  0.00  0.00    +0.019 C 
ATOM      3  C   UNL     1       0.002  -0.004   0.002  0.00  0.00    -0.022 A 
ATOM      4  C   UNL     1      -1.065  -0.934  -0.295  0.00  0.00    +0.003 A 
ATOM      5  C   UNL     1      -2.405  -0.760  -0.655  0.00  0.00    +0.010 A 
ATOM      6  C   UNL     1      -3.143  -1.898  -0.867  0.00  0.00    +0.001 A 
ATOM      7  C   UNL     1      -2.599  -3.165  -0.733  0.00  0.00    +0.002 A 
ATOM      8  C   UNL     1      -1.276  -3.366  -0.378  0.00  0.00    +0.026 A 
ATOM      9  C   UNL     1      -0.502  -2.229  -0.157  0.00  0.00    +0.047 A 
ATOM     10  N   UNL     1       0.807  -2.070   0.198  0.00  0.00    -0.359 N 
ATOM     11  H   UNL     1       1.434  -2.792   0.359  0.00  0.00    +0.166 HD
ATOM     12  C   UNL     1       1.101  -0.737   0.293  0.00  0.00    +0.011 A 
ATOM     13  C   UNL     1       2.429  -0.118   0.663  0.00  0.00    +0.011 C 
ATOM     14  N   UNL     1       2.185   1.289   1.060  0.00  0.00    +0.391 N 
ATOM     15  H   UNL     1       1.629   1.299   1.924  0.00  0.00    -0.080 HD
ENDROOT
BRANCH  13  16
ATOM     16  C   UNL     1       3.025  -0.860   1.831  0.00  0.00    -0.052 A 
ATOM     17  C   UNL     1       2.585  -0.594   3.115  0.00  0.00    +0.002 A 
ATOM     18  C   UNL     1       3.130  -1.273   4.189  0.00  0.00    +0.004 A 
ATOM     19  C   UNL     1       4.115  -2.219   3.982  0.00  0.00    +0.045 A 
ATOM     20  C   UNL     1       4.558  -2.487   2.695  0.00  0.00    +0.117 A 
ATOM     21  C   UNL     1       4.007  -1.808   1.618  0.00  0.00    +0.047 A 
BRANCH  20  22
ATOM     22  O   UNL     1       5.527  -3.417   2.489  0.00  0.00    -0.507 OA
ATOM     23  H   UNL     1       5.190  -4.312   2.347  0.00  0.00    +0.292 HD
ENDBRANCH  20  22
ENDBRANCH  13  16
BRANCH  14  24
ATOM     24  C   UNL     1       3.471   1.972   1.310  0.00  0.00    -0.038 C 
BRANCH  24  28
ATOM     25  C   UNL     1       2.679   5.805   3.036  0.00  0.00    +0.124 A 
ATOM     26  C   UNL     1       2.990   5.697   1.687  0.00  0.00    +0.046 A 
ATOM     27  C   UNL     1       3.245   4.458   1.132  0.00  0.00    +0.009 A 
ATOM     28  C   UNL     1       3.192   3.322   1.918  0.00  0.00    -0.022 A 
ATOM     29  C   UNL     1       2.878   3.424   3.266  0.00  0.00    +0.125 A 
ATOM     30  C   UNL     1       2.626   4.667   3.826  0.00  0.00    +0.091 A 
BRANCH  25  32
ATOM     31  C   UNL     1       2.502   8.152   2.707  0.00  0.00    +0.277 C 
ATOM     32  O   UNL     1       2.429   7.024   3.581  0.00  0.00    -0.495 OA
ENDBRANCH  25  32
BRANCH  29  33
ATOM     33  O   UNL     1       2.821   2.307   4.037  0.00  0.00    -0.495 OA
ATOM     34  C   UNL     1       2.491   2.486   5.416  0.00  0.00    +0.277 C 
ENDBRANCH  29  33
ENDBRANCH  24  28
ENDBRANCH  14  24
TORSDOF 6
