REMARK  Name = ZINC14887952
REMARK  5 active torsions:
REMARK  status: ('A' for Active; 'I' for Inactive)
REMARK    1  A    between atoms: C_4  and  C_7
REMARK    2  A    between atoms: N_10  and  C_19
REMARK    3  A    between atoms: C_19  and  C_20
REMARK    4  A    between atoms: C_25  and  C_28
REMARK    5  A    between atoms: C_25  and  N_31
REMARK                            x       y       z     vdW  Elec       q    Type
REMARK                         _______ _______ _______ _____ _____    ______ ____
ROOT
ATOM      1  C   UNL     1       6.418  -2.476  -3.508  0.00  0.00    +0.199 C 
ATOM      2  O   UNL     1       6.893  -2.804  -2.441  0.00  0.00    -0.278 OA
ATOM      3  N   UNL     1       7.187  -2.469  -4.614  0.00  0.00    -0.303 N 
ATOM      4  C   UNL     1       6.628  -2.067  -5.912  0.00  0.00    +0.107 C 
ATOM      5  C   UNL     1       6.907  -3.175  -6.933  0.00  0.00    +0.016 C 
ATOM      6  C   UNL     1       8.408  -3.471  -6.961  0.00  0.00    +0.015 C 
ATOM      7  C   UNL     1       8.858  -3.960  -5.582  0.00  0.00    +0.016 C 
ATOM      8  C   UNL     1       8.602  -2.856  -4.545  0.00  0.00    +0.107 C 
ENDROOT
BRANCH   6   9
ATOM      9  N   UNL     1       8.684  -4.509  -7.963  0.00  0.00    +0.389 N 
ATOM     10  C   UNL     1       7.928  -5.723  -7.628  0.00  0.00    -0.077 C 
ATOM     11  C   UNL     1       8.148  -6.780  -8.712  0.00  0.00    -0.019 C 
ATOM     12  C   UNL     1       9.641  -7.113  -8.797  0.00  0.00    -0.004 C 
ATOM     13  C   UNL     1      10.426  -5.827  -9.072  0.00  0.00    -0.019 C 
ATOM     14  C   UNL     1      10.121  -4.806  -7.975  0.00  0.00    -0.077 C 
ATOM     15  H   UNL     1       8.401  -4.180  -8.873  0.00  0.00    -0.080 HD
ENDBRANCH   6   9
BRANCH   6  16
ATOM     16  C   UNL     1       9.161  -2.216  -7.318  0.00  0.00    +0.200 C 
ATOM     17  O   UNL     1       9.690  -1.557  -6.448  0.00  0.00    -0.278 OA
ATOM     18  N   UNL     1       9.247  -1.825  -8.605  0.00  0.00    -0.330 N 
ATOM     19  H   UNL     1       8.765  -2.311  -9.293  0.00  0.00    +0.145 HD
ATOM     20  H   UNL     1       9.790  -1.058  -8.844  0.00  0.00    +0.145 HD
ENDBRANCH   6  16
BRANCH   1  21
ATOM     21  C   UNL     1       4.968  -2.075  -3.596  0.00  0.00    +0.019 C 
BRANCH  21  24
ATOM     22  C   UNL     1       2.327  -1.480  -0.985  0.00  0.00    +0.187 C 
ATOM     23  C   UNL     1       2.985  -1.664  -2.334  0.00  0.00    -0.028 C 
ATOM     24  N   UNL     1       4.353  -2.166  -2.264  0.00  0.00    +0.391 N 
ATOM     25  C   UNL     1       4.385  -3.562  -1.815  0.00  0.00    -0.038 C 
ATOM     26  C   UNL     1       4.360  -3.586  -0.298  0.00  0.00    -0.022 A 
ATOM     27  C   UNL     1       5.473  -4.000   0.405  0.00  0.00    +0.005 A 
ATOM     28  C   UNL     1       5.436  -4.034   1.788  0.00  0.00    +0.000 A 
ATOM     29  C   UNL     1       4.289  -3.657   2.461  0.00  0.00    +0.004 A 
ATOM     30  C   UNL     1       3.176  -3.237   1.757  0.00  0.00    +0.046 A 
ATOM     31  C   UNL     1       3.217  -3.196   0.370  0.00  0.00    +0.123 A 
ATOM     32  O   UNL     1       2.141  -2.743  -0.333  0.00  0.00    -0.486 OA
ATOM     33  H   UNL     1       4.881  -1.598  -1.618  0.00  0.00    -0.080 HD
BRANCH  22  37
ATOM     34  C   UNL     1      -1.473   0.396  -1.522  0.00  0.00    +0.000 A 
ATOM     35  C   UNL     1      -0.357   1.162  -1.239  0.00  0.00    +0.000 A 
ATOM     36  C   UNL     1       0.872   0.555  -1.066  0.00  0.00    +0.007 A 
ATOM     37  C   UNL     1       0.986  -0.818  -1.174  0.00  0.00    -0.009 A 
ATOM     38  C   UNL     1      -0.130  -1.584  -1.456  0.00  0.00    +0.007 A 
ATOM     39  C   UNL     1      -1.359  -0.977  -1.631  0.00  0.00    +0.000 A 
ENDBRANCH  22  37
ENDBRANCH  21  24
ENDBRANCH   1  21
TORSDOF 5
