REMARK  Name = ZINC40139230
REMARK  9 active torsions:
REMARK  status: ('A' for Active; 'I' for Inactive)
REMARK    1  A    between atoms: C_1  and  C_2
REMARK    2  A    between atoms: N_11  and  C_15
REMARK    3  A    between atoms: C_15  and  N_16
REMARK    4  A    between atoms: N_19  and  C_22
REMARK    5  A    between atoms: C_22  and  C_23
REMARK    6  A    between atoms: C_26  and  C_28
REMARK    7  A    between atoms: C_28  and  C_29
REMARK    8  A    between atoms: C_28  and  C_30
REMARK    9  A    between atoms: C_28  and  C_31
REMARK                            x       y       z     vdW  Elec       q    Type
REMARK                         _______ _______ _______ _____ _____    ______ ____
ROOT
ATOM      1  N   UNL     1       3.279   2.915   2.387  0.00  0.00    -0.290 NA
ATOM      2  C   UNL     1       2.389   3.758   3.198  0.00  0.00    +0.067 C 
ATOM      3  C   UNL     1       2.314   5.157   2.581  0.00  0.00    -0.063 C 
ATOM      4  N   UNL     1       3.661   5.742   2.532  0.00  0.00    +0.385 N 
ATOM      5  C   UNL     1       4.531   4.903   1.699  0.00  0.00    -0.063 C 
ATOM      6  C   UNL     1       4.624   3.502   2.308  0.00  0.00    +0.067 C 
ATOM      7  H   UNL     1       4.039   5.795   3.466  0.00  0.00    -0.081 HD
ENDROOT
BRANCH   1   8
ATOM      8  C   UNL     1       3.332   1.546   2.915  0.00  0.00    +0.204 C 
BRANCH   8  18
ATOM      9  C   UNL     1      -0.019   1.526   0.010  0.00  0.00    +0.010 C 
ATOM     10  C   UNL     1       0.002  -0.004   0.002  0.00  0.00    +0.018 C 
ATOM     11  C   UNL     1       0.718  -0.497  -1.258  0.00  0.00    +0.006 C 
ATOM     12  C   UNL     1       0.756  -2.027  -1.256  0.00  0.00    +0.000 C 
ATOM     13  C   UNL     1       1.519  -2.517  -0.023  0.00  0.00    +0.003 C 
ATOM     14  C   UNL     1       0.807  -2.032   1.242  0.00  0.00    +0.035 C 
ATOM     15  C   UNL     1       0.739  -0.509   1.238  0.00  0.00    +0.115 C 
ATOM     16  C   UNL     1       2.128   0.083   1.303  0.00  0.00    +0.248 C 
ATOM     17  O   UNL     1       3.022  -0.055   0.496  0.00  0.00    -0.273 OA
ATOM     18  N   UNL     1       2.163   0.796   2.447  0.00  0.00    -0.211 N 
ATOM     19  C   UNL     1       0.998   0.734   3.103  0.00  0.00    +0.310 C 
ATOM     20  O   UNL     1       0.786   1.296   4.159  0.00  0.00    -0.252 OA
ATOM     21  N   UNL     1       0.086  -0.021   2.460  0.00  0.00    -0.285 N 
ATOM     22  H   UNL     1      -0.822  -0.205   2.747  0.00  0.00    +0.151 HD
ENDBRANCH   8  18
ENDBRANCH   1   8
BRANCH   4  23
ATOM     23  C   UNL     1       3.587   7.092   1.957  0.00  0.00    -0.022 C 
BRANCH  23  24
ATOM     24  C   UNL     1       4.946   7.740   2.019  0.00  0.00    +0.032 A 
ATOM     25  C   UNL     1       5.798   7.704   0.963  0.00  0.00    +0.068 A 
ATOM     26  S   UNL     1       7.186   8.609   1.628  0.00  0.00    -0.080 S 
ATOM     27  C   UNL     1       6.543   8.930   3.150  0.00  0.00    +0.084 A 
ATOM     28  N   UNL     1       5.360   8.372   3.099  0.00  0.00    -0.250 NA
BRANCH  27  29
ATOM     29  C   UNL     1       7.175   9.682   4.294  0.00  0.00    +0.011 C 
ATOM     30  C   UNL     1       7.287   8.760   5.510  0.00  0.00    +0.017 C 
ATOM     31  C   UNL     1       8.570  10.156   3.883  0.00  0.00    +0.017 C 
ATOM     32  C   UNL     1       6.309  10.892   4.649  0.00  0.00    +0.017 C 
ENDBRANCH  27  29
ENDBRANCH  23  24
ENDBRANCH   4  23
TORSDOF 5
