REMARK  Name = ZINC20831187
REMARK  9 active torsions:
REMARK  status: ('A' for Active; 'I' for Inactive)
REMARK    1  A    between atoms: C_2  and  C_3
REMARK    2  A    between atoms: C_3  and  N_4
REMARK    3  A    between atoms: C_5  and  C_24
REMARK    4  A    between atoms: C_8  and  S_9
REMARK    5  A    between atoms: S_9  and  C_10
REMARK    6  A    between atoms: C_10  and  C_11
REMARK    7  A    between atoms: N_13  and  C_14
REMARK    8  A    between atoms: C_17  and  S_20
REMARK    9  A    between atoms: S_20  and  N_23
REMARK                            x       y       z     vdW  Elec       q    Type
REMARK                         _______ _______ _______ _____ _____    ______ ____
ROOT
ATOM      1  C   UNL     1       0.516   5.286   3.000  0.00  0.00    +0.173 C 
ENDROOT
BRANCH   1   2
ATOM      2  C   UNL     1       1.542   6.391   3.016  0.00  0.00    +0.227 C 
ATOM      3  O   UNL     1       2.417   6.418   2.176  0.00  0.00    -0.275 OA
ATOM      4  N   UNL     1       1.486   7.348   3.962  0.00  0.00    -0.285 N 
ATOM      5  H   UNL     1       0.745   7.278   4.772  0.00  0.00    +0.155 HD
BRANCH   4   6
ATOM      6  C   UNL     1       2.371   8.431   3.915  0.00  0.00    +0.034 A 
ATOM      7  C   UNL     1       2.843   8.996   5.092  0.00  0.00    +0.025 A 
ATOM      8  C   UNL     1       3.721  10.061   5.042  0.00  0.00    +0.030 A 
ATOM      9  C   UNL     1       4.121  10.572   3.821  0.00  0.00    +0.105 A 
ATOM     10  C   UNL     1       3.649  10.015   2.647  0.00  0.00    +0.030 A 
ATOM     11  C   UNL     1       2.775   8.946   2.690  0.00  0.00    +0.025 A 
BRANCH   9  12
ATOM     12  S   UNL     1       5.236  11.935   3.761  0.00  0.00    +0.056 S 
ATOM     13  O   UNL     1       5.957  11.925   4.986  0.00  0.00    -0.153 OA
ATOM     14  O   UNL     1       5.882  11.877   2.497  0.00  0.00    -0.153 OA
BRANCH  12  15
ATOM     15  N   UNL     1       4.322  13.316   3.762  0.00  0.00    -0.204 NA
ATOM     16  H   UNL     1       4.983  14.194   3.725  0.00  0.00    +0.144 HD
ATOM     17  H   UNL     1       3.714  13.353   4.678  0.00  0.00    +0.144 HD
ENDBRANCH  12  15
ENDBRANCH   9  12
ENDBRANCH   4   6
ENDBRANCH   1   2
BRANCH   1  18
ATOM     18  S   UNL     1       0.858   4.166   1.620  0.00  0.00    -0.077 S 
BRANCH  18  23
ATOM     19  N   UNL     1      -0.701   1.911   1.059  0.00  0.00    -0.298 N 
ATOM     20  C   UNL     1      -1.811   1.312   1.607  0.00  0.00    +0.165 A 
ATOM     21  N   UNL     1      -2.172   2.040   2.638  0.00  0.00    -0.128 NA
ATOM     22  N   UNL     1      -1.376   3.039   2.770  0.00  0.00    -0.122 NA
ATOM     23  C   UNL     1      -0.453   3.008   1.835  0.00  0.00    +0.193 A 
BRANCH  20  24
ATOM     24  C   UNL     1      -2.472   0.080   1.126  0.00  0.00    +0.019 A 
ATOM     25  C   UNL     1      -2.262  -0.363  -0.181  0.00  0.00    +0.012 A 
ATOM     26  C   UNL     1      -2.878  -1.516  -0.622  0.00  0.00    +0.016 A 
ATOM     27  C   UNL     1      -3.710  -2.228   0.226  0.00  0.00    +0.018 A 
ATOM     28  C   UNL     1      -3.926  -1.791   1.521  0.00  0.00    +0.016 A 
ATOM     29  C   UNL     1      -3.312  -0.642   1.976  0.00  0.00    +0.012 A 
ATOM     30 BR   UNL     1      -4.556  -3.803  -0.389  0.00  0.00    -0.050 Br
ENDBRANCH  20  24
BRANCH  19  31
ATOM     31  C   UNL     1       0.061   1.464  -0.110  0.00  0.00    +0.152 C 
BRANCH  31  33
ATOM     32  C   UNL     1      -0.785   1.530  -2.400  0.00  0.00    +0.005 C 
ATOM     33  C   UNL     1      -0.419   2.200  -1.334  0.00  0.00    -0.013 C 
ENDBRANCH  31  33
ENDBRANCH  19  31
ENDBRANCH  18  23
ENDBRANCH   1  18
TORSDOF 9
