REMARK  Name = ZINC04553982
REMARK  6 active torsions:
REMARK  status: ('A' for Active; 'I' for Inactive)
REMARK    1  A    between atoms: C_1  and  C_2
REMARK    2  A    between atoms: C_2  and  C_3
REMARK    3  A    between atoms: C_2  and  N_46
REMARK    4  A    between atoms: C_11  and  O_25
REMARK    5  A    between atoms: C_13  and  C_16
REMARK    6  A    between atoms: C_19  and  N_22
REMARK                            x       y       z     vdW  Elec       q    Type
REMARK                         _______ _______ _______ _____ _____    ______ ____
ROOT
ATOM      1  C   UNL     1      -2.760   7.042   0.724  0.00  0.00    -0.073 C 
ATOM      2  C   UNL     1      -2.647   5.581   1.170  0.00  0.00    +0.018 C 
ATOM      3  C   UNL     1      -2.179   4.754  -0.023  0.00  0.00    -0.027 A 
ATOM      4  C   UNL     1      -2.285   5.257  -1.277  0.00  0.00    -0.021 A 
ATOM      5  S   UNL     1      -1.636   3.989  -2.331  0.00  0.00    -0.080 S 
ATOM      6  C   UNL     1      -1.244   2.826  -1.138  0.00  0.00    +0.080 A 
ATOM      7  C   UNL     1      -1.606   3.426   0.076  0.00  0.00    +0.067 A 
ATOM      8  C   UNL     1      -1.379   2.640   1.316  0.00  0.00    +0.220 C 
ATOM      9  N   UNL     1      -0.675   1.546   1.222  0.00  0.00    -0.223 NA
ATOM     10  C   UNL     1      -0.013   1.086   0.008  0.00  0.00    +0.224 C 
ATOM     11  N   UNL     1      -0.706   1.564  -1.202  0.00  0.00    -0.313 N 
ATOM     12  C   UNL     1      -2.837   6.595  -1.655  0.00  0.00    -0.035 C 
ATOM     13  H   UNL     1      -0.777   1.018  -2.001  0.00  0.00    +0.149 HD
ATOM     14  N   UNL     1      -3.594   7.120  -0.493  0.00  0.00    +0.384 N 
ATOM     15  H   UNL     1      -4.437   6.550  -0.358  0.00  0.00    -0.081 HD
ENDROOT
BRANCH  10  16
ATOM     16  C   UNL     1       1.405   1.597  -0.003  0.00  0.00    -0.005 A 
ATOM     17  C   UNL     1       2.046   1.832  -1.205  0.00  0.00    +0.009 A 
ATOM     18  C   UNL     1       3.344   2.306  -1.215  0.00  0.00    +0.033 A 
ATOM     19  C   UNL     1       4.006   2.534  -0.023  0.00  0.00    +0.126 A 
ATOM     20  C   UNL     1       3.367   2.293   1.179  0.00  0.00    +0.033 A 
ATOM     21  C   UNL     1       2.067   1.825   1.189  0.00  0.00    +0.009 A 
BRANCH  19  22
ATOM     22  N   UNL     1       5.398   3.036  -0.033  0.00  0.00    +0.056 N 
ATOM     23  O   UNL     1       5.981   3.237   1.017  0.00  0.00    -0.126 OA
ATOM     24  O   UNL     1       5.961   3.248  -1.092  0.00  0.00    -0.126 OA
ENDBRANCH  19  22
ENDBRANCH  10  16
BRANCH  14  26
ATOM     25  C   UNL     1      -2.762   9.399  -0.966  0.00  0.00    -0.014 C 
ATOM     26  C   UNL     1      -3.995   8.521  -0.742  0.00  0.00    -0.074 C 
ATOM     27  C   UNL     1      -4.889   8.570  -1.983  0.00  0.00    -0.014 C 
ENDBRANCH  14  26
BRANCH   8  28
ATOM     28  O   UNL     1      -1.887   3.045   2.503  0.00  0.00    -0.492 OA
ATOM     29  H   UNL     1      -1.678   2.457   3.241  0.00  0.00    +0.294 HD
ENDBRANCH   8  28
TORSDOF 4
