REMARK  Name = ZINC60184778
REMARK  6 active torsions:
REMARK  status: ('A' for Active; 'I' for Inactive)
REMARK    1  A    between atoms: C_3  and  C_21
REMARK    2  A    between atoms: C_5  and  N_7
REMARK    3  A    between atoms: N_7  and  S_8
REMARK    4  A    between atoms: S_8  and  C_11
REMARK    5  A    between atoms: C_21  and  S_22
REMARK    6  A    between atoms: S_22  and  N_25
REMARK                            x       y       z     vdW  Elec       q    Type
REMARK                         _______ _______ _______ _____ _____    ______ ____
ROOT
ATOM      1  N   UNL     1       1.238  -2.074  -0.018  0.00  0.00    -0.216 N 
ATOM      2  H   UNL     1       1.825  -1.390   0.339  0.00  0.00    +0.174 HD
ENDROOT
BRANCH   1   7
ATOM      3  C   UNL     1       1.390  -4.078  -3.095  0.00  0.00    +0.002 A 
ATOM      4  C   UNL     1       1.430  -3.082  -4.054  0.00  0.00    +0.005 A 
ATOM      5  C   UNL     1       1.406  -1.752  -3.675  0.00  0.00    -0.023 A 
ATOM      6  C   UNL     1       1.343  -1.414  -2.337  0.00  0.00    +0.029 A 
ATOM      7  C   UNL     1       1.302  -2.412  -1.372  0.00  0.00    +0.048 A 
ATOM      8  C   UNL     1       1.327  -3.747  -1.756  0.00  0.00    +0.024 A 
BRANCH   5   9
ATOM      9  C   UNL     1       1.450  -0.670  -4.723  0.00  0.00    +0.220 C 
BRANCH   9  10
ATOM     10  S   UNL     1      -0.240  -0.244  -5.224  0.00  0.00    +0.031 S 
ATOM     11  O   UNL     1      -0.834  -1.331  -5.921  0.00  0.00    -0.158 OA
ATOM     12  O   UNL     1      -0.924   0.388  -4.150  0.00  0.00    -0.158 OA
BRANCH  10  13
ATOM     13  N   UNL     1      -0.060   0.942  -6.366  0.00  0.00    -0.208 NA
ATOM     14  H   UNL     1       0.828   1.245  -6.615  0.00  0.00    +0.144 HD
ATOM     15  H   UNL     1      -0.842   1.333  -6.786  0.00  0.00    +0.144 HD
ENDBRANCH  10  13
ENDBRANCH   9  10
ENDBRANCH   5   9
ENDBRANCH   1   7
BRANCH   1  16
ATOM     16  S   UNL     1       0.159  -2.841   0.976  0.00  0.00    +0.072 S 
ATOM     17  O   UNL     1       0.363  -4.236   0.798  0.00  0.00    -0.150 OA
ATOM     18  O   UNL     1       0.260  -2.213   2.247  0.00  0.00    -0.150 OA
BRANCH  16  19
ATOM     19  C   UNL     1      -1.456  -2.487   0.366  0.00  0.00    +0.109 A 
ATOM     20  C   UNL     1      -2.095  -1.318   0.736  0.00  0.00    +0.029 A 
ATOM     21  C   UNL     1      -3.360  -1.049   0.257  0.00  0.00    +0.006 A 
ATOM     22  C   UNL     1      -3.997  -1.942  -0.596  0.00  0.00    -0.044 A 
ATOM     23  C   UNL     1      -3.358  -3.103  -0.968  0.00  0.00    -0.042 A 
ATOM     24  C   UNL     1      -2.083  -3.371  -0.486  0.00  0.00    +0.032 A 
ATOM     25  C   UNL     1      -3.981  -4.108  -1.901  0.00  0.00    +0.035 C 
ATOM     26  C   UNL     1      -5.490  -3.892  -1.994  0.00  0.00    +0.005 C 
ATOM     27  C   UNL     1      -5.749  -2.413  -2.307  0.00  0.00    +0.005 C 
ATOM     28  C   UNL     1      -5.381  -1.588  -1.075  0.00  0.00    +0.035 C 
ENDBRANCH  16  19
ENDBRANCH   1  16
TORSDOF 6
