REMARK  Name = ZINC12403538
REMARK  11 active torsions:
REMARK  status: ('A' for Active; 'I' for Inactive)
REMARK    1  A    between atoms: C_1  and  C_2
REMARK    2  A    between atoms: C_2  and  C_3
REMARK    3  A    between atoms: C_2  and  C_4
REMARK    4  A    between atoms: C_2  and  C_5
REMARK    5  A    between atoms: C_8  and  O_12
REMARK    6  A    between atoms: O_12  and  C_13
REMARK    7  A    between atoms: C_13  and  C_14
REMARK    8  A    between atoms: N_16  and  N_17
REMARK    9  A    between atoms: N_17  and  C_18
REMARK   10  A    between atoms: C_18  and  N_20
REMARK   11  A    between atoms: C_21  and  C_23
REMARK                            x       y       z     vdW  Elec       q    Type
REMARK                         _______ _______ _______ _____ _____    ______ ____
ROOT
ATOM      1  C   UNL     1      -4.676  -2.737   0.032  0.00  0.00    +0.267 C 
ATOM      2  O   UNL     1      -4.660  -3.950   0.025  0.00  0.00    -0.271 OA
ATOM      3  N   UNL     1      -3.518  -2.047   0.025  0.00  0.00    -0.232 N 
ATOM      4  H   UNL     1      -3.531  -1.077   0.030  0.00  0.00    +0.173 HD
ENDROOT
BRANCH   3   5
ATOM      5  N   UNL     1      -2.295  -2.731   0.009  0.00  0.00    -0.245 N 
ATOM      6  H   UNL     1      -2.282  -3.701   0.004  0.00  0.00    +0.172 HD
BRANCH   5   7
ATOM      7  C   UNL     1      -1.137  -2.041   0.002  0.00  0.00    +0.153 C 
ATOM      8  S   UNL     1       0.356  -2.877  -0.017  0.00  0.00    -0.017 S 
BRANCH   7   9
ATOM      9  N   UNL     1      -1.156  -0.694   0.009  0.00  0.00    -0.263 N 
ATOM     10  C   UNL     1       0.002  -0.004   0.002  0.00  0.00    +0.250 C 
ATOM     11  O   UNL     1       1.063  -0.597  -0.011  0.00  0.00    -0.270 OA
ATOM     12  H   UNL     1      -2.002  -0.220   0.020  0.00  0.00    +0.157 HD
BRANCH  10  13
ATOM     13  C   UNL     1      -0.018   1.474   0.010  0.00  0.00    +0.037 A 
ATOM     14  C   UNL     1      -1.235   2.158   0.020  0.00  0.00    +0.013 A 
ATOM     15  C   UNL     1      -1.246   3.538   0.034  0.00  0.00    +0.001 A 
ATOM     16  C   UNL     1      -0.056   4.242   0.026  0.00  0.00    +0.000 A 
ATOM     17  C   UNL     1       1.154   3.570   0.010  0.00  0.00    +0.001 A 
ATOM     18  C   UNL     1       1.180   2.191   0.003  0.00  0.00    +0.013 A 
ENDBRANCH  10  13
ENDBRANCH   7   9
ENDBRANCH   5   7
ENDBRANCH   3   5
BRANCH   1  19
ATOM     19  C   UNL     1      -5.991  -2.001   0.049  0.00  0.00    +0.326 C 
BRANCH  19  20
ATOM     20  O   UNL     1      -7.064  -2.945   0.054  0.00  0.00    -0.482 OA
BRANCH  20  24
ATOM     21  C   UNL     1     -10.898  -1.419   0.097  0.00  0.00    -0.041 A 
ATOM     22  C   UNL     1      -9.814  -0.561   0.092  0.00  0.00    +0.008 A 
ATOM     23  C   UNL     1      -8.529  -1.070   0.078  0.00  0.00    +0.047 A 
ATOM     24  C   UNL     1      -8.327  -2.442   0.069  0.00  0.00    +0.135 A 
ATOM     25  C   UNL     1      -9.417  -3.301   0.068  0.00  0.00    +0.060 A 
ATOM     26  C   UNL     1     -10.701  -2.788   0.087  0.00  0.00    +0.023 A 
ATOM     27 BR   UNL     1      -9.147  -5.173   0.049  0.00  0.00    -0.047 Br
BRANCH  21  29
ATOM     28  C   UNL     1     -12.516   0.004  -1.130  0.00  0.00    +0.015 C 
ATOM     29  C   UNL     1     -12.298  -0.862   0.112  0.00  0.00    -0.013 C 
ATOM     30  C   UNL     1     -13.306  -2.013   0.115  0.00  0.00    +0.015 C 
ATOM     31  C   UNL     1     -12.494  -0.010   1.368  0.00  0.00    +0.015 C 
ENDBRANCH  21  29
ENDBRANCH  20  24
ENDBRANCH  19  20
ENDBRANCH   1  19
TORSDOF 8
