REMARK  Name = ZINC09464225
REMARK  6 active torsions:
REMARK  status: ('A' for Active; 'I' for Inactive)
REMARK    1  A    between atoms: C_1  and  C_2
REMARK    2  A    between atoms: C_2  and  C_27
REMARK    3  A    between atoms: N_5  and  C_9
REMARK    4  A    between atoms: C_9  and  N_66
REMARK    5  A    between atoms: C_12  and  C_15
REMARK    6  A    between atoms: N_17  and  C_18
REMARK                            x       y       z     vdW  Elec       q    Type
REMARK                         _______ _______ _______ _____ _____    ______ ____
ROOT
ATOM      1  C   UNL     1       1.833   7.415   1.489  0.00  0.00    -0.076 C 
ATOM      2  C   UNL     1       2.150   8.796   0.913  0.00  0.00    -0.006 C 
ATOM      3  C   UNL     1       2.473   9.760   2.058  0.00  0.00    +0.072 C 
ATOM      4  C   UNL     1       3.647   9.203   2.868  0.00  0.00    -0.006 C 
ATOM      5  C   UNL     1       3.286   7.810   3.388  0.00  0.00    -0.076 C 
ATOM      6  N   UNL     1       3.011   6.925   2.236  0.00  0.00    +0.391 N 
ATOM      7  H   UNL     1       3.826   6.927   1.612  0.00  0.00    -0.079 HD
ENDROOT
BRANCH   3   8
ATOM      8  C   UNL     1       2.844  11.107   1.493  0.00  0.00    +0.220 C 
ATOM      9  O   UNL     1       3.940  11.577   1.716  0.00  0.00    -0.275 OA
ATOM     10  N   UNL     1       1.959  11.790   0.741  0.00  0.00    -0.285 N 
ATOM     11  H   UNL     1       1.108  11.386   0.507  0.00  0.00    +0.155 HD
BRANCH  10  12
ATOM     12  C   UNL     1       2.267  13.082   0.296  0.00  0.00    +0.037 A 
ATOM     13  C   UNL     1       3.573  13.407  -0.042  0.00  0.00    +0.027 A 
ATOM     14  C   UNL     1       3.878  14.681  -0.481  0.00  0.00    +0.051 A 
ATOM     15  C   UNL     1       2.882  15.638  -0.584  0.00  0.00    +0.166 A 
ATOM     16  C   UNL     1       1.570  15.316  -0.245  0.00  0.00    +0.168 A 
ATOM     17  C   UNL     1       1.264  14.037   0.190  0.00  0.00    +0.072 A 
ATOM     18  O   UNL     1       0.787  16.418  -0.431  0.00  0.00    -0.453 OA
ATOM     19  C   UNL     1       1.555  17.297  -1.274  0.00  0.00    +0.466 C 
ATOM     20  O   UNL     1       2.921  16.944  -0.983  0.00  0.00    -0.453 OA
ENDBRANCH  10  12
ENDBRANCH   3   8
BRANCH   6  21
ATOM     21  C   UNL     1       2.772   5.545   2.707  0.00  0.00    +0.043 C 
BRANCH  21  26
ATOM     22  C   UNL     1       1.093   4.146  -1.453  0.00  0.00    +0.047 C 
ATOM     23  C   UNL     1       1.181   3.598  -0.028  0.00  0.00    +0.135 C 
ATOM     24  C   UNL     1       2.401   4.151   0.681  0.00  0.00    +0.249 C 
ATOM     25  O   UNL     1       3.562   4.004   0.364  0.00  0.00    -0.272 OA
ATOM     26  N   UNL     1       1.928   4.840   1.739  0.00  0.00    -0.241 N 
ATOM     27  C   UNL     1       0.592   4.799   1.796  0.00  0.00    +0.308 C 
ATOM     28  O   UNL     1      -0.065   5.346   2.660  0.00  0.00    -0.252 OA
ATOM     29  N   UNL     1       0.056   4.085   0.789  0.00  0.00    -0.281 N 
ATOM     30  H   UNL     1      -0.887   3.923   0.631  0.00  0.00    +0.152 HD
BRANCH  23  31
ATOM     31  C   UNL     1       1.213   2.092  -0.042  0.00  0.00    -0.015 A 
ATOM     32  C   UNL     1       2.424   1.425  -0.052  0.00  0.00    +0.006 A 
ATOM     33  C   UNL     1       2.451   0.045  -0.066  0.00  0.00    +0.004 A 
ATOM     34  C   UNL     1       1.268  -0.675  -0.068  0.00  0.00    -0.044 A 
ATOM     35  C   UNL     1       0.057  -0.009  -0.056  0.00  0.00    -0.044 A 
ATOM     36  C   UNL     1       0.032   1.375  -0.043  0.00  0.00    +0.010 A 
ATOM     37  C   UNL     1      -1.078  -1.011  -0.061  0.00  0.00    +0.036 C 
ATOM     38  C   UNL     1      -0.438  -2.349   0.363  0.00  0.00    +0.009 C 
ATOM     39  C   UNL     1       1.030  -2.170  -0.082  0.00  0.00    +0.036 C 
ENDBRANCH  23  31
ENDBRANCH  21  26
ENDBRANCH   6  21
TORSDOF 5
