REMARK  Name = ZINC08790912
REMARK  8 active torsions:
REMARK  status: ('A' for Active; 'I' for Inactive)
REMARK    1  A    between atoms: C_1  and  C_2
REMARK    2  A    between atoms: C_16  and  C_18
REMARK    3  A    between atoms: C_18  and  C_19
REMARK    4  A    between atoms: C_18  and  C_20
REMARK    5  A    between atoms: N_23  and  C_26
REMARK    6  A    between atoms: C_26  and  C_27
REMARK    7  A    between atoms: C_30  and  O_33
REMARK    8  A    between atoms: O_33  and  C_34
REMARK                            x       y       z     vdW  Elec       q    Type
REMARK                         _______ _______ _______ _____ _____    ______ ____
ROOT
ATOM      1  C   UNL     1       2.461   3.928  -0.001  0.00  0.00    +0.045 C 
ATOM      2  C   UNL     1       1.161   3.165   0.007  0.00  0.00    -0.029 A 
ATOM      3  C   UNL     1       1.174   1.785   0.000  0.00  0.00    +0.005 A 
ATOM      4  C   UNL     1      -0.013   1.076   0.008  0.00  0.00    +0.001 A 
ATOM      5  C   UNL     1      -1.220   1.753   0.017  0.00  0.00    +0.004 A 
ATOM      6  C   UNL     1      -1.237   3.130   0.029  0.00  0.00    -0.027 A 
ATOM      7  C   UNL     1      -0.048   3.854   0.020  0.00  0.00    +0.039 A 
ATOM      8  N   UNL     1      -0.318   5.224   0.027  0.00  0.00    -0.286 N 
ATOM      9  C   UNL     1      -1.640   5.482   0.037  0.00  0.00    +0.211 C 
ATOM     10  O   UNL     1      -2.165   6.575   0.042  0.00  0.00    -0.277 OA
ATOM     11  C   UNL     1      -2.340   4.150   0.042  0.00  0.00    +0.050 C 
ATOM     12  C   UNL     1      -3.263   3.996  -1.171  0.00  0.00    +0.088 C 
ATOM     13  C   UNL     1      -4.680   4.342  -0.633  0.00  0.00    +0.073 C 
ATOM     14  C   UNL     1      -4.462   4.694   0.854  0.00  0.00    -0.055 C 
ATOM     15  C   UNL     1      -5.044   5.597  -1.393  0.00  0.00    +0.224 C 
ATOM     16  O   UNL     1      -6.084   6.209  -1.277  0.00  0.00    -0.275 OA
ATOM     17  N   UNL     1      -4.040   5.928  -2.212  0.00  0.00    -0.237 N 
ATOM     18  C   UNL     1      -2.990   5.100  -2.167  0.00  0.00    +0.225 C 
ATOM     19  O   UNL     1      -1.977   5.216  -2.824  0.00  0.00    -0.275 OA
ATOM     20  H   UNL     1       0.367   5.911   0.024  0.00  0.00    +0.155 HD
ATOM     21  N   UNL     1      -3.209   4.017   1.198  0.00  0.00    +0.394 N 
ATOM     22  H   UNL     1      -2.780   4.460   2.018  0.00  0.00    -0.083 HD
ATOM     23  H   UNL     1      -3.386   3.025   1.397  0.00  0.00    -0.083 HD
ENDROOT
BRANCH  14  24
ATOM     24  C   UNL     1      -5.627   4.178   1.700  0.00  0.00    -0.031 C 
ATOM     25  C   UNL     1      -5.390   4.538   3.168  0.00  0.00    +0.005 C 
ATOM     26  C   UNL     1      -6.930   4.821   1.221  0.00  0.00    +0.005 C 
ENDBRANCH  14  24
BRANCH  17  27
ATOM     27  C   UNL     1      -4.085   7.102  -3.087  0.00  0.00    +0.151 C 
BRANCH  27  28
ATOM     28  C   UNL     1      -4.681   6.715  -4.417  0.00  0.00    -0.029 A 
ATOM     29  C   UNL     1      -3.860   6.278  -5.440  0.00  0.00    +0.009 A 
ATOM     30  C   UNL     1      -4.404   5.917  -6.657  0.00  0.00    +0.046 A 
ATOM     31  C   UNL     1      -5.774   6.003  -6.856  0.00  0.00    +0.120 A 
ATOM     32  C   UNL     1      -6.595   6.448  -5.830  0.00  0.00    +0.046 A 
ATOM     33  C   UNL     1      -6.047   6.802  -4.612  0.00  0.00    +0.009 A 
BRANCH  31  34
ATOM     34  O   UNL     1      -6.312   5.654  -8.054  0.00  0.00    -0.495 OA
ATOM     35  C   UNL     1      -5.406   5.205  -9.065  0.00  0.00    +0.277 C 
ENDBRANCH  31  34
ENDBRANCH  27  28
ENDBRANCH  17  27
TORSDOF 4
