REMARK  Name = ZINC21255245
REMARK  5 active torsions:
REMARK  status: ('A' for Active; 'I' for Inactive)
REMARK    1  A    between atoms: C_1  and  O_2
REMARK    2  A    between atoms: O_2  and  C_3
REMARK    3  A    between atoms: C_8  and  C_9
REMARK    4  A    between atoms: C_14  and  C_24
REMARK    5  A    between atoms: C_28  and  O_30
REMARK                            x       y       z     vdW  Elec       q    Type
REMARK                         _______ _______ _______ _____ _____    ______ ____
ROOT
ATOM      1  C   UNL     1      -5.934   4.592  -1.684  0.00  0.00    +0.035 C 
ATOM      2  C   UNL     1      -4.488   4.969  -1.367  0.00  0.00    +0.060 C 
ATOM      3  C   UNL     1      -3.707   3.728  -0.967  0.00  0.00    +0.017 C 
ATOM      4  C   UNL     1      -3.997   2.537  -1.516  0.00  0.00    +0.036 C 
ATOM      5  C   UNL     1      -3.285   1.235  -1.235  0.00  0.00    +0.136 C 
ATOM      6  N   UNL     1      -2.389   1.274  -0.099  0.00  0.00    -0.331 N 
ATOM      7  C   UNL     1      -1.254   2.084  -0.108  0.00  0.00    +0.049 A 
ATOM      8  C   UNL     1       0.021   1.544  -0.116  0.00  0.00    +0.025 A 
ATOM      9  C   UNL     1       1.115   2.385  -0.223  0.00  0.00    +0.002 A 
ATOM     10  C   UNL     1       0.939   3.754  -0.311  0.00  0.00    +0.002 A 
ATOM     11  C   UNL     1      -0.334   4.299  -0.272  0.00  0.00    +0.025 A 
ATOM     12  C   UNL     1      -1.428   3.459  -0.155  0.00  0.00    +0.052 A 
ATOM     13  N   UNL     1      -2.727   3.942  -0.053  0.00  0.00    -0.316 N 
ATOM     14  C   UNL     1      -5.057   2.420  -2.446  0.00  0.00    +0.163 C 
ATOM     15  O   UNL     1      -5.283   1.334  -2.942  0.00  0.00    -0.292 OA
ATOM     16  C   UNL     1      -5.911   3.587  -2.841  0.00  0.00    +0.088 C 
ATOM     17  H   UNL     1      -2.599   0.659   0.789  0.00  0.00    +0.147 HD
ATOM     18  H   UNL     1      -2.937   4.537   0.849  0.00  0.00    +0.152 HD
ENDROOT
BRANCH   1  24
ATOM     19  C   UNL     1      -7.840   6.194  -1.383  0.00  0.00    +0.124 A 
ATOM     20  C   UNL     1      -8.546   7.329  -1.757  0.00  0.00    +0.046 A 
ATOM     21  C   UNL     1      -8.124   8.078  -2.838  0.00  0.00    +0.004 A 
ATOM     22  C   UNL     1      -6.997   7.701  -3.545  0.00  0.00    +0.001 A 
ATOM     23  C   UNL     1      -6.288   6.574  -3.171  0.00  0.00    +0.007 A 
ATOM     24  C   UNL     1      -6.706   5.821  -2.090  0.00  0.00    -0.002 A 
BRANCH  19  26
ATOM     25  C   UNL     1      -9.431   5.896   0.358  0.00  0.00    +0.277 C 
ATOM     26  O   UNL     1      -8.256   5.452  -0.324  0.00  0.00    -0.495 OA
ENDBRANCH  19  26
ENDBRANCH   1  24
BRANCH   5  27
ATOM     27  C   UNL     1      -2.488   0.853  -2.455  0.00  0.00    -0.019 A 
ATOM     28  C   UNL     1      -1.456   1.665  -2.888  0.00  0.00    +0.006 A 
ATOM     29  C   UNL     1      -0.722   1.318  -4.007  0.00  0.00    +0.004 A 
ATOM     30  C   UNL     1      -1.019   0.158  -4.696  0.00  0.00    +0.045 A 
ATOM     31  C   UNL     1      -2.054  -0.659  -4.264  0.00  0.00    +0.117 A 
ATOM     32  C   UNL     1      -2.785  -0.311  -3.138  0.00  0.00    +0.051 A 
BRANCH  31  33
ATOM     33  O   UNL     1      -2.348  -1.801  -4.940  0.00  0.00    -0.507 OA
ATOM     34  H   UNL     1      -3.168  -2.447  -4.596  0.00  0.00    +0.292 HD
ENDBRANCH  31  33
ENDBRANCH   5  27
TORSDOF 4
