REMARK  Name = ZINC41026377
REMARK  6 active torsions:
REMARK  status: ('A' for Active; 'I' for Inactive)
REMARK    1  A    between atoms: C_4  and  C_7
REMARK    2  A    between atoms: C_7  and  N_8
REMARK    3  A    between atoms: C_17  and  N_33
REMARK    4  A    between atoms: C_18  and  N_20
REMARK    5  A    between atoms: N_20  and  C_21
REMARK    6  A    between atoms: C_22  and  C_30
REMARK                            x       y       z     vdW  Elec       q    Type
REMARK                         _______ _______ _______ _____ _____    ______ ____
ROOT
ATOM      1  N   UNL     1       4.153  -0.953   1.342  0.00  0.00    -0.295 NA
ATOM      2  C   UNL     1       4.459   0.308   2.029  0.00  0.00    +0.103 C 
ATOM      3  C   UNL     1       4.739   0.025   3.509  0.00  0.00    +0.123 C 
ATOM      4  N   UNL     1       5.788  -1.002   3.597  0.00  0.00    -0.297 N 
ATOM      5  C   UNL     1       5.616  -2.241   2.824  0.00  0.00    +0.123 C 
ATOM      6  C   UNL     1       5.302  -1.868   1.371  0.00  0.00    +0.103 C 
ATOM      7  C   UNL     1       6.908  -0.808   4.388  0.00  0.00    +0.221 A 
ATOM      8  N   UNL     1       7.025   0.319   5.074  0.00  0.00    -0.197 NA
ATOM      9  C   UNL     1       8.087   0.540   5.845  0.00  0.00    +0.154 A 
ATOM     10  C   UNL     1       9.081  -0.431   5.923  0.00  0.00    +0.205 A 
ATOM     11  C   UNL     1       8.923  -1.602   5.188  0.00  0.00    +0.161 A 
ATOM     12  N   UNL     1       7.831  -1.755   4.442  0.00  0.00    -0.197 NA
ATOM     13  N   UNL     1       8.202   1.722   6.560  0.00  0.00    -0.341 N 
ATOM     14  H   UNL     1       7.505   2.394   6.501  0.00  0.00    +0.144 HD
ATOM     15  H   UNL     1       8.979   1.876   7.120  0.00  0.00    +0.144 HD
ENDROOT
BRANCH  10  16
ATOM     16  N   UNL     1      10.278  -0.224   6.769  0.00  0.00    +0.063 N 
ATOM     17  O   UNL     1      10.272  -0.581   7.924  0.00  0.00    -0.126 OA
ATOM     18  O   UNL     1      11.263   0.303   6.304  0.00  0.00    -0.126 OA
ENDBRANCH  10  16
BRANCH  11  19
ATOM     19  N   UNL     1       9.889  -2.597   5.234  0.00  0.00    -0.291 N 
ATOM     20  H   UNL     1      10.680  -2.480   5.783  0.00  0.00    +0.154 HD
BRANCH  19  21
ATOM     21  C   UNL     1       9.722  -3.758   4.499  0.00  0.00    +0.084 A 
ATOM     22  C   UNL     1      10.572  -4.852   4.428  0.00  0.00    +0.068 A 
ATOM     23  C   UNL     1      10.163  -5.955   3.575  0.00  0.00    -0.023 A 
ATOM     24  C   UNL     1       8.982  -5.762   2.950  0.00  0.00    -0.004 A 
ATOM     25  S   UNL     1       8.442  -4.168   3.493  0.00  0.00    -0.077 S 
ATOM     26  C   UNL     1       8.297  -6.705   2.010  0.00  0.00    +0.043 C 
ATOM     27  C   UNL     1       9.314  -7.767   1.566  0.00  0.00    +0.005 C 
ATOM     28  C   UNL     1      10.038  -8.308   2.803  0.00  0.00    +0.005 C 
ATOM     29  C   UNL     1      10.964  -7.233   3.375  0.00  0.00    +0.037 C 
BRANCH  22  30
ATOM     30  C   UNL     1      11.828  -4.894   5.181  0.00  0.00    +0.244 C 
ATOM     31  O   UNL     1      11.847  -5.354   6.308  0.00  0.00    -0.270 OA
ATOM     32  N   UNL     1      12.962  -4.422   4.627  0.00  0.00    -0.325 N 
ATOM     33  H   UNL     1      12.947  -4.055   3.729  0.00  0.00    +0.145 HD
ATOM     34  H   UNL     1      13.793  -4.449   5.125  0.00  0.00    +0.145 HD
ENDBRANCH  22  30
ENDBRANCH  19  21
ENDBRANCH  11  19
BRANCH   1  35
ATOM     35  C   UNL     1       3.711  -0.707  -0.038  0.00  0.00    +0.119 C 
BRANCH  35  39
ATOM     36  C   UNL     1      -0.017   1.378   0.010  0.00  0.00    +0.000 A 
ATOM     37  C   UNL     1       1.171   2.086   0.002  0.00  0.00    +0.000 A 
ATOM     38  C   UNL     1       2.377   1.411  -0.013  0.00  0.00    +0.005 A 
ATOM     39  C   UNL     1       2.396   0.029  -0.020  0.00  0.00    -0.033 A 
ATOM     40  C   UNL     1       1.208  -0.679  -0.012  0.00  0.00    +0.005 A 
ATOM     41  C   UNL     1       0.002  -0.004   0.002  0.00  0.00    +0.000 A 
ENDBRANCH  35  39
ENDBRANCH   1  35
TORSDOF 6
