REMARK  Name = ZINC38811125
REMARK  5 active torsions:
REMARK  status: ('A' for Active; 'I' for Inactive)
REMARK    1  A    between atoms: C_6  and  C_10
REMARK    2  A    between atoms: C_15  and  C_20
REMARK    3  A    between atoms: C_16  and  C_18
REMARK    4  A    between atoms: N_22  and  C_26
REMARK    5  A    between atoms: C_23  and  N_25
REMARK                            x       y       z     vdW  Elec       q    Type
REMARK                         _______ _______ _______ _____ _____    ______ ____
ROOT
ATOM      1  C   UNL     1      -3.662  -3.423   0.003  0.00  0.00    +0.110 C 
ATOM      2  C   UNL     1      -2.904  -4.504   0.743  0.00  0.00    +0.093 A 
ATOM      3  C   UNL     1      -2.638  -5.543  -0.152  0.00  0.00    +0.148 A 
ATOM      4  N   UNL     1      -1.974  -6.617   0.275  0.00  0.00    -0.217 NA
ATOM      5  C   UNL     1      -1.569  -6.697   1.537  0.00  0.00    +0.178 A 
ATOM      6  C   UNL     1      -1.843  -5.644   2.428  0.00  0.00    +0.176 A 
ATOM      7  N   UNL     1      -2.507  -4.574   1.996  0.00  0.00    -0.234 NA
ATOM      8  N   UNL     1      -3.139  -5.271  -1.415  0.00  0.00    -0.297 N 
ATOM      9  C   UNL     1      -3.804  -3.963  -1.429  0.00  0.00    +0.037 C 
ENDROOT
BRANCH   1  15
ATOM     10  C   UNL     1      -0.017   1.374   0.010  0.00  0.00    +0.002 A 
ATOM     11  C   UNL     1      -1.222   2.061   0.019  0.00  0.00    +0.002 A 
ATOM     12  C   UNL     1      -2.409   1.385   0.021  0.00  0.00    +0.030 A 
ATOM     13  C   UNL     1      -2.415  -0.012   0.014  0.00  0.00    +0.089 A 
ATOM     14  N   UNL     1      -3.402  -0.944   0.014  0.00  0.00    -0.232 NA
ATOM     15  C   UNL     1      -2.879  -2.135   0.005  0.00  0.00    +0.117 A 
ATOM     16  N   UNL     1      -1.521  -2.049  -0.001  0.00  0.00    -0.341 N 
ATOM     17  C   UNL     1      -1.194  -0.708   0.004  0.00  0.00    +0.066 A 
ATOM     18  C   UNL     1       0.002  -0.004   0.002  0.00  0.00    +0.028 A 
ATOM     19  H   UNL     1      -0.898  -2.793  -0.008  0.00  0.00    +0.167 HD
ENDBRANCH   1  15
BRANCH   8  20
ATOM     20  C   UNL     1      -3.028  -6.122  -2.519  0.00  0.00    +0.034 A 
ATOM     21  C   UNL     1      -3.563  -5.745  -3.744  0.00  0.00    +0.025 A 
ATOM     22  C   UNL     1      -3.451  -6.587  -4.833  0.00  0.00    +0.022 A 
ATOM     23  C   UNL     1      -2.807  -7.805  -4.704  0.00  0.00    +0.041 A 
ATOM     24  C   UNL     1      -2.273  -8.183  -3.485  0.00  0.00    +0.022 A 
ATOM     25  C   UNL     1      -2.377  -7.342  -2.394  0.00  0.00    +0.025 A 
ATOM     26 CL   UNL     1      -2.669  -8.862  -6.075  0.00  0.00    -0.084 Cl
ENDBRANCH   8  20
BRANCH   9  27
ATOM     27  N   UNL     1      -5.223  -4.114  -1.777  0.00  0.00    +0.391 N 
ATOM     28  H   UNL     1      -5.683  -3.218  -1.716  0.00  0.00    -0.087 HD
ATOM     29  H   UNL     1      -5.303  -4.469  -2.719  0.00  0.00    -0.087 HD
ATOM     30  H   UNL     1      -5.660  -4.760  -1.137  0.00  0.00    -0.087 HD
ENDBRANCH   9  27
BRANCH   6  31
ATOM     31  C   UNL     1      -1.411  -5.723   3.792  0.00  0.00    +0.122 C 
ATOM     32  N   UNL     1      -1.068  -5.785   4.873  0.00  0.00    -0.189 NA
ENDBRANCH   6  31
BRANCH   5  33
ATOM     33  C   UNL     1      -0.856  -7.853   1.990  0.00  0.00    +0.122 C 
ATOM     34  N   UNL     1      -0.291  -8.770   2.349  0.00  0.00    -0.189 NA
ENDBRANCH   5  33
TORSDOF 5
