REMARK  Name = ZINC01468778
REMARK  10 active torsions:
REMARK  status: ('A' for Active; 'I' for Inactive)
REMARK    1  A    between atoms: C_1  and  O_2
REMARK    2  A    between atoms: O_2  and  C_3
REMARK    3  A    between atoms: C_5  and  C_10
REMARK    4  A    between atoms: C_8  and  O_9
REMARK    5  A    between atoms: N_11  and  N_12
REMARK    6  A    between atoms: C_13  and  C_15
REMARK    7  A    between atoms: C_17  and  C_21
REMARK    8  A    between atoms: C_24  and  O_27
REMARK    9  A    between atoms: O_27  and  C_28
REMARK   10  A    between atoms: C_28  and  C_29
REMARK                            x       y       z     vdW  Elec       q    Type
REMARK                         _______ _______ _______ _____ _____    ______ ____
ROOT
ATOM      1  C   UNL     1      -3.839   6.166   0.054  0.00  0.00    +0.122 A 
ATOM      2  C   UNL     1      -4.019   7.537   0.068  0.00  0.00    +0.062 A 
ATOM      3  C   UNL     1      -5.412   7.728   0.071  0.00  0.00    +0.093 A 
ATOM      4  N   UNL     1      -5.977   6.539   0.067  0.00  0.00    -0.173 NA
ATOM      5  N   UNL     1      -5.088   5.612   0.057  0.00  0.00    -0.272 N 
ATOM      6  H   UNL     1      -5.282   4.631   0.053  0.00  0.00    +0.189 HD
ENDROOT
BRANCH   3   7
ATOM      7  C   UNL     1      -6.118   9.034   0.082  0.00  0.00    +0.002 A 
ATOM      8  C   UNL     1      -5.389  10.221   0.090  0.00  0.00    +0.013 A 
ATOM      9  C   UNL     1      -6.048  11.433   0.093  0.00  0.00    +0.046 A 
ATOM     10  C   UNL     1      -7.435  11.471   0.102  0.00  0.00    +0.121 A 
ATOM     11  C   UNL     1      -8.164  10.290   0.100  0.00  0.00    +0.046 A 
ATOM     12  C   UNL     1      -7.511   9.075   0.090  0.00  0.00    +0.013 A 
BRANCH  10  13
ATOM     13  O   UNL     1      -8.081  12.666   0.112  0.00  0.00    -0.487 OA
BRANCH  13  14
ATOM     14  C   UNL     1      -7.269  13.842   0.113  0.00  0.00    +0.264 C 
BRANCH  14  15
ATOM     15  C   UNL     1      -8.153  15.063   0.124  0.00  0.00    -0.010 A 
ATOM     16  C   UNL     1      -8.561  15.632  -1.068  0.00  0.00    +0.008 A 
ATOM     17  C   UNL     1      -9.376  16.748  -1.059  0.00  0.00    +0.020 A 
ATOM     18  C   UNL     1      -9.776  17.302   0.144  0.00  0.00    +0.041 A 
ATOM     19  C   UNL     1      -9.363  16.736   1.337  0.00  0.00    +0.020 A 
ATOM     20  C   UNL     1      -8.552  15.616   1.326  0.00  0.00    +0.008 A 
ATOM     21 CL   UNL     1     -10.794  18.708   0.157  0.00  0.00    -0.084 Cl
ENDBRANCH  14  15
ENDBRANCH  13  14
ENDBRANCH  10  13
ENDBRANCH   3   7
BRANCH   1  23
ATOM     22  N   UNL     1      -2.540   4.098   0.036  0.00  0.00    -0.202 N 
ATOM     23  C   UNL     1      -2.556   5.446   0.044  0.00  0.00    +0.281 C 
ATOM     24  O   UNL     1      -1.510   6.067   0.042  0.00  0.00    -0.267 OA
ATOM     25  H   UNL     1      -3.374   3.603   0.038  0.00  0.00    +0.178 HD
BRANCH  22  27
ATOM     26  C   UNL     1      -1.302   2.115   0.020  0.00  0.00    +0.138 C 
ATOM     27  N   UNL     1      -1.318   3.413   0.027  0.00  0.00    -0.187 NA
BRANCH  26  30
ATOM     28  C   UNL     1       1.210  -0.675  -0.013  0.00  0.00    +0.162 A 
ATOM     29  C   UNL     1       0.002  -0.004   0.002  0.00  0.00    +0.058 A 
ATOM     30  C   UNL     1      -0.017   1.393   0.010  0.00  0.00    -0.002 A 
ATOM     31  C   UNL     1       1.186   2.105   0.002  0.00  0.00    +0.013 A 
ATOM     32  C   UNL     1       2.387   1.428  -0.013  0.00  0.00    +0.050 A 
ATOM     33  C   UNL     1       2.405   0.041  -0.020  0.00  0.00    +0.158 A 
BRANCH  28  35
ATOM     34  C   UNL     1      -0.030  -2.705  -0.012  0.00  0.00    +0.277 C 
ATOM     35  O   UNL     1       1.232  -2.035  -0.021  0.00  0.00    -0.491 OA
ENDBRANCH  28  35
BRANCH  33  36
ATOM     36  O   UNL     1       3.592  -0.622  -0.035  0.00  0.00    -0.503 OA
ATOM     37  H   UNL     1       3.928  -0.808  -0.923  0.00  0.00    +0.292 HD
ENDBRANCH  33  36
ENDBRANCH  26  30
ENDBRANCH  22  27
ENDBRANCH   1  23
TORSDOF 9
