REMARK  Name = ZINC63985629
REMARK  11 active torsions:
REMARK  status: ('A' for Active; 'I' for Inactive)
REMARK    1  A    between atoms: C_1  and  C_2
REMARK    2  A    between atoms: C_2  and  C_4
REMARK    3  A    between atoms: C_2  and  N_15
REMARK    4  A    between atoms: C_4  and  C_5
REMARK    5  A    between atoms: C_5  and  C_6
REMARK    6  A    between atoms: N_23  and  C_31
REMARK    7  A    between atoms: N_26  and  C_27
REMARK    8  A    between atoms: C_27  and  C_28
REMARK    9  A    between atoms: C_28  and  C_29
REMARK   10  A    between atoms: C_28  and  C_30
REMARK   11  A    between atoms: C_31  and  C_32
REMARK                            x       y       z     vdW  Elec       q    Type
REMARK                         _______ _______ _______ _____ _____    ______ ____
ROOT
ATOM      1  N   UNL     1       0.965  -1.715  -2.234  0.00  0.00    +0.382 N 
ATOM      2  C   UNL     1       0.260  -0.891  -3.223  0.00  0.00    -0.076 C 
ATOM      3  C   UNL     1       0.651  -1.338  -4.635  0.00  0.00    +0.017 C 
ATOM      4  C   UNL     1       0.288  -2.809  -4.816  0.00  0.00    +0.112 C 
ATOM      5  C   UNL     1       0.943  -3.656  -3.729  0.00  0.00    +0.017 C 
ATOM      6  C   UNL     1       0.540  -3.115  -2.354  0.00  0.00    -0.076 C 
ATOM      7  C   UNL     1       0.705  -3.291  -6.186  0.00  0.00    +0.247 C 
ATOM      8  O   UNL     1       1.828  -3.328  -6.641  0.00  0.00    -0.273 OA
ATOM      9  N   UNL     1      -0.437  -3.673  -6.795  0.00  0.00    -0.218 N 
ATOM     10  C   UNL     1      -1.502  -3.497  -6.002  0.00  0.00    +0.312 C 
ATOM     11  O   UNL     1      -2.640  -3.768  -6.329  0.00  0.00    -0.252 OA
ATOM     12  N   UNL     1      -1.169  -2.986  -4.801  0.00  0.00    -0.271 N 
ATOM     13  H   UNL     1       1.959  -1.651  -2.394  0.00  0.00    -0.081 HD
ENDROOT
BRANCH   1  15
ATOM     14  C   UNL     1       1.017   0.257  -0.782  0.00  0.00    -0.013 C 
ATOM     15  C   UNL     1       0.656  -1.226  -0.883  0.00  0.00    -0.071 C 
BRANCH  15  16
ATOM     16  C   UNL     1       1.466  -2.019   0.144  0.00  0.00    -0.011 C 
BRANCH  16  17
ATOM     17  C   UNL     1       1.055  -1.595   1.555  0.00  0.00    +0.031 C 
BRANCH  17  18
ATOM     18  C   UNL     1       1.908  -2.318   2.566  0.00  0.00    -0.042 C 
ATOM     19  C   UNL     1       3.038  -1.861   3.152  0.00  0.00    -0.001 A 
ATOM     20  C   UNL     1       3.782  -0.601   3.030  0.00  0.00    +0.010 A 
ATOM     21  C   UNL     1       4.905  -0.429   3.763  0.00  0.00    +0.001 A 
ATOM     22  C   UNL     1       5.375  -1.421   4.635  0.00  0.00    +0.002 A 
ATOM     23  C   UNL     1       4.747  -2.603   4.801  0.00  0.00    +0.026 A 
ATOM     24  C   UNL     1       3.555  -2.892   4.080  0.00  0.00    +0.043 A 
ATOM     25  N   UNL     1       2.776  -3.946   4.067  0.00  0.00    -0.380 N 
ATOM     26  C   UNL     1       1.672  -3.700   3.133  0.00  0.00    +0.144 C 
ATOM     27  H   UNL     1       2.906  -4.752   4.590  0.00  0.00    +0.160 HD
ENDBRANCH  17  18
ENDBRANCH  16  17
ENDBRANCH  15  16
ENDBRANCH   1  15
BRANCH  12  28
ATOM     28  C   UNL     1      -2.080  -2.671  -3.698  0.00  0.00    +0.113 C 
BRANCH  28  29
ATOM     29  C   UNL     1      -3.090  -1.617  -4.156  0.00  0.00    +0.000 C 
ATOM     30  C   UNL     1      -4.079  -1.332  -3.024  0.00  0.00    +0.009 C 
ATOM     31  C   UNL     1      -2.350  -0.328  -4.524  0.00  0.00    +0.009 C 
ENDBRANCH  28  29
ENDBRANCH  12  28
BRANCH   9  32
ATOM     32  C   UNL     1      -0.504  -4.212  -8.155  0.00  0.00    +0.173 C 
BRANCH  32  33
ATOM     33  C   UNL     1      -0.361  -5.712  -8.109  0.00  0.00    +0.059 A 
ATOM     34  C   UNL     1      -1.493  -6.506  -8.096  0.00  0.00    +0.025 A 
ATOM     35  C   UNL     1      -1.350  -7.884  -8.053  0.00  0.00    +0.003 A 
ATOM     36  C   UNL     1      -0.069  -8.414  -8.025  0.00  0.00    +0.020 A 
ATOM     37  C   UNL     1       1.015  -7.558  -8.041  0.00  0.00    +0.111 A 
ATOM     38  N   UNL     1       0.842  -6.251  -8.087  0.00  0.00    -0.258 NA
ENDBRANCH  32  33
ENDBRANCH   9  32
TORSDOF 8
