REMARK  Name = ZINC39595800
REMARK  8 active torsions:
REMARK  status: ('A' for Active; 'I' for Inactive)
REMARK    1  A    between atoms: C_1  and  C_2
REMARK    2  A    between atoms: C_2  and  C_4
REMARK    3  A    between atoms: C_2  and  O_32
REMARK    4  A    between atoms: C_4  and  N_5
REMARK    5  A    between atoms: C_6  and  C_8
REMARK    6  A    between atoms: C_19  and  C_21
REMARK    7  A    between atoms: C_25  and  C_27
REMARK    8  A    between atoms: O_32  and  C_33
REMARK                            x       y       z     vdW  Elec       q    Type
REMARK                         _______ _______ _______ _____ _____    ______ ____
ROOT
ATOM      1  C   UNL     1      -2.370  -3.933   0.395  0.00  0.00    +0.100 C 
ATOM      2  C   UNL     1      -1.559  -4.540  -0.771  0.00  0.00    +0.121 C 
ATOM      3  N   UNL     1      -2.266  -5.798  -1.105  0.00  0.00    -0.296 N 
ATOM      4  C   UNL     1      -3.704  -5.457  -0.981  0.00  0.00    +0.115 C 
ATOM      5  C   UNL     1      -3.777  -4.537   0.254  0.00  0.00    -0.004 C 
ATOM      6  C   UNL     1      -4.131  -5.349   1.496  0.00  0.00    -0.010 C 
ATOM      7  C   UNL     1      -5.556  -5.892   1.357  0.00  0.00    -0.082 C 
ATOM      8  N   UNL     1      -6.494  -4.775   1.194  0.00  0.00    +0.379 N 
ATOM      9  C   UNL     1      -6.204  -4.055  -0.052  0.00  0.00    -0.082 C 
ATOM     10  C   UNL     1      -4.807  -3.434   0.028  0.00  0.00    -0.010 C 
ATOM     11  C   UNL     1      -1.725  -6.985  -1.444  0.00  0.00    +0.247 C 
ATOM     12  O   UNL     1      -0.520  -7.139  -1.397  0.00  0.00    -0.270 OA
ATOM     13  H   UNL     1      -7.438  -5.131   1.163  0.00  0.00    -0.086 HD
ATOM     14  H   UNL     1      -6.401  -4.143   1.975  0.00  0.00    -0.086 HD
ENDROOT
BRANCH  11  15
ATOM     15  C   UNL     1      -2.596  -8.099  -1.872  0.00  0.00    +0.038 A 
ATOM     16  C   UNL     1      -3.852  -7.834  -2.422  0.00  0.00    +0.016 A 
ATOM     17  C   UNL     1      -4.661  -8.877  -2.820  0.00  0.00    +0.039 A 
ATOM     18  C   UNL     1      -4.229 -10.187  -2.676  0.00  0.00    +0.135 A 
ATOM     19  C   UNL     1      -2.983 -10.455  -2.131  0.00  0.00    +0.091 A 
ATOM     20  C   UNL     1      -2.164  -9.419  -1.734  0.00  0.00    +0.028 A 
ATOM     21  F   UNL     1      -5.026 -11.205  -3.067  0.00  0.00    -0.205 F 
BRANCH  19  22
ATOM     22  C   UNL     1      -2.521 -11.881  -1.977  0.00  0.00    +0.420 C 
ATOM     23  F   UNL     1      -1.242 -11.898  -1.408  0.00  0.00    -0.166 F 
ATOM     24  F   UNL     1      -3.409 -12.572  -1.146  0.00  0.00    -0.166 F 
ATOM     25  F   UNL     1      -2.481 -12.497  -3.232  0.00  0.00    -0.166 F 
ENDBRANCH  19  22
ENDBRANCH  11  15
BRANCH   1  27
ATOM     26  N   UNL     1      -2.510  -1.666   1.375  0.00  0.00    -0.312 N 
ATOM     27  C   UNL     1      -2.429  -2.432   0.269  0.00  0.00    +0.218 C 
ATOM     28  O   UNL     1      -2.403  -1.915  -0.827  0.00  0.00    -0.275 OA
ATOM     29  H   UNL     1      -2.530  -2.080   2.252  0.00  0.00    +0.149 HD
BRANCH  26  30
ATOM     30  C   UNL     1      -2.567  -0.207   1.252  0.00  0.00    +0.148 C 
BRANCH  30  32
ATOM     31  C   UNL     1      -2.839   1.932   2.514  0.00  0.00    +0.053 C 
ATOM     32  C   UNL     1      -2.654   0.419   2.645  0.00  0.00    +0.187 C 
BRANCH  32  33
ATOM     33  O   UNL     1      -1.451   0.147   3.366  0.00  0.00    -0.488 OA
BRANCH  33  34
ATOM     34  C   UNL     1      -1.529   0.154   4.723  0.00  0.00    +0.121 A 
ATOM     35  C   UNL     1      -2.758   0.312   5.347  0.00  0.00    +0.048 A 
ATOM     36  C   UNL     1      -2.837   0.319   6.726  0.00  0.00    +0.042 A 
ATOM     37  C   UNL     1      -1.689   0.169   7.486  0.00  0.00    +0.124 A 
ATOM     38  C   UNL     1      -0.462   0.011   6.865  0.00  0.00    +0.042 A 
ATOM     39  C   UNL     1      -0.381  -0.003   5.486  0.00  0.00    +0.048 A 
ATOM     40  F   UNL     1      -1.767   0.176   8.835  0.00  0.00    -0.205 F 
ENDBRANCH  33  34
ENDBRANCH  32  33
ENDBRANCH  30  32
ENDBRANCH  26  30
ENDBRANCH   1  27
TORSDOF 7
