REMARK  Name = ZINC00820311
REMARK  4 active torsions:
REMARK  status: ('A' for Active; 'I' for Inactive)
REMARK    1  A    between atoms: N_9  and  N_12
REMARK    2  A    between atoms: C_13  and  C_15
REMARK    3  A    between atoms: C_15  and  O_16
REMARK    4  A    between atoms: O_16  and  C_17
REMARK                            x       y       z     vdW  Elec       q    Type
REMARK                         _______ _______ _______ _____ _____    ______ ____
ROOT
ATOM      1  N   UNL     1       3.676  -3.373  -0.052  0.00  0.00    -0.222 N 
ATOM      2  C   UNL     1       4.272  -3.787  -1.187  0.00  0.00    +0.267 C 
ATOM      3  O   UNL     1       4.180  -3.123  -2.197  0.00  0.00    -0.271 OA
ATOM      4  H   UNL     1       3.749  -3.905   0.756  0.00  0.00    +0.174 HD
ENDROOT
BRANCH   1  13
ATOM      5  C   UNL     1      -0.017   1.382   0.010  0.00  0.00    +0.001 A 
ATOM      6  C   UNL     1       1.165   2.099   0.002  0.00  0.00    +0.001 A 
ATOM      7  C   UNL     1       2.385   1.442  -0.013  0.00  0.00    +0.014 A 
ATOM      8  C   UNL     1       2.420   0.056  -0.021  0.00  0.00    +0.051 A 
ATOM      9  C   UNL     1       1.215  -0.675  -0.013  0.00  0.00    +0.051 A 
ATOM     10  C   UNL     1       0.002  -0.004   0.002  0.00  0.00    +0.014 A 
ATOM     11  C   UNL     1       1.606  -2.100  -0.025  0.00  0.00    +0.271 C 
ATOM     12  O   UNL     1       0.843  -3.045  -0.023  0.00  0.00    -0.268 OA
ATOM     13  N   UNL     1       2.949  -2.175  -0.039  0.00  0.00    -0.147 N 
ATOM     14  C   UNL     1       3.503  -0.949  -0.037  0.00  0.00    +0.271 C 
ATOM     15  O   UNL     1       4.693  -0.709  -0.048  0.00  0.00    -0.268 OA
ENDBRANCH   1  13
BRANCH   2  16
ATOM     16  C   UNL     1       5.054  -5.075  -1.201  0.00  0.00    +0.326 C 
BRANCH  16  17
ATOM     17  O   UNL     1       5.586  -5.295  -2.509  0.00  0.00    -0.481 OA
BRANCH  17  18
ATOM     18  C   UNL     1       6.323  -6.423  -2.694  0.00  0.00    +0.141 A 
ATOM     19  C   UNL     1       6.524  -7.302  -1.640  0.00  0.00    +0.068 A 
ATOM     20  C   UNL     1       7.273  -8.448  -1.830  0.00  0.00    +0.063 A 
ATOM     21  C   UNL     1       7.823  -8.719  -3.072  0.00  0.00    +0.061 A 
ATOM     22  C   UNL     1       7.623  -7.843  -4.124  0.00  0.00    +0.045 A 
ATOM     23  C   UNL     1       6.870  -6.699  -3.939  0.00  0.00    +0.084 A 
ATOM     24 CL   UNL     1       6.615  -5.604  -5.262  0.00  0.00    -0.080 Cl
ATOM     25 CL   UNL     1       8.764 -10.158  -3.308  0.00  0.00    -0.082 Cl
ATOM     26 CL   UNL     1       7.524  -9.549  -0.511  0.00  0.00    -0.082 Cl
ENDBRANCH  17  18
ENDBRANCH  16  17
ENDBRANCH   2  16
TORSDOF 4
