REMARK  Name = ZINC02659898
REMARK  6 active torsions:
REMARK  status: ('A' for Active; 'I' for Inactive)
REMARK    1  A    between atoms: C_1  and  O_2
REMARK    2  A    between atoms: O_2  and  C_3
REMARK    3  A    between atoms: C_6  and  N_9
REMARK    4  A    between atoms: C_12  and  N_24
REMARK    5  A    between atoms: C_13  and  C_15
REMARK    6  A    between atoms: C_15  and  C_17
REMARK                            x       y       z     vdW  Elec       q    Type
REMARK                         _______ _______ _______ _____ _____    ______ ____
ROOT
ATOM      1  N   UNL     1      -1.240   2.066   0.056  0.00  0.00    -0.256 N 
ATOM      2  C   UNL     1      -1.250   3.425   0.183  0.00  0.00    +0.104 A 
ATOM      3  C   UNL     1      -2.445   4.127   0.404  0.00  0.00    +0.092 A 
ATOM      4  C   UNL     1      -2.326   5.522   0.518  0.00  0.00    +0.057 A 
ATOM      5  C   UNL     1      -1.057   6.075   0.405  0.00  0.00    +0.083 A 
ATOM      6  S   UNL     1      -0.030   4.641   0.138  0.00  0.00    -0.065 S 
ATOM      7  C   UNL     1      -3.668   3.294   0.485  0.00  0.00    +0.264 A 
ATOM      8  O   UNL     1      -4.753   3.811   0.674  0.00  0.00    -0.267 OA
ATOM      9  N   UNL     1      -3.564   1.961   0.347  0.00  0.00    -0.274 N 
ATOM     10  H   UNL     1      -4.391   1.401   0.406  0.00  0.00    +0.173 HD
ATOM     11  C   UNL     1      -2.383   1.359   0.133  0.00  0.00    +0.335 A 
ATOM     12  O   UNL     1      -2.345   0.150   0.011  0.00  0.00    -0.246 OA
ENDROOT
BRANCH   1  16
ATOM     13  C   UNL     1       2.366   0.073  -0.599  0.00  0.00    +0.120 A 
ATOM     14  C   UNL     1       1.932   0.314   0.697  0.00  0.00    +0.047 A 
ATOM     15  C   UNL     1       0.739   0.975   0.914  0.00  0.00    +0.030 A 
ATOM     16  C   UNL     1      -0.026   1.399  -0.164  0.00  0.00    +0.052 A 
ATOM     17  C   UNL     1       0.409   1.158  -1.461  0.00  0.00    +0.030 A 
ATOM     18  C   UNL     1       1.602   0.496  -1.677  0.00  0.00    +0.047 A 
BRANCH  13  20
ATOM     19  C   UNL     1       3.925  -0.793  -2.171  0.00  0.00    +0.277 C 
ATOM     20  O   UNL     1       3.540  -0.579  -0.812  0.00  0.00    -0.495 OA
ENDBRANCH  13  20
ENDBRANCH   1  16
BRANCH   4  21
ATOM     21  N   UNL     1      -3.437   6.320   0.737  0.00  0.00    -0.356 N 
ATOM     22  H   UNL     1      -3.336   7.282   0.814  0.00  0.00    +0.142 HD
ATOM     23  H   UNL     1      -4.316   5.917   0.814  0.00  0.00    +0.142 HD
ENDBRANCH   4  21
BRANCH   5  24
ATOM     24  C   UNL     1      -0.675   7.430   0.481  0.00  0.00    +0.202 C 
ATOM     25  O   UNL     1      -1.526   8.298   0.569  0.00  0.00    -0.286 OA
BRANCH  24  26
ATOM     26  C   UNL     1       0.757   7.798   0.455  0.00  0.00    +0.023 A 
ATOM     27  C   UNL     1       1.727   6.867   0.831  0.00  0.00    +0.013 A 
ATOM     28  C   UNL     1       3.061   7.214   0.799  0.00  0.00    +0.021 A 
ATOM     29  C   UNL     1       3.439   8.487   0.406  0.00  0.00    +0.041 A 
ATOM     30  C   UNL     1       2.481   9.417   0.037  0.00  0.00    +0.021 A 
ATOM     31  C   UNL     1       1.144   9.079   0.059  0.00  0.00    +0.013 A 
ATOM     32 CL   UNL     1       5.120   8.918   0.375  0.00  0.00    -0.084 Cl
ENDBRANCH  24  26
ENDBRANCH   5  24
TORSDOF 5
