REMARK  Name = ZINC41512879
REMARK  6 active torsions:
REMARK  status: ('A' for Active; 'I' for Inactive)
REMARK    1  A    between atoms: C_1  and  C_2
REMARK    2  A    between atoms: C_4  and  O_30
REMARK    3  A    between atoms: C_5  and  C_22
REMARK    4  A    between atoms: C_11  and  C_12
REMARK    5  A    between atoms: C_22  and  N_23
REMARK    6  A    between atoms: C_26  and  C_29
REMARK                            x       y       z     vdW  Elec       q    Type
REMARK                         _______ _______ _______ _____ _____    ______ ____
ROOT
ATOM      1  C   UNL     1      -0.085   1.509   0.016  0.00  0.00    +0.045 C 
ATOM      2  C   UNL     1      -0.073   0.002   0.006  0.00  0.00    -0.033 A 
ATOM      3  C   UNL     1      -0.095  -0.674  -1.181  0.00  0.00    +0.050 A 
ATOM      4  C   UNL     1      -0.084  -2.066  -1.193  0.00  0.00    +0.122 A 
ATOM      5  C   UNL     1      -0.052  -2.781  -0.007  0.00  0.00    +0.020 A 
ATOM      6  C   UNL     1      -0.030  -2.109   1.209  0.00  0.00    +0.145 A 
ATOM      7  C   UNL     1      -0.035  -0.704   1.208  0.00  0.00    +0.071 A 
ATOM      8  C   UNL     1       0.001  -0.288   2.622  0.00  0.00    +0.232 C 
ATOM      9  O   UNL     1       0.004   0.847   3.066  0.00  0.00    -0.283 OA
ATOM     10  C   UNL     1       0.032  -1.549   3.377  0.00  0.00    +0.176 C 
ATOM     11  C   UNL     1       0.069  -1.674   4.728  0.00  0.00    +0.058 C 
ATOM     12  O   UNL     1       0.001  -2.563   2.480  0.00  0.00    -0.451 OA
ENDROOT
BRANCH  11  13
ATOM     13  C   UNL     1      -0.018  -3.003   5.345  0.00  0.00    -0.018 A 
ATOM     14  C   UNL     1      -0.115  -3.127   6.737  0.00  0.00    +0.012 A 
ATOM     15  C   UNL     1      -0.197  -4.375   7.312  0.00  0.00    +0.050 A 
ATOM     16  C   UNL     1      -0.183  -5.515   6.518  0.00  0.00    +0.166 A 
ATOM     17  C   UNL     1      -0.086  -5.399   5.130  0.00  0.00    +0.167 A 
ATOM     18  C   UNL     1      -0.009  -4.152   4.544  0.00  0.00    +0.057 A 
ATOM     19  O   UNL     1      -0.092  -6.652   4.588  0.00  0.00    -0.453 OA
ATOM     20  C   UNL     1       0.219  -7.543   5.675  0.00  0.00    +0.466 C 
ATOM     21  O   UNL     1      -0.250  -6.838   6.840  0.00  0.00    -0.453 OA
ENDBRANCH  11  13
BRANCH   4  22
ATOM     22  O   UNL     1      -0.106  -2.729  -2.378  0.00  0.00    -0.506 OA
ATOM     23  H   UNL     1       0.771  -2.914  -2.741  0.00  0.00    +0.292 HD
ENDBRANCH   4  22
BRANCH   5  24
ATOM     24  C   UNL     1      -0.042  -4.288  -0.035  0.00  0.00    -0.036 C 
BRANCH  24  25
ATOM     25  N   UNL     1       1.346  -4.767  -0.075  0.00  0.00    +0.383 N 
ATOM     26  C   UNL     1       2.029  -4.389   1.167  0.00  0.00    -0.078 C 
ATOM     27  C   UNL     1       3.498  -4.815   1.097  0.00  0.00    -0.016 C 
ATOM     28  C   UNL     1       3.575  -6.333   0.912  0.00  0.00    -0.018 C 
ATOM     29  C   UNL     1       2.796  -6.724  -0.348  0.00  0.00    -0.016 C 
ATOM     30  C   UNL     1       1.354  -6.227  -0.224  0.00  0.00    -0.078 C 
ATOM     31  C   UNL     1       5.037  -6.756   0.761  0.00  0.00    +0.007 C 
ATOM     32  H   UNL     1       1.823  -4.348  -0.860  0.00  0.00    -0.081 HD
ENDBRANCH  24  25
ENDBRANCH   5  24
TORSDOF 4
