REMARK  Name = ZINC12526691
REMARK  3 active torsions:
REMARK  status: ('A' for Active; 'I' for Inactive)
REMARK    1  A    between atoms: C_3  and  O_25
REMARK    2  A    between atoms: C_8  and  C_10
REMARK    3  A    between atoms: N_13  and  C_15
REMARK                            x       y       z     vdW  Elec       q    Type
REMARK                         _______ _______ _______ _____ _____    ______ ____
ROOT
ATOM      1  C   UNL     1       4.833   3.720  -0.024  0.00  0.00    +0.151 A 
ATOM      2  C   UNL     1       6.113   3.118  -0.034  0.00  0.00    +0.006 A 
ATOM      3  C   UNL     1       6.999   4.138  -0.043  0.00  0.00    +0.049 A 
ATOM      4  N   UNL     1       6.277   5.291  -0.029  0.00  0.00    -0.236 N 
ATOM      5  N   UNL     1       5.020   5.025  -0.018  0.00  0.00    -0.161 NA
ATOM      6  C   UNL     1       8.412   3.601  -0.059  0.00  0.00    +0.056 C 
ATOM      7  C   UNL     1       8.276   2.126  -0.498  0.00  0.00    +0.011 C 
ATOM      8  C   UNL     1       6.834   1.792  -0.056  0.00  0.00    +0.040 C 
ENDROOT
BRANCH   1  16
ATOM      9  C   UNL     1      -1.223   1.740   0.017  0.00  0.00    +0.023 A 
ATOM     10  C   UNL     1      -1.238   3.128   0.031  0.00  0.00    +0.050 A 
ATOM     11  C   UNL     1      -0.025   3.802   0.023  0.00  0.00    +0.157 A 
ATOM     12  C   UNL     1       1.159   3.064   0.007  0.00  0.00    +0.167 A 
ATOM     13  N   UNL     1       1.127   1.742   0.001  0.00  0.00    -0.237 NA
ATOM     14  C   UNL     1      -0.013   1.076   0.008  0.00  0.00    +0.113 A 
ATOM     15  N   UNL     1       2.387   3.726  -0.001  0.00  0.00    -0.262 N 
ATOM     16  C   UNL     1       3.534   3.019  -0.015  0.00  0.00    +0.270 C 
ATOM     17  O   UNL     1       3.499   1.803  -0.022  0.00  0.00    -0.268 OA
ATOM     18  H   UNL     1       2.415   4.696   0.004  0.00  0.00    +0.157 HD
BRANCH  11  19
ATOM     19  O   UNL     1       0.009   5.161   0.031  0.00  0.00    -0.503 OA
ATOM     20  H   UNL     1       0.010   5.560  -0.850  0.00  0.00    +0.292 HD
ENDBRANCH  11  19
ENDBRANCH   1  16
BRANCH   4  21
ATOM     21  C   UNL     1       6.825   6.581  -0.027  0.00  0.00    +0.066 A 
ATOM     22  C   UNL     1       8.007   6.834   0.656  0.00  0.00    +0.030 A 
ATOM     23  C   UNL     1       8.548   8.104   0.653  0.00  0.00    +0.040 A 
ATOM     24  C   UNL     1       7.907   9.129  -0.023  0.00  0.00    +0.124 A 
ATOM     25  C   UNL     1       6.725   8.880  -0.701  0.00  0.00    +0.040 A 
ATOM     26  C   UNL     1       6.184   7.610  -0.704  0.00  0.00    +0.030 A 
ATOM     27  F   UNL     1       8.434  10.373  -0.020  0.00  0.00    -0.205 F 
ENDBRANCH   4  21
TORSDOF 3
