REMARK  Name = ZINC09296210
REMARK  9 active torsions:
REMARK  status: ('A' for Active; 'I' for Inactive)
REMARK    1  A    between atoms: C_1  and  C_2
REMARK    2  A    between atoms: C_2  and  O_3
REMARK    3  A    between atoms: O_3  and  C_4
REMARK    4  A    between atoms: C_6  and  C_19
REMARK    5  A    between atoms: C_9  and  O_10
REMARK    6  A    between atoms: O_10  and  C_11
REMARK    7  A    between atoms: C_11  and  C_12
REMARK    8  A    between atoms: C_32  and  N_36
REMARK    9  A    between atoms: C_33  and  C_34
REMARK                            x       y       z     vdW  Elec       q    Type
REMARK                         _______ _______ _______ _____ _____    ______ ____
ROOT
ATOM      1  C   UNL     1       2.543  -2.800  -0.037  0.00  0.00    +0.098 C 
ATOM      2  C   UNL     1       2.619  -3.657  -1.274  0.00  0.00    +0.008 A 
ATOM      3  C   UNL     1       2.901  -3.051  -2.499  0.00  0.00    +0.009 A 
ATOM      4  C   UNL     1       2.982  -3.776  -3.647  0.00  0.00    +0.009 A 
ATOM      5  C   UNL     1       2.778  -5.166  -3.607  0.00  0.00    -0.014 A 
ATOM      6  C   UNL     1       2.851  -5.948  -4.773  0.00  0.00    +0.008 A 
ATOM      7  C   UNL     1       2.649  -7.292  -4.695  0.00  0.00    +0.001 A 
ATOM      8  C   UNL     1       2.370  -7.905  -3.475  0.00  0.00    +0.001 A 
ATOM      9  C   UNL     1       2.292  -7.178  -2.327  0.00  0.00    +0.012 A 
ATOM     10  C   UNL     1       2.493  -5.789  -2.369  0.00  0.00    +0.025 A 
ATOM     11  C   UNL     1       2.417  -5.005  -1.196  0.00  0.00    +0.142 A 
ATOM     12  O   UNL     1       2.142  -5.607  -0.014  0.00  0.00    -0.440 OA
ATOM     13  C   UNL     1       2.446  -4.991   1.140  0.00  0.00    +0.199 C 
ATOM     14  C   UNL     1       2.651  -3.652   1.196  0.00  0.00    +0.098 C 
ENDROOT
BRANCH   1  17
ATOM     15  C   UNL     1       0.002  -0.004   0.002  0.00  0.00    +0.162 A 
ATOM     16  C   UNL     1       1.210  -0.682  -0.013  0.00  0.00    +0.054 A 
ATOM     17  C   UNL     1       1.227  -2.064  -0.021  0.00  0.00    -0.031 A 
ATOM     18  C   UNL     1       0.041  -2.773  -0.013  0.00  0.00    +0.008 A 
ATOM     19  C   UNL     1      -1.168  -2.103   0.002  0.00  0.00    +0.050 A 
ATOM     20  C   UNL     1      -1.192  -0.718   0.015  0.00  0.00    +0.162 A 
BRANCH  15  21
ATOM     21  O   UNL     1      -0.016   1.356   0.009  0.00  0.00    -0.489 OA
BRANCH  21  23
ATOM     22  C   UNL     1       1.027   3.536   0.011  0.00  0.00    +0.048 C 
ATOM     23  C   UNL     1       1.248   2.022   0.001  0.00  0.00    +0.226 C 
ENDBRANCH  21  23
ENDBRANCH  15  21
BRANCH  20  24
ATOM     24  O   UNL     1      -2.381  -0.057   0.036  0.00  0.00    -0.484 OA
BRANCH  24  25
ATOM     25  C   UNL     1      -3.567  -0.855   0.049  0.00  0.00    +0.266 C 
BRANCH  25  26
ATOM     26  C   UNL     1      -4.776   0.044   0.071  0.00  0.00    +0.008 A 
ATOM     27  C   UNL     1      -4.617   1.417   0.082  0.00  0.00    +0.008 A 
ATOM     28  C   UNL     1      -5.727   2.241   0.098  0.00  0.00    +0.000 A 
ATOM     29  C   UNL     1      -6.996   1.693   0.112  0.00  0.00    +0.001 A 
ATOM     30  C   UNL     1      -7.156   0.321   0.107  0.00  0.00    +0.020 A 
ATOM     31  C   UNL     1      -6.046  -0.505   0.086  0.00  0.00    +0.047 A 
ATOM     32 CL   UNL     1      -6.246  -2.229   0.080  0.00  0.00    -0.083 Cl
ENDBRANCH  25  26
ENDBRANCH  24  25
ENDBRANCH  20  24
ENDBRANCH   1  17
BRANCH  13  33
ATOM     33  N   UNL     1       2.554  -5.734   2.289  0.00  0.00    -0.328 N 
ATOM     34  H   UNL     1       2.410  -6.693   2.262  0.00  0.00    +0.145 HD
ATOM     35  H   UNL     1       2.773  -5.301   3.129  0.00  0.00    +0.145 HD
ENDBRANCH  13  33
BRANCH  14  36
ATOM     36  C   UNL     1       2.975  -3.040   2.450  0.00  0.00    +0.101 C 
ATOM     37  N   UNL     1       3.232  -2.554   3.444  0.00  0.00    -0.191 NA
ENDBRANCH  14  36
TORSDOF 8
