REMARK  Name = ZINC20427708
REMARK  7 active torsions:
REMARK  status: ('A' for Active; 'I' for Inactive)
REMARK    1  A    between atoms: C_1  and  N_2
REMARK    2  A    between atoms: C_3  and  C_21
REMARK    3  A    between atoms: C_6  and  S_7
REMARK    4  A    between atoms: S_7  and  C_8
REMARK    5  A    between atoms: C_8  and  C_9
REMARK    6  A    between atoms: N_11  and  C_12
REMARK    7  A    between atoms: C_16  and  N_18
REMARK                            x       y       z     vdW  Elec       q    Type
REMARK                         _______ _______ _______ _____ _____    ______ ____
ROOT
ATOM      1  C   UNL     1      -2.453   0.575  -0.066  0.00  0.00    +0.173 C 
ENDROOT
BRANCH   1   2
ATOM      2  C   UNL     1      -1.248   1.475  -0.160  0.00  0.00    +0.227 C 
ATOM      3  O   UNL     1      -1.391   2.658  -0.387  0.00  0.00    -0.275 OA
ATOM      4  N   UNL     1      -0.011   0.966   0.007  0.00  0.00    -0.285 N 
ATOM      5  H   UNL     1       0.125  -0.119   0.129  0.00  0.00    +0.155 HD
BRANCH   4   6
ATOM      6  C   UNL     1       1.100   1.817   0.026  0.00  0.00    +0.036 A 
ATOM      7  C   UNL     1       2.318   1.382  -0.478  0.00  0.00    +0.023 A 
ATOM      8  C   UNL     1       3.411   2.226  -0.463  0.00  0.00    +0.004 A 
ATOM      9  C   UNL     1       3.296   3.499   0.065  0.00  0.00    +0.033 A 
ATOM     10  C   UNL     1       2.086   3.933   0.573  0.00  0.00    +0.128 A 
ATOM     11  C   UNL     1       0.987   3.096   0.555  0.00  0.00    +0.056 A 
BRANCH  10  12
ATOM     12  N   UNL     1       1.967   5.297   1.136  0.00  0.00    +0.056 N 
ATOM     13  O   UNL     1       0.901   5.680   1.584  0.00  0.00    -0.126 OA
ATOM     14  O   UNL     1       2.935   6.036   1.152  0.00  0.00    -0.126 OA
ENDBRANCH  10  12
ENDBRANCH   4   6
ENDBRANCH   1   2
BRANCH   1  15
ATOM     15  S   UNL     1      -3.955   1.548  -0.335  0.00  0.00    -0.077 S 
BRANCH  15  21
ATOM     16  C   UNL     1      -7.252   1.684  -0.556  0.00  0.00    +0.153 C 
ATOM     17  N   UNL     1      -6.525   0.442  -0.284  0.00  0.00    -0.305 N 
ATOM     18  C   UNL     1      -7.062  -0.811  -0.085  0.00  0.00    +0.171 A 
ATOM     19  N   UNL     1      -6.057  -1.631   0.126  0.00  0.00    -0.128 NA
ATOM     20  N   UNL     1      -4.946  -0.988   0.068  0.00  0.00    -0.122 NA
ATOM     21  C   UNL     1      -5.171   0.283  -0.174  0.00  0.00    +0.192 A 
BRANCH  18  22
ATOM     22  C   UNL     1      -8.491  -1.163  -0.105  0.00  0.00    +0.057 A 
ATOM     23  C   UNL     1      -9.074  -2.402  -0.192  0.00  0.00    +0.034 A 
ATOM     24  C   UNL     1     -10.449  -2.487  -0.193  0.00  0.00    +0.026 A 
ATOM     25  C   UNL     1     -11.182  -1.346  -0.107  0.00  0.00    +0.061 A 
ATOM     26  S   UNL     1      -9.916  -0.092  -0.013  0.00  0.00    -0.092 S 
ATOM     27 BR   UNL     1     -11.305  -4.169  -0.312  0.00  0.00    -0.050 Br
ENDBRANCH  18  22
ENDBRANCH  15  21
ENDBRANCH   1  15
TORSDOF 6
