REMARK  Name = ZINC35051140
REMARK  6 active torsions:
REMARK  status: ('A' for Active; 'I' for Inactive)
REMARK    1  A    between atoms: C_1  and  C_2
REMARK    2  A    between atoms: C_2  and  C_4
REMARK    3  A    between atoms: C_2  and  N_30
REMARK    4  A    between atoms: C_10  and  C_12
REMARK    5  A    between atoms: C_19  and  C_26
REMARK    6  A    between atoms: C_21  and  O_22
REMARK                            x       y       z     vdW  Elec       q    Type
REMARK                         _______ _______ _______ _____ _____    ______ ____
ROOT
ATOM      1  C   UNL     1       2.618  -0.011   3.708  0.00  0.00    +0.238 C 
ATOM      2  O   UNL     1       1.588   0.631   3.811  0.00  0.00    -0.273 OA
ATOM      3  N   UNL     1       3.213  -0.481   4.787  0.00  0.00    -0.284 N 
ATOM      4  C   UNL     1       2.753  -0.138   6.022  0.00  0.00    +0.037 A 
ATOM      5  C   UNL     1       3.158  -0.875   7.149  0.00  0.00    +0.024 A 
ATOM      6  C   UNL     1       2.706  -0.542   8.386  0.00  0.00    +0.014 A 
ATOM      7  C   UNL     1       1.828   0.545   8.544  0.00  0.00    +0.029 A 
ATOM      8  C   UNL     1       1.348   0.907   9.821  0.00  0.00    +0.072 A 
ATOM      9  C   UNL     1       0.489   1.982   9.921  0.00  0.00    +0.100 A 
ATOM     10  C   UNL     1       0.116   2.680   8.781  0.00  0.00    +0.285 A 
ATOM     11  O   UNL     1       0.574   2.334   7.573  0.00  0.00    -0.425 OA
ATOM     12  C   UNL     1       1.416   1.291   7.418  0.00  0.00    +0.141 A 
ATOM     13  C   UNL     1       1.886   0.947   6.163  0.00  0.00    +0.070 A 
ATOM     14  H   UNL     1       3.978  -1.070   4.702  0.00  0.00    +0.155 HD
ENDROOT
BRANCH   1  21
ATOM     15  C   UNL     1       1.076   0.071   1.079  0.00  0.00    +0.201 C 
ATOM     16  O   UNL     1       0.482  -0.699   1.805  0.00  0.00    -0.277 OA
ATOM     17  N   UNL     1       2.374   0.349   1.310  0.00  0.00    -0.291 N 
ATOM     18  C   UNL     1       3.187   1.330   0.569  0.00  0.00    +0.108 C 
ATOM     19  C   UNL     1       4.321   1.727   1.547  0.00  0.00    +0.021 C 
ATOM     20  C   UNL     1       4.611   0.375   2.252  0.00  0.00    +0.033 C 
ATOM     21  C   UNL     1       3.212  -0.270   2.348  0.00  0.00    +0.162 C 
BRANCH  15  23
ATOM     22  C   UNL     1      -0.007   2.154   0.283  0.00  0.00    -0.005 C 
ATOM     23  C   UNL     1       0.361   0.715  -0.081  0.00  0.00    +0.010 C 
BRANCH  23  24
ATOM     24  N   UNL     1      -0.860  -0.042  -0.385  0.00  0.00    +0.385 N 
ATOM     25  H   UNL     1      -1.339   0.390  -1.161  0.00  0.00    -0.089 HD
ATOM     26  H   UNL     1      -0.617  -0.991  -0.625  0.00  0.00    -0.089 HD
ATOM     27  H   UNL     1      -1.465  -0.044   0.423  0.00  0.00    -0.089 HD
ENDBRANCH  23  24
ENDBRANCH  15  23
ENDBRANCH   1  21
BRANCH   8  28
ATOM     28  C   UNL     1       1.764   0.136  11.047  0.00  0.00    +0.418 C 
ATOM     29  F   UNL     1       3.140   0.288  11.249  0.00  0.00    -0.166 F 
ATOM     30  F   UNL     1       1.073   0.623  12.161  0.00  0.00    -0.166 F 
ATOM     31  F   UNL     1       1.467  -1.220  10.869  0.00  0.00    -0.166 F 
ENDBRANCH   8  28
BRANCH  10  32
ATOM     32  O   UNL     1      -0.722   3.727   8.893  0.00  0.00    -0.480 OA
ATOM     33  H   UNL     1      -0.930   4.157   8.052  0.00  0.00    +0.295 HD
ENDBRANCH  10  32
TORSDOF 5
