REMARK  Name = ZINC09685469
REMARK  7 active torsions:
REMARK  status: ('A' for Active; 'I' for Inactive)
REMARK    1  A    between atoms: C_1  and  C_2
REMARK    2  A    between atoms: C_7  and  N_8
REMARK    3  A    between atoms: N_8  and  S_9
REMARK    4  A    between atoms: S_9  and  C_12
REMARK    5  A    between atoms: C_17  and  C_18
REMARK    6  A    between atoms: C_24  and  C_28
REMARK    7  A    between atoms: C_24  and  C_29
REMARK                            x       y       z     vdW  Elec       q    Type
REMARK                         _______ _______ _______ _____ _____    ______ ____
ROOT
ATOM      1  C   UNL     1       3.370   2.487   0.329  0.00  0.00    +0.113 A 
ATOM      2  C   UNL     1       2.538   1.407   0.535  0.00  0.00    +0.055 A 
ATOM      3  C   UNL     1       1.189   1.609   0.802  0.00  0.00    +0.049 A 
ATOM      4  C   UNL     1       0.686   2.922   0.859  0.00  0.00    +0.011 A 
ATOM      5  C   UNL     1       1.539   4.002   0.649  0.00  0.00    +0.016 A 
ATOM      6  C   UNL     1       2.873   3.780   0.386  0.00  0.00    -0.023 A 
ATOM      7  C   UNL     1       3.797   4.949   0.159  0.00  0.00    +0.046 C 
ATOM      8  C   UNL     1      -0.742   2.781   1.152  0.00  0.00    +0.046 A 
ATOM      9  C   UNL     1      -0.997   1.421   1.251  0.00  0.00    +0.028 A 
ATOM     10  N   UNL     1       0.139   0.742   1.045  0.00  0.00    -0.357 N 
ATOM     11  H   UNL     1       0.214  -0.225   1.061  0.00  0.00    +0.166 HD
ATOM     12  C   UNL     1      -2.375   0.890   1.570  0.00  0.00    +0.060 C 
ATOM     13  C   UNL     1      -3.132   1.967   2.356  0.00  0.00    -0.023 C 
ATOM     14  C   UNL     1      -3.161   3.280   1.575  0.00  0.00    +0.086 C 
ATOM     15  C   UNL     1      -1.750   3.762   1.319  0.00  0.00    +0.166 C 
ATOM     16  O   UNL     1      -1.490   4.946   1.258  0.00  0.00    -0.292 OA
ATOM     17  C   UNL     1      -2.436   2.194   3.700  0.00  0.00    +0.011 C 
ATOM     18  C   UNL     1      -4.567   1.495   2.604  0.00  0.00    +0.011 C 
ENDROOT
BRANCH   1  19
ATOM     19  S   UNL     1       5.079   2.221  -0.008  0.00  0.00    +0.073 S 
ATOM     20  O   UNL     1       5.282   0.814   0.006  0.00  0.00    -0.150 OA
ATOM     21  O   UNL     1       5.400   3.025  -1.135  0.00  0.00    -0.150 OA
BRANCH  19  22
ATOM     22  N   UNL     1       5.932   2.835   1.271  0.00  0.00    -0.216 N 
ATOM     23  H   UNL     1       6.575   3.548   1.128  0.00  0.00    +0.174 HD
BRANCH  22  30
ATOM     24  C   UNL     1       6.052   4.644   3.463  0.00  0.00    +0.046 C 
ATOM     25  C   UNL     1       5.776   3.175   3.655  0.00  0.00    -0.028 A 
ATOM     26  C   UNL     1       5.572   2.670   4.925  0.00  0.00    +0.005 A 
ATOM     27  C   UNL     1       5.317   1.323   5.101  0.00  0.00    +0.000 A 
ATOM     28  C   UNL     1       5.267   0.476   4.009  0.00  0.00    +0.002 A 
ATOM     29  C   UNL     1       5.466   0.975   2.737  0.00  0.00    +0.025 A 
ATOM     30  C   UNL     1       5.726   2.328   2.556  0.00  0.00    +0.051 A 
ENDBRANCH  22  30
ENDBRANCH  19  22
ENDBRANCH   1  19
TORSDOF 3
