REMARK  Name = ZINC05862707
REMARK  8 active torsions:
REMARK  status: ('A' for Active; 'I' for Inactive)
REMARK    1  A    between atoms: C_1  and  C_2
REMARK    2  A    between atoms: C_2  and  C_3
REMARK    3  A    between atoms: C_2  and  C_4
REMARK    4  A    between atoms: C_7  and  C_10
REMARK    5  A    between atoms: C_15  and  S_19
REMARK    6  A    between atoms: S_19  and  C_20
REMARK    7  A    between atoms: C_26  and  C_28
REMARK    8  A    between atoms: C_26  and  C_29
REMARK                            x       y       z     vdW  Elec       q    Type
REMARK                         _______ _______ _______ _____ _____    ______ ____
ROOT
ATOM      1  C   UNL     1      -5.419  -2.005   0.043  0.00  0.00    +0.092 C 
ATOM      2  C   UNL     1      -5.388  -3.504   0.062  0.00  0.00    +0.069 A 
ATOM      3  C   UNL     1      -5.640  -4.224  -1.064  0.00  0.00    +0.111 A 
ATOM      4  N   UNL     1      -5.596  -5.592  -1.010  0.00  0.00    -0.322 N 
ATOM      5  C   UNL     1      -5.304  -6.221   0.163  0.00  0.00    +0.171 A 
ATOM      6  N   UNL     1      -5.062  -5.535   1.261  0.00  0.00    -0.185 NA
ATOM      7  C   UNL     1      -5.094  -4.194   1.259  0.00  0.00    +0.280 A 
ATOM      8  O   UNL     1      -4.869  -3.572   2.287  0.00  0.00    -0.265 OA
ATOM      9  N   UNL     1      -5.938  -3.582  -2.243  0.00  0.00    -0.304 N 
ATOM     10  C   UNL     1      -6.364  -2.281  -2.242  0.00  0.00    +0.017 C 
ATOM     11  C   UNL     1      -6.146  -1.488  -1.172  0.00  0.00    +0.024 C 
ATOM     12  C   UNL     1      -6.591  -0.155  -1.159  0.00  0.00    +0.162 C 
ATOM     13  C   UNL     1      -7.330   0.433  -2.330  0.00  0.00    +0.086 C 
ATOM     14  C   UNL     1      -8.081  -0.686  -3.059  0.00  0.00    -0.023 C 
ATOM     15  C   UNL     1      -7.074  -1.758  -3.466  0.00  0.00    +0.058 C 
ATOM     16  C   UNL     1      -8.763  -0.120  -4.306  0.00  0.00    +0.011 C 
ATOM     17  C   UNL     1      -9.130  -1.294  -2.125  0.00  0.00    +0.011 C 
ATOM     18  O   UNL     1      -6.376   0.535  -0.182  0.00  0.00    -0.292 OA
ATOM     19  H   UNL     1      -5.847  -4.056  -3.084  0.00  0.00    +0.153 HD
ATOM     20  H   UNL     1      -5.773  -6.114  -1.808  0.00  0.00    +0.169 HD
ENDROOT
BRANCH   1  24
ATOM     21  C   UNL     1      -1.412  -0.526   0.013  0.00  0.00    -0.045 A 
ATOM     22  C   UNL     1      -2.259  -0.204   1.056  0.00  0.00    +0.004 A 
ATOM     23  C   UNL     1      -3.556  -0.683   1.066  0.00  0.00    +0.005 A 
ATOM     24  C   UNL     1      -4.006  -1.482   0.032  0.00  0.00    -0.035 A 
ATOM     25  C   UNL     1      -3.159  -1.803  -1.012  0.00  0.00    +0.005 A 
ATOM     26  C   UNL     1      -1.863  -1.321  -1.024  0.00  0.00    +0.004 A 
BRANCH  21  28
ATOM     27  C   UNL     1      -0.019   1.526   0.010  0.00  0.00    +0.012 C 
ATOM     28  C   UNL     1       0.002  -0.004   0.002  0.00  0.00    +0.013 C 
ATOM     29  C   UNL     1       0.742  -0.511   1.242  0.00  0.00    +0.012 C 
ENDBRANCH  21  28
ENDBRANCH   1  24
BRANCH   5  30
ATOM     30  S   UNL     1      -5.250  -7.981   0.212  0.00  0.00    -0.091 S 
ATOM     31  C   UNL     1      -4.834  -8.360   1.936  0.00  0.00    +0.093 C 
ENDBRANCH   5  30
TORSDOF 3
