REMARK  Name = ZINC57434751
REMARK  8 active torsions:
REMARK  status: ('A' for Active; 'I' for Inactive)
REMARK    1  A    between atoms: C_1  and  C_2
REMARK    2  A    between atoms: C_5  and  N_8
REMARK    3  A    between atoms: N_8  and  C_9
REMARK    4  A    between atoms: C_14  and  N_15
REMARK    5  A    between atoms: N_15  and  S_16
REMARK    6  A    between atoms: S_16  and  C_19
REMARK    7  A    between atoms: C_22  and  S_25
REMARK    8  A    between atoms: S_25  and  N_28
REMARK                            x       y       z     vdW  Elec       q    Type
REMARK                         _______ _______ _______ _____ _____    ______ ____
ROOT
ATOM      1  N   UNL     1       0.305  -6.956  -0.044  0.00  0.00    -0.214 N 
ATOM      2  H   UNL     1       0.765  -6.585  -0.813  0.00  0.00    +0.174 HD
ENDROOT
BRANCH   1   8
ATOM      3  C   UNL     1       0.295  -4.879   1.200  0.00  0.00    +0.054 A 
ATOM      4  C   UNL     1       0.306  -4.209   2.414  0.00  0.00    +0.025 A 
ATOM      5  C   UNL     1       0.346  -4.923   3.598  0.00  0.00    +0.002 A 
ATOM      6  C   UNL     1       0.376  -6.306   3.575  0.00  0.00    +0.002 A 
ATOM      7  C   UNL     1       0.366  -6.982   2.369  0.00  0.00    +0.026 A 
ATOM      8  C   UNL     1       0.320  -6.274   1.177  0.00  0.00    +0.069 A 
BRANCH   3   9
ATOM      9  N   UNL     1       0.255  -4.158   0.001  0.00  0.00    -0.313 N 
ATOM     10  H   UNL     1       0.138  -4.625  -0.842  0.00  0.00    +0.152 HD
BRANCH   9  15
ATOM     11  C   UNL     1       0.771   1.489   0.066  0.00  0.00    +0.044 C 
ATOM     12  C   UNL     1       0.633  -0.012   0.049  0.00  0.00    -0.050 A 
ATOM     13  C   UNL     1       1.443  -0.788   0.858  0.00  0.00    +0.005 A 
ATOM     14  C   UNL     1       1.320  -2.163   0.845  0.00  0.00    +0.023 A 
ATOM     15  C   UNL     1       0.381  -2.767   0.017  0.00  0.00    +0.031 A 
ATOM     16  C   UNL     1      -0.430  -1.984  -0.794  0.00  0.00    +0.023 A 
ATOM     17  C   UNL     1      -0.306  -0.609  -0.772  0.00  0.00    +0.005 A 
ENDBRANCH   9  15
ENDBRANCH   3   9
ENDBRANCH   1   8
BRANCH   1  18
ATOM     18  S   UNL     1      -0.500  -8.398  -0.178  0.00  0.00    +0.072 S 
ATOM     19  O   UNL     1      -0.434  -8.775  -1.546  0.00  0.00    -0.150 OA
ATOM     20  O   UNL     1      -0.015  -9.231   0.866  0.00  0.00    -0.150 OA
BRANCH  18  21
ATOM     21  C   UNL     1      -2.197  -8.082   0.176  0.00  0.00    +0.109 A 
ATOM     22  C   UNL     1      -2.660  -8.171   1.476  0.00  0.00    +0.031 A 
ATOM     23  C   UNL     1      -3.991  -7.924   1.754  0.00  0.00    +0.030 A 
ATOM     24  C   UNL     1      -4.859  -7.585   0.732  0.00  0.00    +0.106 A 
ATOM     25  C   UNL     1      -4.396  -7.495  -0.567  0.00  0.00    +0.030 A 
ATOM     26  C   UNL     1      -3.063  -7.738  -0.844  0.00  0.00    +0.031 A 
BRANCH  24  27
ATOM     27  S   UNL     1      -6.556  -7.271   1.086  0.00  0.00    +0.061 S 
ATOM     28  O   UNL     1      -7.273  -7.507  -0.118  0.00  0.00    -0.153 OA
ATOM     29  O   UNL     1      -6.852  -7.954   2.296  0.00  0.00    -0.153 OA
BRANCH  27  30
ATOM     30  N   UNL     1      -6.697  -5.653   1.410  0.00  0.00    -0.177 NA
ATOM     31  C   UNL     1      -6.562  -5.029   2.735  0.00  0.00    +0.109 C 
ATOM     32  C   UNL     1      -6.796  -3.514   2.554  0.00  0.00    +0.018 C 
ATOM     33  C   UNL     1      -7.609  -3.444   1.234  0.00  0.00    +0.018 C 
ATOM     34  C   UNL     1      -6.972  -4.598   0.417  0.00  0.00    +0.109 C 
ENDBRANCH  27  30
ENDBRANCH  24  27
ENDBRANCH  18  21
ENDBRANCH   1  18
TORSDOF 7
