REMARK  Name = ZINC21090429
REMARK  10 active torsions:
REMARK  status: ('A' for Active; 'I' for Inactive)
REMARK    1  A    between atoms: C_1  and  C_2
REMARK    2  A    between atoms: C_3  and  S_16
REMARK    3  A    between atoms: C_4  and  C_7
REMARK    4  A    between atoms: C_8  and  C_9
REMARK    5  A    between atoms: S_16  and  N_19
REMARK    6  A    between atoms: C_22  and  C_25
REMARK    7  A    between atoms: N_27  and  C_28
REMARK    8  A    between atoms: C_28  and  C_29
REMARK    9  A    between atoms: C_29  and  C_30
REMARK   10  A    between atoms: C_30  and  N_31
REMARK                            x       y       z     vdW  Elec       q    Type
REMARK                         _______ _______ _______ _____ _____    ______ ____
ROOT
ATOM      1  N   UNL     1       0.803  -0.460  -1.143  0.00  0.00    -0.176 NA
ATOM      2  C   UNL     1       0.002  -0.004   0.002  0.00  0.00    +0.110 C 
ATOM      3  C   UNL     1      -0.019   1.528   0.010  0.00  0.00    +0.030 C 
ATOM      4  C   UNL     1       1.419   2.053  -0.001  0.00  0.00    +0.077 C 
ATOM      5  C   UNL     1       2.124   1.587  -1.276  0.00  0.00    +0.030 C 
ATOM      6  C   UNL     1       2.170   0.056  -1.299  0.00  0.00    +0.110 C 
ENDROOT
BRANCH   4   7
ATOM      7  C   UNL     1       1.402   3.560   0.042  0.00  0.00    +0.216 C 
ATOM      8  O   UNL     1       0.346   4.154   0.078  0.00  0.00    -0.276 OA
ATOM      9  N   UNL     1       2.562   4.246   0.041  0.00  0.00    -0.315 N 
ATOM     10  H   UNL     1       3.521   3.707   0.009  0.00  0.00    +0.149 HD
BRANCH   9  11
ATOM     11  C   UNL     1       2.546   5.711   0.082  0.00  0.00    +0.102 C 
BRANCH  11  12
ATOM     12  C   UNL     1       3.983   6.237   0.071  0.00  0.00    +0.000 C 
BRANCH  12  13
ATOM     13  C   UNL     1       3.967   7.766   0.115  0.00  0.00    -0.077 C 
BRANCH  13  14
ATOM     14  N   UNL     1       5.346   8.271   0.104  0.00  0.00    +0.380 N 
ATOM     15  C   UNL     1       6.094   7.796   1.290  0.00  0.00    -0.079 C 
ATOM     16  C   UNL     1       7.413   8.498   1.468  0.00  0.00    -0.019 C 
ATOM     17  C   UNL     1       7.207   9.692   2.422  0.00  0.00    -0.002 C 
ATOM     18  C   UNL     1       6.599  10.835   1.751  0.00  0.00    -0.002 C 
ATOM     19  C   UNL     1       5.201  10.504   1.188  0.00  0.00    -0.019 C 
ATOM     20  C   UNL     1       5.373   9.737  -0.095  0.00  0.00    -0.079 C 
ATOM     21  H   UNL     1       5.873   7.847  -0.764  0.00  0.00    -0.082 HD
ENDBRANCH  13  14
ENDBRANCH  12  13
ENDBRANCH  11  12
ENDBRANCH   9  11
ENDBRANCH   4   7
BRANCH   1  22
ATOM     22  S   UNL     1       0.176  -1.534  -2.236  0.00  0.00    +0.066 S 
ATOM     23  O   UNL     1       1.282  -2.187  -2.843  0.00  0.00    -0.153 OA
ATOM     24  O   UNL     1      -0.853  -2.246  -1.562  0.00  0.00    -0.153 OA
BRANCH  22  27
ATOM     25  C   UNL     1      -3.019  -0.412  -2.529  0.00  0.00    +0.071 C 
ATOM     26  C   UNL     1      -1.947  -0.158  -3.558  0.00  0.00    +0.107 A 
ATOM     27  C   UNL     1      -0.609  -0.592  -3.501  0.00  0.00    +0.174 A 
ATOM     28  C   UNL     1      -0.059  -0.113  -4.666  0.00  0.00    +0.187 A 
ATOM     29  O   UNL     1      -1.048   0.543  -5.302  0.00  0.00    -0.353 OA
ATOM     30  N   UNL     1      -2.079   0.507  -4.671  0.00  0.00    -0.081 NA
BRANCH  28  31
ATOM     31  C   UNL     1       1.324  -0.280  -5.122  0.00  0.00    +0.052 C 
ATOM     32  C   UNL     1       1.714   0.252  -6.296  0.00  0.00    +0.014 C 
BRANCH  32  33
ATOM     33  C   UNL     1       3.103   0.083  -6.755  0.00  0.00    +0.010 A 
ATOM     34  C   UNL     1       4.019  -0.628  -5.975  0.00  0.00    +0.011 A 
ATOM     35  C   UNL     1       5.318  -0.782  -6.411  0.00  0.00    +0.001 A 
ATOM     36  C   UNL     1       5.718  -0.234  -7.618  0.00  0.00    +0.003 A 
ATOM     37  C   UNL     1       4.819   0.472  -8.397  0.00  0.00    +0.039 A 
ATOM     38  C   UNL     1       3.512   0.630  -7.977  0.00  0.00    +0.131 A 
ATOM     39  F   UNL     1       2.633   1.315  -8.741  0.00  0.00    -0.205 F 
ENDBRANCH  32  33
ENDBRANCH  28  31
ENDBRANCH  22  27
ENDBRANCH   1  22
TORSDOF 9
