REMARK  Name = ZINC12437046
REMARK  5 active torsions:
REMARK  status: ('A' for Active; 'I' for Inactive)
REMARK    1  A    between atoms: C_1  and  O_2
REMARK    2  A    between atoms: O_2  and  C_3
REMARK    3  A    between atoms: C_8  and  N_9
REMARK    4  A    between atoms: N_16  and  N_17
REMARK    5  A    between atoms: C_18  and  C_19
REMARK                            x       y       z     vdW  Elec       q    Type
REMARK                         _______ _______ _______ _____ _____    ______ ____
ROOT
ATOM      1  N   UNL     1      -2.429   1.038   0.019  0.00  0.00    -0.244 N 
ATOM      2  C   UNL     1      -3.016   0.706  -1.151  0.00  0.00    +0.264 A 
ATOM      3  O   UNL     1      -2.515   1.032  -2.214  0.00  0.00    -0.267 OA
ATOM      4  C   UNL     1      -4.211  -0.025  -1.117  0.00  0.00    +0.050 A 
ATOM      5  C   UNL     1      -4.743  -0.382   0.113  0.00  0.00    +0.084 A 
ATOM      6  N   UNL     1      -4.131  -0.003   1.239  0.00  0.00    -0.214 NA
ATOM      7  C   UNL     1      -3.008   0.685   1.202  0.00  0.00    +0.223 A 
ATOM      8  N   UNL     1      -2.408   1.054   2.379  0.00  0.00    -0.206 N 
ATOM      9  C   UNL     1      -5.996  -1.169   0.148  0.00  0.00    +0.004 A 
ATOM     10  C   UNL     1      -6.757  -1.246   1.312  0.00  0.00    +0.010 A 
ATOM     11  C   UNL     1      -7.931  -1.973   1.315  0.00  0.00    +0.001 A 
ATOM     12  C   UNL     1      -8.348  -2.621   0.166  0.00  0.00    +0.000 A 
ATOM     13  C   UNL     1      -7.590  -2.554  -0.990  0.00  0.00    +0.004 A 
ATOM     14  C   UNL     1      -6.412  -1.837  -1.003  0.00  0.00    -0.037 A 
ATOM     15  C   UNL     1      -5.574  -1.776  -2.252  0.00  0.00    +0.047 C 
ATOM     16  C   UNL     1      -4.913  -0.405  -2.392  0.00  0.00    +0.007 C 
ATOM     17  C   UNL     1      -3.893  -0.451  -3.535  0.00  0.00    +0.012 C 
ATOM     18  C   UNL     1      -4.602  -0.833  -4.835  0.00  0.00    +0.001 C 
ATOM     19  C   UNL     1      -5.674   0.211  -5.157  0.00  0.00    +0.000 C 
ATOM     20  C   UNL     1      -6.692   0.263  -4.016  0.00  0.00    +0.001 C 
ATOM     21  C   UNL     1      -5.982   0.643  -2.715  0.00  0.00    +0.012 C 
ATOM     22  H   UNL     1      -1.581   1.560   2.364  0.00  0.00    +0.177 HD
ENDROOT
BRANCH   1  28
ATOM     23  C   UNL     1      -1.238   3.146   0.030  0.00  0.00    +0.144 A 
ATOM     24  C   UNL     1      -0.043   3.848   0.023  0.00  0.00    +0.048 A 
ATOM     25  C   UNL     1       1.160   3.166   0.007  0.00  0.00    +0.004 A 
ATOM     26  C   UNL     1       1.174   1.783   0.000  0.00  0.00    +0.002 A 
ATOM     27  C   UNL     1      -0.013   1.076   0.008  0.00  0.00    +0.030 A 
ATOM     28  C   UNL     1      -1.223   1.753   0.017  0.00  0.00    +0.094 A 
BRANCH  23  30
ATOM     29  C   UNL     1      -2.358   5.243   0.052  0.00  0.00    +0.277 C 
ATOM     30  O   UNL     1      -2.421   3.816   0.045  0.00  0.00    -0.493 OA
ENDBRANCH  23  30
ENDBRANCH   1  28
BRANCH   8  31
ATOM     31  N   UNL     1      -2.990   0.699   3.603  0.00  0.00    -0.188 NA
ATOM     32  C   UNL     1      -2.422   1.048   4.717  0.00  0.00    +0.138 C 
BRANCH  32  33
ATOM     33  C   UNL     1      -3.035   0.674   6.005  0.00  0.00    -0.003 A 
ATOM     34  C   UNL     1      -4.232  -0.052   6.050  0.00  0.00    +0.029 A 
ATOM     35  C   UNL     1      -4.767  -0.384   7.277  0.00  0.00    +0.111 A 
ATOM     36  N   UNL     1      -4.173  -0.018   8.397  0.00  0.00    -0.263 NA
ATOM     37  C   UNL     1      -3.047   0.670   8.400  0.00  0.00    +0.111 A 
ATOM     38  C   UNL     1      -2.439   1.041   7.220  0.00  0.00    +0.029 A 
ENDBRANCH  32  33
ENDBRANCH   8  31
TORSDOF 4
