REMARK  Name = ZINC56727565
REMARK  10 active torsions:
REMARK  status: ('A' for Active; 'I' for Inactive)
REMARK    1  A    between atoms: C_1  and  C_2
REMARK    2  A    between atoms: C_5  and  S_26
REMARK    3  A    between atoms: C_6  and  N_8
REMARK    4  A    between atoms: N_11  and  C_12
REMARK    5  A    between atoms: C_12  and  C_14
REMARK    6  A    between atoms: C_12  and  C_15
REMARK    7  A    between atoms: C_15  and  N_16
REMARK    8  A    between atoms: C_18  and  C_25
REMARK    9  A    between atoms: C_21  and  C_24
REMARK   10  A    between atoms: S_26  and  C_29
REMARK                            x       y       z     vdW  Elec       q    Type
REMARK                         _______ _______ _______ _____ _____    ______ ____
ROOT
ATOM      1  N   UNL     1      -0.117  -2.642   2.442  0.00  0.00    -0.268 N 
ATOM      2  C   UNL     1       0.085  -2.003   3.611  0.00  0.00    +0.304 C 
ATOM      3  O   UNL     1       0.163  -0.790   3.635  0.00  0.00    -0.253 OA
ATOM      4  N   UNL     1       0.200  -2.709   4.753  0.00  0.00    -0.298 N 
ATOM      5  H   UNL     1      -0.252  -3.603   2.431  0.00  0.00    +0.156 HD
ATOM      6  H   UNL     1       0.138  -3.677   4.734  0.00  0.00    +0.150 HD
ENDROOT
BRANCH   1  12
ATOM      7  C   UNL     1      -1.203   1.485  -0.000  0.00  0.00    +0.044 C 
ATOM      8  C   UNL     1      -0.651   0.082   0.031  0.00  0.00    -0.049 A 
ATOM      9  C   UNL     1      -0.159  -0.492  -1.127  0.00  0.00    +0.005 A 
ATOM     10  C   UNL     1       0.348  -1.778  -1.102  0.00  0.00    +0.029 A 
ATOM     11  C   UNL     1       0.363  -2.494   0.079  0.00  0.00    +0.109 A 
ATOM     12  C   UNL     1      -0.131  -1.920   1.243  0.00  0.00    +0.060 A 
ATOM     13  C   UNL     1      -0.634  -0.626   1.216  0.00  0.00    +0.028 A 
BRANCH  11  14
ATOM     14  S   UNL     1       1.008  -4.133   0.109  0.00  0.00    -0.004 S 
ATOM     15  O   UNL     1      -0.002  -4.909   0.739  0.00  0.00    -0.170 OA
ATOM     16  O   UNL     1       1.392  -4.396  -1.234  0.00  0.00    -0.170 OA
ATOM     17  C   UNL     1       2.476  -4.037   1.171  0.00  0.00    +0.200 C 
ENDBRANCH  11  14
ENDBRANCH   1  12
BRANCH   4  18
ATOM     18  C   UNL     1       0.420  -2.015   6.024  0.00  0.00    +0.055 C 
ATOM     19  C   UNL     1      -0.930  -1.660   6.651  0.00  0.00    +0.026 C 
BRANCH  18  20
ATOM     20  C   UNL     1       1.200  -2.925   6.975  0.00  0.00    -0.057 C 
BRANCH  20  21
ATOM     21  N   UNL     1       2.450  -3.349   6.331  0.00  0.00    +0.381 N 
ATOM     22  C   UNL     1       3.125  -4.339   7.179  0.00  0.00    -0.076 C 
ATOM     23  C   UNL     1       4.386  -4.844   6.476  0.00  0.00    -0.031 C 
ATOM     24  C   UNL     1       5.328  -3.664   6.219  0.00  0.00    +0.003 C 
ATOM     25  C   UNL     1       4.589  -2.604   5.396  0.00  0.00    -0.031 C 
ATOM     26  C   UNL     1       3.320  -2.182   6.139  0.00  0.00    -0.076 C 
ATOM     27  C   UNL     1       5.495  -1.387   5.198  0.00  0.00    +0.005 C 
ATOM     28  C   UNL     1       4.004  -5.493   5.145  0.00  0.00    +0.005 C 
ATOM     29  H   UNL     1       2.242  -3.763   5.435  0.00  0.00    -0.082 HD
ENDBRANCH  20  21
ENDBRANCH  18  20
ENDBRANCH   4  18
TORSDOF 5
