REMARK  Name = ZINC12300010
REMARK  15 active torsions:
REMARK  status: ('A' for Active; 'I' for Inactive)
REMARK    1  A    between atoms: C_1  and  N_68
REMARK    2  A    between atoms: C_2  and  C_3
REMARK    3  A    between atoms: C_2  and  N_68
REMARK    4  A    between atoms: C_9  and  C_10
REMARK    5  A    between atoms: C_9  and  N_68
REMARK    6  A    between atoms: C_10  and  C_12
REMARK    7  A    between atoms: C_10  and  O_30
REMARK    8  A    between atoms: C_12  and  O_13
REMARK    9  A    between atoms: O_13  and  C_14
REMARK   10  A    between atoms: C_16  and  C_22
REMARK   11  A    between atoms: C_19  and  O_20
REMARK   12  A    between atoms: O_20  and  C_21
REMARK   13  A    between atoms: C_22  and  N_70
REMARK   14  A    between atoms: C_23  and  N_70
REMARK   15  A    between atoms: C_24  and  N_70
REMARK                            x       y       z     vdW  Elec       q    Type
REMARK                         _______ _______ _______ _____ _____    ______ ____
ROOT
ATOM      1  C   UNL     1      -1.222   1.752   0.017  0.00  0.00    +0.162 A 
ATOM      2  C   UNL     1      -0.013   1.076   0.008  0.00  0.00    +0.051 A 
ATOM      3  C   UNL     1       1.175   1.783   0.000  0.00  0.00    -0.060 A 
ATOM      4  C   UNL     1       1.160   3.166   0.008  0.00  0.00    +0.005 A 
ATOM      5  C   UNL     1      -0.043   3.847   0.024  0.00  0.00    +0.049 A 
ATOM      6  C   UNL     1      -1.237   3.144   0.031  0.00  0.00    +0.162 A 
ENDROOT
BRANCH   6   7
ATOM      7  O   UNL     1      -2.421   3.812   0.046  0.00  0.00    -0.491 OA
ATOM      8  C   UNL     1      -2.361   5.240   0.053  0.00  0.00    +0.277 C 
ENDBRANCH   6   7
BRANCH   1   9
ATOM      9  O   UNL     1      -2.391   1.058   0.019  0.00  0.00    -0.486 OA
BRANCH   9  10
ATOM     10  C   UNL     1      -2.299  -0.368   0.011  0.00  0.00    +0.258 C 
BRANCH  10  11
ATOM     11  C   UNL     1      -3.705  -0.970   0.014  0.00  0.00    +0.135 C 
BRANCH  11  12
ATOM     12  O   UNL     1      -4.373  -0.628  -1.202  0.00  0.00    -0.390 OA
ATOM     13  H   UNL     1      -3.928  -0.947  -1.999  0.00  0.00    +0.210 HD
ENDBRANCH  11  12
BRANCH  11  14
ATOM     14  C   UNL     1      -3.608  -2.493   0.131  0.00  0.00    -0.044 C 
BRANCH  14  16
ATOM     15  C   UNL     1      -5.698  -2.674   1.340  0.00  0.00    -0.096 C 
ATOM     16  N   UNL     1      -4.973  -3.061   0.112  0.00  0.00    +0.382 N 
ATOM     17  H   UNL     1      -5.476  -2.691  -0.703  0.00  0.00    -0.082 HD
BRANCH  16  18
ATOM     18  C   UNL     1      -4.905  -4.533   0.007  0.00  0.00    -0.043 C 
BRANCH  18  19
ATOM     19  C   UNL     1      -6.294  -5.067  -0.233  0.00  0.00    -0.064 A 
ATOM     20  C   UNL     1      -7.090  -5.427   0.838  0.00  0.00    +0.002 A 
ATOM     21  C   UNL     1      -8.366  -5.912   0.619  0.00  0.00    +0.000 A 
ATOM     22  C   UNL     1      -8.842  -6.048  -0.672  0.00  0.00    +0.000 A 
ATOM     23  C   UNL     1      -8.043  -5.694  -1.743  0.00  0.00    +0.000 A 
ATOM     24  C   UNL     1      -6.769  -5.203  -1.524  0.00  0.00    +0.002 A 
ENDBRANCH  18  19
ENDBRANCH  16  18
ENDBRANCH  14  16
ENDBRANCH  11  14
ENDBRANCH  10  11
ENDBRANCH   9  10
ENDBRANCH   1   9
BRANCH   3  25
ATOM     25  C   UNL     1       2.489   1.046  -0.017  0.00  0.00    -0.043 C 
BRANCH  25  27
ATOM     26  C   UNL     1       3.205   2.082  -2.085  0.00  0.00    -0.095 C 
ATOM     27  N   UNL     1       2.881   0.802  -1.421  0.00  0.00    +0.382 N 
ATOM     28  H   UNL     1       2.096   0.360  -1.914  0.00  0.00    -0.081 HD
BRANCH  27  29
ATOM     29  C   UNL     1       4.049  -0.102  -1.470  0.00  0.00    -0.069 C 
ATOM     30  C   UNL     1       5.263   0.555  -0.810  0.00  0.00    -0.015 C 
ATOM     31  C   UNL     1       6.458  -0.400  -0.875  0.00  0.00    -0.002 C 
ATOM     32  C   UNL     1       6.780  -0.714  -2.337  0.00  0.00    -0.000 C 
ATOM     33  C   UNL     1       5.566  -1.371  -2.997  0.00  0.00    -0.002 C 
ATOM     34  C   UNL     1       4.372  -0.417  -2.932  0.00  0.00    -0.015 C 
ENDBRANCH  27  29
ENDBRANCH  25  27
ENDBRANCH   3  25
TORSDOF 12
