REMARK  Name = ZINC09488369
REMARK  12 active torsions:
REMARK  status: ('A' for Active; 'I' for Inactive)
REMARK    1  A    between atoms: C_1  and  C_2
REMARK    2  A    between atoms: C_2  and  O_3
REMARK    3  A    between atoms: O_3  and  C_4
REMARK    4  A    between atoms: C_4  and  C_6
REMARK    5  A    between atoms: C_6  and  C_8
REMARK    6  A    between atoms: C_6  and  S_14
REMARK    7  A    between atoms: S_14  and  C_15
REMARK    8  A    between atoms: C_20  and  N_32
REMARK    9  A    between atoms: C_21  and  C_30
REMARK   10  A    between atoms: C_26  and  C_28
REMARK   11  A    between atoms: C_26  and  C_29
REMARK   12  A    between atoms: N_32  and  C_33
REMARK                            x       y       z     vdW  Elec       q    Type
REMARK                         _______ _______ _______ _____ _____    ______ ____
ROOT
ATOM      1  C   UNL     1      -0.965  -5.636   1.470  0.00  0.00    +0.198 A 
ATOM      2  N   UNL     1       0.308  -5.482   1.752  0.00  0.00    -0.122 NA
ATOM      3  N   UNL     1       0.794  -4.485   1.099  0.00  0.00    -0.128 NA
ATOM      4  C   UNL     1      -0.148  -3.937   0.355  0.00  0.00    +0.169 A 
ATOM      5  N   UNL     1      -1.300  -4.661   0.572  0.00  0.00    -0.256 N 
ATOM      6  C   UNL     1      -2.460  -4.327  -0.070  0.00  0.00    +0.129 A 
ATOM      7  C   UNL     1      -2.476  -3.252  -0.949  0.00  0.00    +0.094 A 
ATOM      8  C   UNL     1      -1.290  -2.502  -1.181  0.00  0.00    -0.015 A 
ATOM      9  C   UNL     1      -0.150  -2.837  -0.536  0.00  0.00    +0.027 A 
ATOM     10  C   UNL     1       1.128  -2.063  -0.733  0.00  0.00    +0.199 C 
ATOM     11  O   UNL     1       1.044  -1.251  -1.903  0.00  0.00    -0.369 OA
ATOM     12  C   UNL     1      -0.133  -0.436  -1.936  0.00  0.00    +0.068 C 
ATOM     13  C   UNL     1      -1.344  -1.347  -2.147  0.00  0.00    +0.071 C 
ATOM     14  C   UNL     1      -0.035   0.566  -3.088  0.00  0.00    +0.041 C 
ATOM     15  C   UNL     1      -0.279   0.315  -0.611  0.00  0.00    +0.041 C 
ENDROOT
BRANCH   7  16
ATOM     16  C   UNL     1      -3.689  -2.899  -1.624  0.00  0.00    +0.103 C 
ATOM     17  N   UNL     1      -4.651  -2.619  -2.160  0.00  0.00    -0.191 NA
ENDBRANCH   7  16
BRANCH   6  18
ATOM     18  N   UNL     1      -3.605  -5.051   0.155  0.00  0.00    -0.299 N 
ATOM     19  H   UNL     1      -4.261  -4.734   0.796  0.00  0.00    +0.154 HD
BRANCH  18  20
ATOM     20  C   UNL     1      -3.825  -6.244  -0.539  0.00  0.00    +0.032 A 
ATOM     21  C   UNL     1      -2.951  -6.635  -1.546  0.00  0.00    +0.023 A 
ATOM     22  C   UNL     1      -3.168  -7.817  -2.226  0.00  0.00    +0.002 A 
ATOM     23  C   UNL     1      -4.261  -8.605  -1.914  0.00  0.00    +0.000 A 
ATOM     24  C   UNL     1      -5.136  -8.216  -0.917  0.00  0.00    +0.002 A 
ATOM     25  C   UNL     1      -4.922  -7.038  -0.229  0.00  0.00    +0.023 A 
ENDBRANCH  18  20
ENDBRANCH   6  18
BRANCH   1  26
ATOM     26  S   UNL     1      -2.039  -6.870   2.124  0.00  0.00    -0.066 S 
BRANCH  26  27
ATOM     27  C   UNL     1      -1.021  -7.730   3.355  0.00  0.00    +0.192 C 
BRANCH  27  28
ATOM     28  C   UNL     1      -0.653  -6.774   4.460  0.00  0.00    -0.023 A 
ATOM     29  C   UNL     1      -1.646  -6.167   5.207  0.00  0.00    +0.005 A 
ATOM     30  C   UNL     1      -1.308  -5.293   6.224  0.00  0.00    +0.000 A 
ATOM     31  C   UNL     1       0.021  -5.020   6.488  0.00  0.00    +0.000 A 
ATOM     32  C   UNL     1       1.013  -5.623   5.738  0.00  0.00    +0.000 A 
ATOM     33  C   UNL     1       0.675  -6.500   4.724  0.00  0.00    +0.005 A 
ENDBRANCH  27  28
BRANCH  27  34
ATOM     34  C   UNL     1      -1.798  -8.887   3.929  0.00  0.00    +0.325 C 
ATOM     35  O   UNL     1      -3.006  -8.859   3.937  0.00  0.00    -0.249 OA
BRANCH  34  36
ATOM     36  O   UNL     1      -1.147  -9.949   4.431  0.00  0.00    -0.464 OA
BRANCH  36  38
ATOM     37  C   UNL     1      -1.050 -12.139   5.489  0.00  0.00    +0.048 C 
ATOM     38  C   UNL     1      -1.960 -11.026   4.967  0.00  0.00    +0.229 C 
ENDBRANCH  36  38
ENDBRANCH  34  36
ENDBRANCH  27  34
ENDBRANCH  26  27
ENDBRANCH   1  26
TORSDOF 9
