REMARK  Name = ZINC08952428
REMARK  11 active torsions:
REMARK  status: ('A' for Active; 'I' for Inactive)
REMARK    1  A    between atoms: C_1  and  C_2
REMARK    2  A    between atoms: C_5  and  C_9
REMARK    3  A    between atoms: C_6  and  C_8
REMARK    4  A    between atoms: C_9  and  C_11
REMARK    5  A    between atoms: C_9  and  N_63
REMARK    6  A    between atoms: C_11  and  O_13
REMARK    7  A    between atoms: O_13  and  C_14
REMARK    8  A    between atoms: C_15  and  N_63
REMARK    9  A    between atoms: N_25  and  C_26
REMARK   10  A    between atoms: C_26  and  C_28
REMARK   11  A    between atoms: C_26  and  C_29
REMARK                            x       y       z     vdW  Elec       q    Type
REMARK                         _______ _______ _______ _____ _____    ______ ____
ROOT
ATOM      1  C   UNL     1       5.326   2.657   1.105  0.00  0.00    +0.049 C 
ATOM      2  C   UNL     1       5.632   1.884   2.359  0.00  0.00    -0.058 C 
ATOM      3  C   UNL     1       6.933   1.583   2.333  0.00  0.00    +0.014 C 
ATOM      4  C   UNL     1       7.637   0.806   3.421  0.00  0.00    +0.040 C 
ATOM      5  C   UNL     1       6.755   0.814   4.675  0.00  0.00    +0.005 C 
ATOM      6  C   UNL     1       5.331   0.391   4.299  0.00  0.00    +0.005 C 
ATOM      7  C   UNL     1       4.680   1.496   3.458  0.00  0.00    +0.031 C 
ATOM      8  C   UNL     1       7.534   2.121   1.110  0.00  0.00    +0.242 C 
ATOM      9  O   UNL     1       8.705   2.009   0.802  0.00  0.00    -0.270 OA
ATOM     10  N   UNL     1       6.599   2.756   0.377  0.00  0.00    -0.301 N 
ENDROOT
BRANCH   1  11
ATOM     11  N   UNL     1       4.335   1.933   0.287  0.00  0.00    +0.405 N 
ATOM     12  H   UNL     1       4.419   2.233  -0.691  0.00  0.00    -0.081 HD
ATOM     13  H   UNL     1       4.515   0.924   0.353  0.00  0.00    -0.081 HD
BRANCH  11  14
ATOM     14  C   UNL     1       2.969   2.216   0.767  0.00  0.00    +0.073 C 
BRANCH  14  19
ATOM     15  C   UNL     1      -0.464  -2.245  -0.538  0.00  0.00    +0.044 C 
ATOM     16  C   UNL     1       0.431  -1.082  -0.197  0.00  0.00    -0.050 A 
ATOM     17  C   UNL     1       1.624  -0.907  -0.874  0.00  0.00    +0.003 A 
ATOM     18  C   UNL     1       2.446   0.160  -0.561  0.00  0.00    +0.003 A 
ATOM     19  C   UNL     1       2.074   1.052   0.427  0.00  0.00    -0.048 A 
ATOM     20  C   UNL     1       0.882   0.877   1.104  0.00  0.00    -0.048 A 
ATOM     21  C   UNL     1       0.060  -0.190   0.792  0.00  0.00    +0.007 A 
ATOM     22  C   UNL     1       0.477   1.849   2.182  0.00  0.00    +0.044 C 
ENDBRANCH  14  19
BRANCH  14  23
ATOM     23  C   UNL     1       2.450   3.462   0.098  0.00  0.00    +0.297 C 
ATOM     24  O   UNL     1       3.008   3.901  -0.879  0.00  0.00    -0.252 OA
BRANCH  23  25
ATOM     25  O   UNL     1       1.366   4.085   0.588  0.00  0.00    -0.469 OA
ATOM     26  C   UNL     1       0.921   5.279  -0.108  0.00  0.00    +0.280 C 
ENDBRANCH  23  25
ENDBRANCH  14  23
ENDBRANCH  11  14
ENDBRANCH   1  11
BRANCH  10  27
ATOM     27  C   UNL     1       6.813   3.423  -0.910  0.00  0.00    +0.102 C 
ATOM     28  C   UNL     1       8.311   3.477  -1.215  0.00  0.00    +0.033 C 
BRANCH  27  29
ATOM     29  C   UNL     1       6.106   2.655  -1.997  0.00  0.00    -0.027 A 
ATOM     30  C   UNL     1       6.272   1.286  -2.096  0.00  0.00    +0.005 A 
ATOM     31  C   UNL     1       5.621   0.580  -3.090  0.00  0.00    +0.000 A 
ATOM     32  C   UNL     1       4.811   1.245  -3.992  0.00  0.00    +0.000 A 
ATOM     33  C   UNL     1       4.649   2.614  -3.897  0.00  0.00    +0.000 A 
ATOM     34  C   UNL     1       5.297   3.319  -2.900  0.00  0.00    +0.005 A 
ENDBRANCH  27  29
ENDBRANCH  10  27
TORSDOF 7
