REMARK  Name = ZINC67225336
REMARK  7 active torsions:
REMARK  status: ('A' for Active; 'I' for Inactive)
REMARK    1  A    between atoms: C_1  and  C_2
REMARK    2  A    between atoms: C_5  and  C_8
REMARK    3  A    between atoms: C_8  and  N_9
REMARK    4  A    between atoms: C_21  and  C_29
REMARK    5  A    between atoms: C_23  and  C_27
REMARK    6  A    between atoms: C_24  and  N_26
REMARK    7  A    between atoms: C_33  and  O_35
REMARK                            x       y       z     vdW  Elec       q    Type
REMARK                         _______ _______ _______ _____ _____    ______ ____
ROOT
ATOM      1  N   UNL     1       1.447  -4.746  -0.032  0.00  0.00    -0.198 N 
ATOM      2  C   UNL     1       2.168  -4.870  -1.225  0.00  0.00    +0.062 A 
ATOM      3  C   UNL     1       1.479  -5.173  -2.393  0.00  0.00    +0.025 A 
ATOM      4  C   UNL     1       2.162  -5.312  -3.585  0.00  0.00    +0.002 A 
ATOM      5  C   UNL     1       3.536  -5.149  -3.620  0.00  0.00    +0.001 A 
ATOM      6  C   UNL     1       4.231  -4.845  -2.470  0.00  0.00    +0.013 A 
ATOM      7  C   UNL     1       3.552  -4.697  -1.253  0.00  0.00    +0.042 A 
ATOM      8  C   UNL     1       4.351  -4.348  -0.054  0.00  0.00    +0.162 C 
ATOM      9  C   UNL     1       3.872  -4.510   1.176  0.00  0.00    +0.141 C 
ATOM     10  S   UNL     1       2.239  -5.150   1.376  0.00  0.00    +0.076 S 
ATOM     11  O   UNL     1       1.628  -4.409   2.424  0.00  0.00    -0.150 OA
ATOM     12  O   UNL     1       2.351  -6.566   1.398  0.00  0.00    -0.150 OA
ATOM     13  C   UNL     1       4.681  -4.160   2.393  0.00  0.00    +0.118 C 
ATOM     14  C   UNL     1       6.137  -4.047   2.035  0.00  0.00    +0.099 C 
ATOM     15  C   UNL     1       6.512  -3.901   0.739  0.00  0.00    +0.199 C 
ATOM     16  O   UNL     1       5.602  -3.851  -0.247  0.00  0.00    -0.439 OA
ENDROOT
BRANCH  13  17
ATOM     17  C   UNL     1       4.203  -2.842   2.949  0.00  0.00    -0.030 A 
ATOM     18  C   UNL     1       4.254  -1.704   2.166  0.00  0.00    +0.005 A 
ATOM     19  C   UNL     1       3.817  -0.494   2.672  0.00  0.00    +0.004 A 
ATOM     20  C   UNL     1       3.327  -0.420   3.962  0.00  0.00    +0.045 A 
ATOM     21  C   UNL     1       3.274  -1.561   4.749  0.00  0.00    +0.117 A 
ATOM     22  C   UNL     1       3.708  -2.775   4.236  0.00  0.00    +0.050 A 
BRANCH  21  23
ATOM     23  O   UNL     1       2.793  -1.491   6.018  0.00  0.00    -0.507 OA
ATOM     24  H   UNL     1       1.840  -1.639   6.086  0.00  0.00    +0.292 HD
ENDBRANCH  21  23
ENDBRANCH  13  17
BRANCH  15  25
ATOM     25  N   UNL     1       7.846  -3.804   0.430  0.00  0.00    -0.328 N 
ATOM     26  H   UNL     1       8.510  -3.839   1.136  0.00  0.00    +0.145 HD
ATOM     27  H   UNL     1       8.123  -3.699  -0.493  0.00  0.00    +0.145 HD
ENDBRANCH  15  25
BRANCH  14  28
ATOM     28  C   UNL     1       7.131  -4.094   3.064  0.00  0.00    +0.101 C 
ATOM     29  N   UNL     1       7.920  -4.131   3.881  0.00  0.00    -0.191 NA
ENDBRANCH  14  28
BRANCH   1  30
ATOM     30  C   UNL     1       0.059  -4.275  -0.021  0.00  0.00    +0.166 C 
BRANCH  30  35
ATOM     31  C   UNL     1      -0.018   1.503   0.010  0.00  0.00    +0.044 C 
ATOM     32  C   UNL     1       0.002  -0.004   0.002  0.00  0.00    -0.050 A 
ATOM     33  C   UNL     1       0.006  -0.689  -1.199  0.00  0.00    +0.003 A 
ATOM     34  C   UNL     1       0.025  -2.071  -1.206  0.00  0.00    +0.005 A 
ATOM     35  C   UNL     1       0.040  -2.768  -0.013  0.00  0.00    -0.028 A 
ATOM     36  C   UNL     1       0.037  -2.084   1.188  0.00  0.00    +0.005 A 
ATOM     37  C   UNL     1       0.023  -0.702   1.195  0.00  0.00    +0.003 A 
ENDBRANCH  30  35
ENDBRANCH   1  30
TORSDOF 6
