REMARK  Name = ZINC09315422
REMARK  18 active torsions:
REMARK  status: ('A' for Active; 'I' for Inactive)
REMARK    1  A    between atoms: C_1  and  C_2
REMARK    2  A    between atoms: C_4  and  C_36
REMARK    3  A    between atoms: C_6  and  N_8
REMARK    4  A    between atoms: C_9  and  C_11
REMARK    5  A    between atoms: C_11  and  N_12
REMARK    6  A    between atoms: N_12  and  C_13
REMARK    7  A    between atoms: N_12  and  C_14
REMARK    8  A    between atoms: C_14  and  C_15
REMARK    9  A    between atoms: N_17  and  C_18
REMARK   10  A    between atoms: N_17  and  C_22
REMARK   11  A    between atoms: C_18  and  C_19
REMARK   12  A    between atoms: C_19  and  C_20
REMARK   13  A    between atoms: C_19  and  C_21
REMARK   14  A    between atoms: C_23  and  N_35
REMARK   15  A    between atoms: N_24  and  C_31
REMARK   16  A    between atoms: C_31  and  C_32
REMARK   17  A    between atoms: C_32  and  C_33
REMARK   18  A    between atoms: C_32  and  C_34
REMARK                            x       y       z     vdW  Elec       q    Type
REMARK                         _______ _______ _______ _____ _____    ______ ____
ROOT
ATOM      1  C   UNL     1       0.850  -1.732   8.278  0.00  0.00    +0.203 C 
ATOM      2  O   UNL     1       0.593  -0.559   8.100  0.00  0.00    -0.277 OA
ATOM      3  N   UNL     1       1.062  -2.193   9.528  0.00  0.00    -0.266 N 
ENDROOT
BRANCH   3   4
ATOM      4  C   UNL     1       1.088  -1.296  10.617  0.00  0.00    +0.140 A 
ATOM      5  C   UNL     1       2.229  -1.152  11.380  0.00  0.00    +0.127 A 
ATOM      6  N   UNL     1       2.224  -0.269  12.435  0.00  0.00    -0.280 N 
ATOM      7  C   UNL     1       1.120   0.445  12.719  0.00  0.00    +0.331 A 
ATOM      8  O   UNL     1       1.135   1.221  13.656  0.00  0.00    -0.246 OA
ATOM      9  N   UNL     1      -0.001   0.318  11.986  0.00  0.00    -0.273 N 
ATOM     10  H   UNL     1      -0.783   0.845  12.212  0.00  0.00    +0.173 HD
ATOM     11  C   UNL     1      -0.047  -0.529  10.940  0.00  0.00    +0.277 A 
ATOM     12  O   UNL     1      -1.067  -0.634  10.279  0.00  0.00    -0.266 OA
BRANCH   5  13
ATOM     13  N   UNL     1       3.356  -1.882  11.090  0.00  0.00    -0.343 N 
ATOM     14  H   UNL     1       3.391  -2.422  10.285  0.00  0.00    +0.144 HD
ATOM     15  H   UNL     1       4.118  -1.858  11.690  0.00  0.00    +0.144 HD
ENDBRANCH   5  13
BRANCH   6  16
ATOM     16  C   UNL     1       3.427  -0.106  13.254  0.00  0.00    +0.131 C 
BRANCH  16  17
ATOM     17  C   UNL     1       4.301   1.001  12.661  0.00  0.00    +0.003 C 
ATOM     18  C   UNL     1       5.495   1.257  13.583  0.00  0.00    +0.009 C 
ATOM     19  C   UNL     1       4.805   0.571  11.282  0.00  0.00    +0.009 C 
ENDBRANCH  16  17
ENDBRANCH   6  16
ENDBRANCH   3   4
BRANCH   1  20
ATOM     20  C   UNL     1       0.933  -2.671   7.103  0.00  0.00    +0.019 C 
BRANCH  20  21
ATOM     21  N   UNL     1       0.520  -1.967   5.882  0.00  0.00    +0.389 N 
ATOM     22  C   UNL     1      -0.898  -1.598   5.986  0.00  0.00    -0.095 C 
ATOM     23  H   UNL     1       1.077  -1.133   5.770  0.00  0.00    -0.081 HD
BRANCH  21  24
ATOM     24  C   UNL     1       0.714  -2.845   4.721  0.00  0.00    +0.019 C 
BRANCH  24  26
ATOM     25  N   UNL     1       0.518  -2.690   2.260  0.00  0.00    -0.287 N 
ATOM     26  C   UNL     1       0.407  -2.082   3.458  0.00  0.00    +0.201 C 
ATOM     27  O   UNL     1       0.061  -0.921   3.519  0.00  0.00    -0.278 OA
ATOM     28  H   UNL     1       0.727  -3.636   2.213  0.00  0.00    +0.155 HD
BRANCH  25  34
ATOM     29  C   UNL     1      -1.135  -2.456  -2.365  0.00  0.00    +0.044 C 
ATOM     30  C   UNL     1      -0.467  -1.818  -1.174  0.00  0.00    -0.048 A 
ATOM     31  C   UNL     1      -0.037  -0.506  -1.244  0.00  0.00    +0.006 A 
ATOM     32  C   UNL     1       0.576   0.084  -0.154  0.00  0.00    -0.048 A 
ATOM     33  C   UNL     1       0.761  -0.638   1.009  0.00  0.00    +0.026 A 
ATOM     34  C   UNL     1       0.331  -1.956   1.083  0.00  0.00    +0.034 A 
ATOM     35  C   UNL     1      -0.289  -2.543  -0.012  0.00  0.00    +0.026 A 
ATOM     36  C   UNL     1       1.042   1.514  -0.234  0.00  0.00    +0.044 C 
ENDBRANCH  25  34
ENDBRANCH  24  26
ENDBRANCH  21  24
ENDBRANCH  20  21
ENDBRANCH   1  20
BRANCH   3  37
ATOM     37  C   UNL     1       1.265  -3.627   9.755  0.00  0.00    +0.117 C 
BRANCH  37  38
ATOM     38  C   UNL     1      -0.093  -4.316   9.905  0.00  0.00    +0.001 C 
ATOM     39  C   UNL     1       0.112  -5.830   9.996  0.00  0.00    +0.009 C 
ATOM     40  C   UNL     1      -0.781  -3.817  11.177  0.00  0.00    +0.009 C 
ENDBRANCH  37  38
ENDBRANCH   3  37
TORSDOF 11
