REMARK  Name = ZINC39918613
REMARK  14 active torsions:
REMARK  status: ('A' for Active; 'I' for Inactive)
REMARK    1  A    between atoms: C_1  and  C_2
REMARK    2  A    between atoms: C_2  and  C_3
REMARK    3  A    between atoms: C_3  and  C_4
REMARK    4  A    between atoms: C_4  and  N_5
REMARK    5  A    between atoms: C_18  and  C_27
REMARK    6  A    between atoms: N_19  and  C_22
REMARK    7  A    between atoms: C_22  and  C_23
REMARK    8  A    between atoms: C_23  and  N_24
REMARK    9  A    between atoms: N_24  and  C_25
REMARK   10  A    between atoms: N_24  and  C_26
REMARK   11  A    between atoms: C_29  and  N_35
REMARK   12  A    between atoms: C_30  and  C_31
REMARK   13  A    between atoms: C_31  and  O_33
REMARK   14  A    between atoms: O_33  and  C_34
REMARK                            x       y       z     vdW  Elec       q    Type
REMARK                         _______ _______ _______ _____ _____    ______ ____
ROOT
ATOM      1  N   UNL     1       1.179  -2.595  -2.748  0.00  0.00    -0.270 N 
ATOM      2  C   UNL     1       0.661  -2.933  -3.986  0.00  0.00    +0.041 A 
ATOM      3  C   UNL     1      -0.662  -2.910  -4.430  0.00  0.00    +0.024 A 
ATOM      4  C   UNL     1      -0.899  -3.305  -5.737  0.00  0.00    +0.002 A 
ATOM      5  C   UNL     1       0.121  -3.707  -6.576  0.00  0.00    +0.000 A 
ATOM      6  C   UNL     1       1.443  -3.735  -6.146  0.00  0.00    +0.007 A 
ATOM      7  C   UNL     1       1.686  -3.343  -4.847  0.00  0.00    -0.002 A 
ATOM      8  C   UNL     1       2.957  -3.251  -4.061  0.00  0.00    +0.144 C 
ATOM      9  C   UNL     1       2.518  -2.745  -2.702  0.00  0.00    +0.240 C 
ATOM     10  O   UNL     1       3.236  -2.519  -1.751  0.00  0.00    -0.274 OA
ATOM     11  C   UNL     1       3.906  -2.270  -4.687  0.00  0.00    +0.083 A 
ATOM     12  C   UNL     1       5.036  -2.710  -5.345  0.00  0.00    +0.142 A 
ATOM     13  C   UNL     1       5.905  -1.759  -5.918  0.00  0.00    +0.068 A 
ATOM     14  C   UNL     1       5.621  -0.443  -5.818  0.00  0.00    +0.022 A 
ATOM     15  N   UNL     1       4.504  -0.018  -5.171  0.00  0.00    -0.314 N 
ATOM     16  C   UNL     1       3.651  -0.895  -4.609  0.00  0.00    +0.260 A 
ATOM     17  O   UNL     1       2.655  -0.491  -4.031  0.00  0.00    -0.267 OA
ATOM     18  C   UNL     1       6.554   0.568  -6.433  0.00  0.00    +0.064 C 
ATOM     19  O   UNL     1       5.315  -4.026  -5.446  0.00  0.00    -0.441 OA
ATOM     20  C   UNL     1       4.731  -4.907  -4.617  0.00  0.00    +0.196 C 
ATOM     21  C   UNL     1       3.603  -4.600  -3.926  0.00  0.00    +0.117 C 
ENDROOT
BRANCH  20  22
ATOM     22  N   UNL     1       5.288  -6.149  -4.465  0.00  0.00    -0.329 N 
ATOM     23  H   UNL     1       6.044  -6.411  -5.012  0.00  0.00    +0.145 HD
ATOM     24  H   UNL     1       4.926  -6.765  -3.810  0.00  0.00    +0.145 HD
ENDBRANCH  20  22
BRANCH  21  25
ATOM     25  C   UNL     1       3.032  -5.557  -3.073  0.00  0.00    +0.341 C 
ATOM     26  O   UNL     1       2.063  -6.198  -3.438  0.00  0.00    -0.245 OA
BRANCH  25  27
ATOM     27  O   UNL     1       3.558  -5.768  -1.847  0.00  0.00    -0.465 OA
ATOM     28  C   UNL     1       2.927  -6.757  -1.032  0.00  0.00    +0.280 C 
ENDBRANCH  25  27
ENDBRANCH  21  25
BRANCH   1  29
ATOM     29  C   UNL     1       0.368  -2.124  -1.623  0.00  0.00    +0.114 C 
BRANCH  29  30
ATOM     30  C   UNL     1       0.254  -0.599  -1.679  0.00  0.00    +0.019 C 
BRANCH  30  32
ATOM     31  C   UNL     1      -0.707   1.417  -0.559  0.00  0.00    +0.004 C 
ATOM     32  C   UNL     1      -0.593  -0.107  -0.503  0.00  0.00    -0.002 C 
ENDBRANCH  30  32
ENDBRANCH  29  30
ENDBRANCH   1  29
BRANCH  15  33
ATOM     33  C   UNL     1       4.224   1.417  -5.083  0.00  0.00    +0.106 C 
BRANCH  33  34
ATOM     34  C   UNL     1       3.385   1.848  -6.287  0.00  0.00    -0.058 C 
BRANCH  34  35
ATOM     35  N   UNL     1       3.104   3.287  -6.199  0.00  0.00    +0.377 N 
ATOM     36  C   UNL     1       2.401   3.724  -7.413  0.00  0.00    -0.097 C 
ATOM     37  C   UNL     1       2.263   3.551  -5.024  0.00  0.00    -0.097 C 
ATOM     38  H   UNL     1       3.972   3.795  -6.112  0.00  0.00    -0.083 HD
ENDBRANCH  34  35
ENDBRANCH  33  34
ENDBRANCH  15  33
TORSDOF 9
