REMARK  Name = ZINC13630125
REMARK  8 active torsions:
REMARK  status: ('A' for Active; 'I' for Inactive)
REMARK    1  A    between atoms: C_4  and  C_7
REMARK    2  A    between atoms: C_10  and  C_13
REMARK    3  A    between atoms: N_15  and  C_16
REMARK    4  A    between atoms: C_16  and  N_18
REMARK    5  A    between atoms: N_18  and  N_19
REMARK    6  A    between atoms: C_20  and  C_22
REMARK    7  A    between atoms: N_27  and  C_29
REMARK    8  A    between atoms: C_29  and  C_30
REMARK                            x       y       z     vdW  Elec       q    Type
REMARK                         _______ _______ _______ _____ _____    ______ ____
ROOT
ATOM      1  C   UNL     1      -1.187   1.624   0.017  0.00  0.00    +0.153 C 
ATOM      2  S   UNL     1      -1.210   3.336   0.026  0.00  0.00    -0.017 S 
ENDROOT
BRANCH   1   5
ATOM      3  C   UNL     1       1.147   1.655   0.000  0.00  0.00    +0.250 C 
ATOM      4  O   UNL     1       1.130   2.871   0.007  0.00  0.00    -0.270 OA
ATOM      5  N   UNL     1      -0.011   0.966   0.007  0.00  0.00    -0.263 N 
ATOM      6  H   UNL     1       0.002  -0.004   0.002  0.00  0.00    +0.157 HD
BRANCH   3  10
ATOM      7  C   UNL     1       4.855  -0.419  -0.047  0.00  0.00    -0.018 A 
ATOM      8  C   UNL     1       4.837   0.976  -0.039  0.00  0.00    +0.009 A 
ATOM      9  C   UNL     1       3.636   1.649  -0.024  0.00  0.00    +0.013 A 
ATOM     10  C   UNL     1       2.435   0.935  -0.016  0.00  0.00    +0.037 A 
ATOM     11  C   UNL     1       2.455  -0.463  -0.018  0.00  0.00    +0.013 A 
ATOM     12  C   UNL     1       3.657  -1.133  -0.039  0.00  0.00    +0.009 A 
BRANCH   7  16
ATOM     13  C   UNL     1       8.565  -2.494  -0.092  0.00  0.00    +0.000 A 
ATOM     14  C   UNL     1       7.378  -3.205  -0.085  0.00  0.00    +0.001 A 
ATOM     15  C   UNL     1       6.171  -2.536  -0.070  0.00  0.00    +0.008 A 
ATOM     16  C   UNL     1       6.149  -1.143  -0.062  0.00  0.00    -0.018 A 
ATOM     17  C   UNL     1       7.348  -0.432  -0.075  0.00  0.00    +0.008 A 
ATOM     18  C   UNL     1       8.550  -1.111  -0.085  0.00  0.00    +0.001 A 
ENDBRANCH   7  16
ENDBRANCH   3  10
ENDBRANCH   1   5
BRANCH   1  19
ATOM     19  N   UNL     1      -2.345   0.934   0.018  0.00  0.00    -0.246 N 
ATOM     20  H   UNL     1      -3.192   1.408   0.025  0.00  0.00    +0.172 HD
BRANCH  19  21
ATOM     21  N   UNL     1      -2.326  -0.467   0.011  0.00  0.00    -0.235 N 
ATOM     22  C   UNL     1      -3.484  -1.156   0.012  0.00  0.00    +0.234 C 
ATOM     23  O   UNL     1      -4.543  -0.564   0.021  0.00  0.00    -0.274 OA
ATOM     24  H   UNL     1      -1.480  -0.940   0.004  0.00  0.00    +0.173 HD
BRANCH  22  25
ATOM     25  C   UNL     1      -3.464  -2.663   0.004  0.00  0.00    +0.102 C 
ATOM     26  C   UNL     1      -2.772  -3.200  -1.271  0.00  0.00    +0.110 C 
ATOM     27  C   UNL     1      -3.569  -4.434  -1.633  0.00  0.00    +0.217 C 
ATOM     28  O   UNL     1      -3.198  -5.302  -2.395  0.00  0.00    -0.276 OA
ATOM     29  N   UNL     1      -4.747  -4.431  -0.986  0.00  0.00    -0.293 N 
ATOM     30  C   UNL     1      -4.891  -3.235  -0.147  0.00  0.00    +0.121 C 
BRANCH  29  31
ATOM     31  C   UNL     1      -5.758  -5.485  -1.103  0.00  0.00    +0.182 C 
BRANCH  31  32
ATOM     32  C   UNL     1      -5.508  -6.538  -0.054  0.00  0.00    +0.122 A 
ATOM     33  C   UNL     1      -6.018  -6.545   1.191  0.00  0.00    +0.046 A 
ATOM     34  C   UNL     1      -5.530  -7.709   1.827  0.00  0.00    +0.041 A 
ATOM     35  C   UNL     1      -4.744  -8.340   0.936  0.00  0.00    +0.195 A 
ATOM     36  O   UNL     1      -4.735  -7.626  -0.202  0.00  0.00    -0.466 OA
ENDBRANCH  31  32
ENDBRANCH  29  31
ENDBRANCH  22  25
ENDBRANCH  19  21
ENDBRANCH   1  19
TORSDOF 8
