REMARK  Name = ZINC39695882
REMARK  7 active torsions:
REMARK  status: ('A' for Active; 'I' for Inactive)
REMARK    1  A    between atoms: C_1  and  C_2
REMARK    2  A    between atoms: C_2  and  C_3
REMARK    3  A    between atoms: C_6  and  C_9
REMARK    4  A    between atoms: C_9  and  C_11
REMARK    5  A    between atoms: C_9  and  N_12
REMARK    6  A    between atoms: C_13  and  C_15
REMARK    7  A    between atoms: C_26  and  C_28
REMARK                            x       y       z     vdW  Elec       q    Type
REMARK                         _______ _______ _______ _____ _____    ______ ____
ROOT
ATOM      1  C   UNL     1      -7.144  -4.449  -1.953  0.00  0.00    +0.100 C 
ATOM      2  C   UNL     1      -7.439  -4.021  -3.408  0.00  0.00    +0.121 C 
ATOM      3  N   UNL     1      -8.325  -5.084  -3.939  0.00  0.00    -0.296 N 
ATOM      4  C   UNL     1      -9.227  -5.410  -2.808  0.00  0.00    +0.115 C 
ATOM      5  C   UNL     1      -8.320  -5.360  -1.563  0.00  0.00    -0.004 C 
ATOM      6  C   UNL     1      -9.079  -4.764  -0.381  0.00  0.00    -0.010 C 
ATOM      7  C   UNL     1     -10.208  -5.716   0.026  0.00  0.00    -0.082 C 
ATOM      8  N   UNL     1      -9.643  -7.021   0.389  0.00  0.00    +0.379 N 
ATOM      9  C   UNL     1      -8.995  -7.628  -0.779  0.00  0.00    -0.082 C 
ATOM     10  C   UNL     1      -7.815  -6.758  -1.221  0.00  0.00    -0.010 C 
ATOM     11  C   UNL     1      -8.313  -5.632  -5.170  0.00  0.00    +0.247 C 
ATOM     12  O   UNL     1      -7.426  -5.349  -5.952  0.00  0.00    -0.270 OA
ATOM     13  H   UNL     1      -8.963  -6.899   1.124  0.00  0.00    -0.086 HD
ATOM     14  H   UNL     1     -10.381  -7.627   0.715  0.00  0.00    -0.086 HD
ENDROOT
BRANCH  11  15
ATOM     15  C   UNL     1      -9.379  -6.575  -5.570  0.00  0.00    +0.038 A 
ATOM     16  C   UNL     1     -10.599  -6.582  -4.891  0.00  0.00    +0.014 A 
ATOM     17  C   UNL     1     -11.589  -7.464  -5.269  0.00  0.00    +0.022 A 
ATOM     18  C   UNL     1     -11.376  -8.342  -6.318  0.00  0.00    +0.059 A 
ATOM     19  C   UNL     1     -10.167  -8.340  -6.996  0.00  0.00    +0.060 A 
ATOM     20  C   UNL     1      -9.171  -7.457  -6.631  0.00  0.00    +0.034 A 
ATOM     21 CL   UNL     1      -9.909  -9.444  -8.311  0.00  0.00    -0.082 Cl
ATOM     22 CL   UNL     1     -12.628  -9.450  -6.787  0.00  0.00    -0.082 Cl
ENDBRANCH  11  15
BRANCH   1  24
ATOM     23  N   UNL     1      -6.303  -3.251   0.041  0.00  0.00    -0.308 N 
ATOM     24  C   UNL     1      -7.093  -3.243  -1.052  0.00  0.00    +0.219 C 
ATOM     25  O   UNL     1      -7.761  -2.264  -1.310  0.00  0.00    -0.275 OA
ATOM     26  H   UNL     1      -5.769  -4.033   0.247  0.00  0.00    +0.149 HD
BRANCH  23  27
ATOM     27  C   UNL     1      -6.253  -2.078   0.917  0.00  0.00    +0.100 C 
ATOM     28  C   UNL     1      -5.236  -1.075   0.370  0.00  0.00    +0.033 C 
BRANCH  27  32
ATOM     29  C   UNL     1      -5.094  -3.287   4.847  0.00  0.00    -0.048 A 
ATOM     30  C   UNL     1      -6.075  -2.327   4.680  0.00  0.00    +0.004 A 
ATOM     31  C   UNL     1      -6.450  -1.936   3.408  0.00  0.00    +0.006 A 
ATOM     32  C   UNL     1      -5.844  -2.504   2.303  0.00  0.00    -0.027 A 
ATOM     33  C   UNL     1      -4.862  -3.462   2.470  0.00  0.00    +0.006 A 
ATOM     34  C   UNL     1      -4.484  -3.851   3.742  0.00  0.00    +0.004 A 
BRANCH  29  36
ATOM     35  C   UNL     1      -3.544  -2.820   6.726  0.00  0.00    +0.009 C 
ATOM     36  C   UNL     1      -4.685  -3.713   6.233  0.00  0.00    +0.032 C 
ENDBRANCH  29  36
ENDBRANCH  27  32
ENDBRANCH  23  27
ENDBRANCH   1  24
TORSDOF 5
