REMARK  Name = ZINC59015004
REMARK  9 active torsions:
REMARK  status: ('A' for Active; 'I' for Inactive)
REMARK    1  A    between atoms: C_5  and  C_7
REMARK    2  A    between atoms: N_8  and  N_9
REMARK    3  A    between atoms: C_12  and  S_15
REMARK    4  A    between atoms: S_15  and  C_16
REMARK    5  A    between atoms: C_16  and  C_17
REMARK    6  A    between atoms: N_19  and  C_20
REMARK    7  A    between atoms: C_25  and  S_26
REMARK    8  A    between atoms: S_26  and  C_27
REMARK    9  A    between atoms: C_27  and  C_28
REMARK                            x       y       z     vdW  Elec       q    Type
REMARK                         _______ _______ _______ _____ _____    ______ ____
ROOT
ATOM      1  C   UNL     1       8.212  -6.630  -0.091  0.00  0.00    +0.173 C 
ENDROOT
BRANCH   1   2
ATOM      2  C   UNL     1       9.716  -6.533  -0.114  0.00  0.00    +0.228 C 
ATOM      3  O   UNL     1      10.253  -5.445  -0.111  0.00  0.00    -0.275 OA
ATOM      4  N   UNL     1      10.464  -7.654  -0.136  0.00  0.00    -0.284 N 
ATOM      5  H   UNL     1      10.037  -8.523  -0.073  0.00  0.00    +0.155 HD
BRANCH   4   6
ATOM      6  C   UNL     1      11.857  -7.564  -0.252  0.00  0.00    +0.047 A 
ATOM      7  C   UNL     1      12.538  -6.512   0.343  0.00  0.00    +0.024 A 
ATOM      8  C   UNL     1      13.913  -6.426   0.228  0.00  0.00    +0.002 A 
ATOM      9  C   UNL     1      14.614  -7.385  -0.479  0.00  0.00    +0.001 A 
ATOM     10  C   UNL     1      13.944  -8.437  -1.076  0.00  0.00    +0.016 A 
ATOM     11  C   UNL     1      12.565  -8.535  -0.961  0.00  0.00    +0.029 A 
BRANCH  11  12
ATOM     12  S   UNL     1      11.708  -9.878  -1.714  0.00  0.00    -0.119 S 
BRANCH  12  13
ATOM     13  C   UNL     1      13.023 -10.851  -2.499  0.00  0.00    +0.109 C 
BRANCH  13  14
ATOM     14  C   UNL     1      12.418 -12.047  -3.189  0.00  0.00    -0.037 A 
ATOM     15  C   UNL     1      12.260 -13.235  -2.501  0.00  0.00    +0.007 A 
ATOM     16  C   UNL     1      11.706 -14.332  -3.132  0.00  0.00    +0.038 A 
ATOM     17  C   UNL     1      11.309 -14.241  -4.455  0.00  0.00    +0.123 A 
ATOM     18  C   UNL     1      11.467 -13.050  -5.144  0.00  0.00    +0.038 A 
ATOM     19  C   UNL     1      12.017 -11.953  -4.509  0.00  0.00    +0.007 A 
ATOM     20  F   UNL     1      10.767 -15.313  -5.074  0.00  0.00    -0.205 F 
ENDBRANCH  13  14
ENDBRANCH  12  13
ENDBRANCH  11  12
ENDBRANCH   4   6
ENDBRANCH   1   2
BRANCH   1  21
ATOM     21  S   UNL     1       7.498  -4.963  -0.064  0.00  0.00    -0.075 S 
BRANCH  21  25
ATOM     22  N   UNL     1       2.416  -4.183   0.023  0.00  0.00    -0.205 N 
ATOM     23  C   UNL     1       3.626  -4.852  -0.003  0.00  0.00    +0.232 A 
ATOM     24  N   UNL     1       4.818  -4.294  -0.015  0.00  0.00    -0.186 NA
ATOM     25  C   UNL     1       5.759  -5.245  -0.039  0.00  0.00    +0.211 A 
ATOM     26  N   UNL     1       5.177  -6.420  -0.043  0.00  0.00    -0.144 NA
ATOM     27  N   UNL     1       3.792  -6.192  -0.014  0.00  0.00    -0.245 N 
ATOM     28  H   UNL     1       1.585  -4.683   0.034  0.00  0.00    +0.177 HD
ATOM     29  H   UNL     1       3.092  -6.864  -0.006  0.00  0.00    +0.192 HD
BRANCH  22  31
ATOM     30  C   UNL     1       1.254  -2.154   0.055  0.00  0.00    +0.141 C 
ATOM     31  N   UNL     1       2.390  -2.782   0.031  0.00  0.00    -0.187 NA
BRANCH  30  36
ATOM     32  C   UNL     1      -0.012   1.378   0.099  0.00  0.00    +0.001 A 
ATOM     33  C   UNL     1       1.175   2.091   0.082  0.00  0.00    +0.003 A 
ATOM     34  C   UNL     1       2.388   1.427   0.056  0.00  0.00    +0.039 A 
ATOM     35  C   UNL     1       2.422   0.045   0.048  0.00  0.00    +0.132 A 
ATOM     36  C   UNL     1       1.226  -0.680   0.065  0.00  0.00    +0.030 A 
ATOM     37  C   UNL     1       0.006  -0.001   0.090  0.00  0.00    +0.012 A 
ATOM     38  F   UNL     1       3.608  -0.603   0.022  0.00  0.00    -0.205 F 
ENDBRANCH  30  36
ENDBRANCH  22  31
ENDBRANCH  21  25
ENDBRANCH   1  21
TORSDOF 9
