REMARK  Name = ZINC12465542
REMARK  8 active torsions:
REMARK  status: ('A' for Active; 'I' for Inactive)
REMARK    1  A    between atoms: C_1  and  C_2
REMARK    2  A    between atoms: C_2  and  O_3
REMARK    3  A    between atoms: O_3  and  C_4
REMARK    4  A    between atoms: C_7  and  C_9
REMARK    5  A    between atoms: C_13  and  N_14
REMARK    6  A    between atoms: C_15  and  C_17
REMARK    7  A    between atoms: N_22  and  S_23
REMARK    8  A    between atoms: S_23  and  C_26
REMARK                            x       y       z     vdW  Elec       q    Type
REMARK                         _______ _______ _______ _____ _____    ______ ____
ROOT
ATOM      1  C   UNL     1      -4.949  -0.909   3.270  0.00  0.00    +0.069 A 
ATOM      2  C   UNL     1      -4.668  -2.265   2.800  0.00  0.00    -0.023 A 
ATOM      3  C   UNL     1      -3.734  -2.354   1.837  0.00  0.00    -0.004 A 
ATOM      4  S   UNL     1      -3.228  -0.678   1.542  0.00  0.00    -0.077 S 
ATOM      5  C   UNL     1      -4.239   0.130   2.691  0.00  0.00    +0.084 A 
ATOM      6  C   UNL     1      -3.504  -3.777   1.405  0.00  0.00    +0.043 C 
ATOM      7  C   UNL     1      -4.736  -4.548   1.928  0.00  0.00    +0.010 C 
ATOM      8  C   UNL     1      -5.168  -3.674   3.123  0.00  0.00    +0.037 C 
ENDROOT
BRANCH   1  12
ATOM      9  C   UNL     1      -6.491  -0.422   6.572  0.00  0.00    +0.407 C 
ATOM     10  O   UNL     1      -7.650  -0.218   6.271  0.00  0.00    -0.226 OA
ATOM     11  N   UNL     1      -5.575  -0.653   5.611  0.00  0.00    -0.217 N 
ATOM     12  C   UNL     1      -5.945  -0.658   4.315  0.00  0.00    +0.255 C 
ATOM     13  O   UNL     1      -7.106  -0.453   4.013  0.00  0.00    -0.270 OA
ATOM     14  H   UNL     1      -4.650  -0.816   5.852  0.00  0.00    +0.161 HD
BRANCH   9  15
ATOM     15  O   UNL     1      -6.121  -0.417   7.867  0.00  0.00    -0.450 OA
BRANCH  15  17
ATOM     16  C   UNL     1      -6.555  -0.195  10.253  0.00  0.00    +0.048 C 
ATOM     17  C   UNL     1      -7.161  -0.161   8.848  0.00  0.00    +0.230 C 
ENDBRANCH  15  17
ENDBRANCH   9  15
ENDBRANCH   1  12
BRANCH   5  18
ATOM     18  N   UNL     1      -4.323   1.487   2.961  0.00  0.00    -0.278 N 
ATOM     19  C   UNL     1      -3.544   2.357   2.288  0.00  0.00    +0.236 C 
ATOM     20  O   UNL     1      -2.769   1.953   1.447  0.00  0.00    -0.274 OA
ATOM     21  H   UNL     1      -4.942   1.810   3.634  0.00  0.00    +0.155 HD
BRANCH  19  22
ATOM     22  C   UNL     1      -3.635   3.833   2.582  0.00  0.00    +0.166 C 
ATOM     23  C   UNL     1      -2.406   4.294   3.409  0.00  0.00    +0.031 C 
ATOM     24  C   UNL     1      -2.353   5.807   3.066  0.00  0.00    +0.019 C 
ATOM     25  C   UNL     1      -2.797   5.841   1.588  0.00  0.00    +0.110 C 
ATOM     26  N   UNL     1      -3.559   4.610   1.332  0.00  0.00    -0.164 NA
BRANCH  26  27
ATOM     27  S   UNL     1      -4.227   4.173  -0.119  0.00  0.00    +0.068 S 
ATOM     28  O   UNL     1      -4.502   2.781  -0.036  0.00  0.00    -0.152 OA
ATOM     29  O   UNL     1      -3.397   4.727  -1.131  0.00  0.00    -0.152 OA
BRANCH  27  30
ATOM     30  C   UNL     1      -5.784   4.987  -0.242  0.00  0.00    +0.143 A 
ATOM     31  C   UNL     1      -6.061   6.236  -0.690  0.00  0.00    +0.036 A 
ATOM     32  C   UNL     1      -7.373   6.672  -0.693  0.00  0.00    +0.010 A 
ATOM     33  C   UNL     1      -8.345   5.833  -0.258  0.00  0.00    +0.047 A 
ATOM     34  S   UNL     1      -7.408   4.379   0.183  0.00  0.00    -0.077 S 
ENDBRANCH  27  30
ENDBRANCH  26  27
ENDBRANCH  19  22
ENDBRANCH   5  18
TORSDOF 7
