REMARK  Name = ZINC32410395
REMARK  13 active torsions:
REMARK  status: ('A' for Active; 'I' for Inactive)
REMARK    1  A    between atoms: C_1  and  C_2
REMARK    2  A    between atoms: C_7  and  C_8
REMARK    3  A    between atoms: C_8  and  C_10
REMARK    4  A    between atoms: C_8  and  N_27
REMARK    5  A    between atoms: C_10  and  C_11
REMARK    6  A    between atoms: N_13  and  C_14
REMARK    7  A    between atoms: C_14  and  C_15
REMARK    8  A    between atoms: C_15  and  O_16
REMARK    9  A    between atoms: O_16  and  C_17
REMARK   10  A    between atoms: C_20  and  C_23
REMARK   11  A    between atoms: C_23  and  C_24
REMARK   12  A    between atoms: C_23  and  C_25
REMARK   13  A    between atoms: C_23  and  C_26
REMARK                            x       y       z     vdW  Elec       q    Type
REMARK                         _______ _______ _______ _____ _____    ______ ____
ROOT
ATOM      1  C   UNL     1      -1.441   1.293   4.069  0.00  0.00    +0.215 C 
ATOM      2  O   UNL     1      -0.408   1.535   4.657  0.00  0.00    -0.276 OA
ATOM      3  N   UNL     1      -2.610   1.772   4.537  0.00  0.00    -0.312 N 
ATOM      4  H   UNL     1      -3.437   1.578   4.067  0.00  0.00    +0.149 HD
ENDROOT
BRANCH   1   5
ATOM      5  C   UNL     1      -1.416   0.458   2.815  0.00  0.00    +0.123 C 
BRANCH   5   6
ATOM      6  C   UNL     1       0.024   0.045   2.505  0.00  0.00    +0.114 C 
BRANCH   6  13
ATOM      7  C   UNL     1       2.552  -0.399   1.178  0.00  0.00    +0.044 C 
ATOM      8  C   UNL     1       1.274  -0.898   0.553  0.00  0.00    -0.045 A 
ATOM      9  C   UNL     1       1.312  -1.573  -0.653  0.00  0.00    +0.004 A 
ATOM     10  C   UNL     1       0.141  -2.030  -1.227  0.00  0.00    +0.000 A 
ATOM     11  C   UNL     1      -1.069  -1.812  -0.594  0.00  0.00    +0.000 A 
ATOM     12  C   UNL     1      -1.107  -1.138   0.612  0.00  0.00    +0.006 A 
ATOM     13  C   UNL     1       0.065  -0.685   1.188  0.00  0.00    -0.024 A 
ENDBRANCH   6  13
BRANCH   6  14
ATOM     14  N   UNL     1       0.520  -0.834   3.567  0.00  0.00    -0.292 N 
ATOM     15  C   UNL     1      -0.067  -2.029   3.781  0.00  0.00    +0.298 C 
ATOM     16  O   UNL     1      -0.946  -2.416   3.036  0.00  0.00    -0.253 OA
ATOM     17  N   UNL     1       0.321  -2.793   4.821  0.00  0.00    -0.313 N 
ATOM     18  H   UNL     1       1.270  -0.557   4.116  0.00  0.00    +0.151 HD
ATOM     19  H   UNL     1       1.022  -2.484   5.415  0.00  0.00    +0.146 HD
ATOM     20  H   UNL     1      -0.102  -3.653   4.975  0.00  0.00    +0.146 HD
ENDBRANCH   6  14
ENDBRANCH   5   6
ENDBRANCH   1   5
BRANCH   3  21
ATOM     21  C   UNL     1      -2.634   2.584   5.756  0.00  0.00    +0.145 C 
BRANCH  21  22
ATOM     22  C   UNL     1      -4.075   2.996   6.066  0.00  0.00    +0.247 C 
BRANCH  22  23
ATOM     23  O   UNL     1      -4.848   1.834   6.372  0.00  0.00    -0.490 OA
BRANCH  23  24
ATOM     24  C   UNL     1      -6.159   2.026   6.672  0.00  0.00    +0.121 A 
ATOM     25  C   UNL     1      -6.692   3.307   6.668  0.00  0.00    +0.046 A 
ATOM     26  C   UNL     1      -8.025   3.500   6.973  0.00  0.00    +0.008 A 
ATOM     27  C   UNL     1      -8.828   2.418   7.284  0.00  0.00    -0.042 A 
ATOM     28  C   UNL     1      -8.299   1.141   7.289  0.00  0.00    +0.008 A 
ATOM     29  C   UNL     1      -6.968   0.942   6.978  0.00  0.00    +0.046 A 
BRANCH  27  30
ATOM     30  C   UNL     1     -10.283   2.631   7.617  0.00  0.00    -0.013 C 
ATOM     31  C   UNL     1     -10.988   3.287   6.428  0.00  0.00    +0.015 C 
ATOM     32  C   UNL     1     -10.940   1.283   7.919  0.00  0.00    +0.015 C 
ATOM     33  C   UNL     1     -10.397   3.541   8.842  0.00  0.00    +0.015 C 
ENDBRANCH  27  30
ENDBRANCH  23  24
ENDBRANCH  22  23
ENDBRANCH  21  22
ENDBRANCH   3  21
TORSDOF 9
