REMARK  Name = ZINC64034054
REMARK  11 active torsions:
REMARK  status: ('A' for Active; 'I' for Inactive)
REMARK    1  A    between atoms: C_1  and  C_2
REMARK    2  A    between atoms: C_2  and  O_3
REMARK    3  A    between atoms: O_3  and  C_4
REMARK    4  A    between atoms: C_7  and  C_10
REMARK    5  A    between atoms: C_10  and  C_11
REMARK    6  A    between atoms: C_13  and  C_18
REMARK    7  A    between atoms: C_20  and  O_33
REMARK    8  A    between atoms: C_22  and  O_32
REMARK    9  A    between atoms: C_24  and  O_31
REMARK   10  A    between atoms: C_26  and  C_29
REMARK   11  A    between atoms: C_29  and  O_30
REMARK                            x       y       z     vdW  Elec       q    Type
REMARK                         _______ _______ _______ _____ _____    ______ ____
ROOT
ATOM      1  C   UNL     1      -2.053  -6.598   1.408  0.00  0.00    -0.024 A 
ATOM      2  C   UNL     1      -3.271  -6.891   1.993  0.00  0.00    +0.011 A 
ATOM      3  C   UNL     1      -3.319  -7.355   3.294  0.00  0.00    -0.016 A 
ATOM      4  C   UNL     1      -2.149  -7.526   4.011  0.00  0.00    +0.008 A 
ATOM      5  C   UNL     1      -0.931  -7.233   3.427  0.00  0.00    +0.020 A 
ATOM      6  C   UNL     1      -0.882  -6.774   2.123  0.00  0.00    +0.044 A 
ATOM      7 CL   UNL     1       0.648  -6.412   1.387  0.00  0.00    -0.083 Cl
ENDROOT
BRANCH   3   8
ATOM      8  C   UNL     1      -4.647  -7.673   3.931  0.00  0.00    +0.180 C 
ATOM      9  C   UNL     1      -5.132  -6.463   4.732  0.00  0.00    +0.179 C 
ATOM     10  C   UNL     1      -6.452  -6.815   5.425  0.00  0.00    +0.177 C 
ATOM     11  C   UNL     1      -6.239  -8.048   6.308  0.00  0.00    +0.176 C 
ATOM     12  C   UNL     1      -5.710  -9.198   5.446  0.00  0.00    +0.175 C 
ATOM     13  O   UNL     1      -4.499  -8.794   4.806  0.00  0.00    -0.361 OA
BRANCH  11  14
ATOM     14  O   UNL     1      -5.291  -7.744   7.333  0.00  0.00    -0.386 OA
ATOM     15  H   UNL     1      -5.560  -7.020   7.915  0.00  0.00    +0.210 HD
ENDBRANCH  11  14
BRANCH  10  16
ATOM     16  O   UNL     1      -6.877  -5.715   6.233  0.00  0.00    -0.386 OA
ATOM     17  H   UNL     1      -7.708  -5.869   6.702  0.00  0.00    +0.210 HD
ENDBRANCH  10  16
BRANCH   9  18
ATOM     18  O   UNL     1      -4.154  -6.116   5.714  0.00  0.00    -0.386 OA
ATOM     19  H   UNL     1      -4.396  -5.355   6.259  0.00  0.00    +0.210 HD
ENDBRANCH   9  18
BRANCH  12  20
ATOM     20  C   UNL     1      -5.438 -10.416   6.332  0.00  0.00    +0.190 C 
BRANCH  20  21
ATOM     21  O   UNL     1      -5.056 -11.524   5.513  0.00  0.00    -0.392 OA
ATOM     22  H   UNL     1      -4.868 -12.332   6.009  0.00  0.00    +0.210 HD
ENDBRANCH  20  21
ENDBRANCH  12  20
ENDBRANCH   3   8
BRANCH   1  23
ATOM     23  C   UNL     1      -2.001  -6.092  -0.011  0.00  0.00    +0.071 C 
BRANCH  23  27
ATOM     24  C   UNL     1      -1.498  -1.848   0.006  0.00  0.00    +0.121 A 
ATOM     25  C   UNL     1      -0.388  -2.679  -0.003  0.00  0.00    +0.046 A 
ATOM     26  C   UNL     1      -0.553  -4.051  -0.008  0.00  0.00    +0.007 A 
ATOM     27  C   UNL     1      -1.823  -4.596  -0.005  0.00  0.00    -0.043 A 
ATOM     28  C   UNL     1      -2.932  -3.769   0.004  0.00  0.00    +0.007 A 
ATOM     29  C   UNL     1      -2.772  -2.397   0.016  0.00  0.00    +0.046 A 
BRANCH  24  30
ATOM     30  O   UNL     1      -1.339  -0.499   0.012  0.00  0.00    -0.492 OA
BRANCH  30  32
ATOM     31  C   UNL     1      -0.019   1.526   0.010  0.00  0.00    +0.048 C 
ATOM     32  C   UNL     1       0.002  -0.004   0.002  0.00  0.00    +0.225 C 
ENDBRANCH  30  32
ENDBRANCH  24  30
ENDBRANCH  23  27
ENDBRANCH   1  23
TORSDOF 10
