REMARK  Name = ZINC01075477
REMARK  8 active torsions:
REMARK  status: ('A' for Active; 'I' for Inactive)
REMARK    1  A    between atoms: C_1  and  C_2
REMARK    2  A    between atoms: C_4  and  N_10
REMARK    3  A    between atoms: C_6  and  C_9
REMARK    4  A    between atoms: C_7  and  O_8
REMARK    5  A    between atoms: N_10  and  S_11
REMARK    6  A    between atoms: S_11  and  C_14
REMARK    7  A    between atoms: C_16  and  C_20
REMARK    8  A    between atoms: C_18  and  C_19
REMARK                            x       y       z     vdW  Elec       q    Type
REMARK                         _______ _______ _______ _____ _____    ______ ____
ROOT
ATOM      1  N   UNL     1       0.032  -2.793  -2.299  0.00  0.00    -0.216 N 
ATOM      2  H   UNL     1      -0.629  -2.515  -2.952  0.00  0.00    +0.174 HD
ENDROOT
BRANCH   1   6
ATOM      3  C   UNL     1      -0.133   1.252   0.491  0.00  0.00    +0.047 C 
ATOM      4  C   UNL     1      -0.029  -0.245   0.352  0.00  0.00    -0.007 A 
ATOM      5  C   UNL     1      -0.046  -0.825  -0.901  0.00  0.00    +0.031 A 
ATOM      6  C   UNL     1       0.050  -2.204  -1.029  0.00  0.00    +0.049 A 
ATOM      7  C   UNL     1       0.162  -3.000   0.104  0.00  0.00    +0.031 A 
ATOM      8  C   UNL     1       0.179  -2.418   1.357  0.00  0.00    -0.007 A 
ATOM      9  C   UNL     1       0.089  -1.040   1.483  0.00  0.00    +0.123 A 
ATOM     10  C   UNL     1       0.301  -3.281   2.586  0.00  0.00    +0.047 C 
BRANCH   9  11
ATOM     11  O   UNL     1       0.111  -0.468   2.717  0.00  0.00    -0.506 OA
ATOM     12  H   UNL     1      -0.762  -0.368   3.119  0.00  0.00    +0.292 HD
ENDBRANCH   9  11
ENDBRANCH   1   6
BRANCH   1  13
ATOM     13  S   UNL     1       1.139  -3.962  -2.685  0.00  0.00    +0.073 S 
ATOM     14  O   UNL     1       1.066  -4.945  -1.661  0.00  0.00    -0.150 OA
ATOM     15  O   UNL     1       0.938  -4.274  -4.056  0.00  0.00    -0.150 OA
BRANCH  13  16
ATOM     16  C   UNL     1       2.736  -3.228  -2.564  0.00  0.00    +0.119 A 
ATOM     17  C   UNL     1       3.645  -3.674  -1.623  0.00  0.00    +0.040 A 
ATOM     18  C   UNL     1       4.865  -3.088  -1.556  0.00  0.00    -0.011 A 
ATOM     19  S   UNL     1       4.756  -1.863  -2.851  0.00  0.00    -0.097 S 
ATOM     20  C   UNL     1       3.095  -2.219  -3.397  0.00  0.00    +0.014 A 
ATOM     21  C   UNL     1       2.296  -1.568  -4.496  0.00  0.00    +0.053 C 
ATOM     22  C   UNL     1       6.014  -3.390  -0.630  0.00  0.00    +0.051 C 
ENDBRANCH  13  16
ENDBRANCH   1  13
TORSDOF 4
