REMARK  Name = ZINC00641072
REMARK  2 active torsions:
REMARK  status: ('A' for Active; 'I' for Inactive)
REMARK    1  A    between atoms: N_6  and  C_7
REMARK    2  A    between atoms: C_7  and  O_21
REMARK                            x       y       z     vdW  Elec       q    Type
REMARK                         _______ _______ _______ _____ _____    ______ ____
ROOT
ATOM      1  C   UNL     1      -0.398   5.967   0.036  0.00  0.00    +0.306 C 
ATOM      2  C   UNL     1       0.042   4.525   0.071  0.00  0.00    +0.075 A 
ATOM      3  C   UNL     1      -1.128   3.758   0.062  0.00  0.00    +0.091 A 
ATOM      4  C   UNL     1      -1.035   2.364   0.084  0.00  0.00    +0.075 A 
ATOM      5  C   UNL     1       0.207   1.759   0.126  0.00  0.00    +0.080 A 
ATOM      6  C   UNL     1       1.359   2.529   0.135  0.00  0.00    +0.079 A 
ATOM      7  C   UNL     1       1.273   3.914   0.108  0.00  0.00    +0.072 A 
ATOM      8 CL   UNL     1       2.719   4.874   0.120  0.00  0.00    -0.081 Cl
ATOM      9 CL   UNL     1       2.914   1.759   0.181  0.00  0.00    -0.080 Cl
ATOM     10 CL   UNL     1       0.325   0.028   0.159  0.00  0.00    -0.080 Cl
ATOM     11 CL   UNL     1      -2.475   1.395   0.064  0.00  0.00    -0.081 Cl
ATOM     12  C   UNL     1      -2.277   4.679   0.021  0.00  0.00    +0.345 C 
ATOM     13  O   UNL     1      -3.442   4.335   0.003  0.00  0.00    -0.245 OA
ATOM     14  O   UNL     1      -1.851   5.953   0.006  0.00  0.00    -0.410 OA
ENDROOT
BRANCH   1  20
ATOM     15  C   UNL     1      -0.244   8.047  -1.197  0.00  0.00    +0.119 C 
ATOM     16  C   UNL     1       0.369   8.704  -2.437  0.00  0.00    +0.175 C 
ATOM     17  O   UNL     1      -0.072   8.008  -3.606  0.00  0.00    -0.377 OA
ATOM     18  C   UNL     1       0.271   6.620  -3.614  0.00  0.00    +0.175 C 
ATOM     19  C   UNL     1      -0.344   5.942  -2.386  0.00  0.00    +0.119 C 
ATOM     20  N   UNL     1       0.124   6.624  -1.171  0.00  0.00    -0.233 NA
ENDBRANCH   1  20
BRANCH   1  21
ATOM     21  O   UNL     1       0.062   6.649   1.204  0.00  0.00    -0.339 OA
ATOM     22  H   UNL     1      -0.260   6.270   2.033  0.00  0.00    +0.216 HD
ENDBRANCH   1  21
TORSDOF 2
