REMARK  Name = ZINC39885118
REMARK  13 active torsions:
REMARK  status: ('A' for Active; 'I' for Inactive)
REMARK    1  A    between atoms: C_1  and  C_2
REMARK    2  A    between atoms: C_2  and  O_3
REMARK    3  A    between atoms: O_3  and  C_4
REMARK    4  A    between atoms: C_6  and  C_11
REMARK    5  A    between atoms: C_9  and  O_10
REMARK    6  A    between atoms: C_12  and  C_13
REMARK    7  A    between atoms: C_12  and  C_15
REMARK    8  A    between atoms: N_17  and  C_18
REMARK    9  A    between atoms: C_19  and  C_29
REMARK   10  A    between atoms: C_24  and  C_28
REMARK   11  A    between atoms: C_29  and  O_31
REMARK   12  A    between atoms: O_31  and  C_32
REMARK   13  A    between atoms: C_32  and  C_33
REMARK                            x       y       z     vdW  Elec       q    Type
REMARK                         _______ _______ _______ _____ _____    ______ ____
ROOT
ATOM      1  C   UNL     1      -0.848  -7.230   1.167  0.00  0.00    +0.259 C 
ATOM      2  O   UNL     1      -1.411  -6.780   2.147  0.00  0.00    -0.269 OA
ATOM      3  N   UNL     1      -0.830  -8.560   0.952  0.00  0.00    -0.275 N 
ATOM      4  H   UNL     1      -0.381  -8.919   0.171  0.00  0.00    +0.156 HD
ENDROOT
BRANCH   3   5
ATOM      5  C   UNL     1      -1.452  -9.415   1.846  0.00  0.00    +0.087 A 
ATOM      6  C   UNL     1      -1.529 -10.799   1.791  0.00  0.00    +0.091 A 
ATOM      7  C   UNL     1      -2.247 -11.467   2.863  0.00  0.00    -0.021 A 
ATOM      8  C   UNL     1      -2.755 -10.630   3.793  0.00  0.00    -0.004 A 
ATOM      9  S   UNL     1      -2.279  -9.015   3.252  0.00  0.00    -0.077 S 
ATOM     10  C   UNL     1      -3.540 -11.008   5.011  0.00  0.00    +0.046 C 
ATOM     11  C   UNL     1      -4.009 -12.462   4.850  0.00  0.00    -0.009 C 
ATOM     12  C   UNL     1      -2.820 -13.320   4.409  0.00  0.00    +0.008 C 
ATOM     13  C   UNL     1      -2.433 -12.973   2.969  0.00  0.00    +0.037 C 
ATOM     14  C   UNL     1      -4.548 -12.977   6.186  0.00  0.00    +0.008 C 
BRANCH   6  15
ATOM     15  C   UNL     1      -0.915 -11.555   0.697  0.00  0.00    +0.342 C 
ATOM     16  O   UNL     1       0.234 -11.941   0.796  0.00  0.00    -0.245 OA
BRANCH  15  17
ATOM     17  O   UNL     1      -1.623 -11.822  -0.419  0.00  0.00    -0.461 OA
BRANCH  17  18
ATOM     18  C   UNL     1      -0.961 -12.563  -1.446  0.00  0.00    +0.229 C 
ATOM     19  C   UNL     1      -1.916 -12.767  -2.624  0.00  0.00    +0.048 C 
ENDBRANCH  17  18
ENDBRANCH  15  17
ENDBRANCH   6  15
ENDBRANCH   3   5
BRANCH   1  21
ATOM     20  C   UNL     1      -0.205  -4.962   0.437  0.00  0.00    +0.032 C 
ATOM     21  C   UNL     1      -0.187  -6.322   0.217  0.00  0.00    +0.114 C 
BRANCH  20  24
ATOM     22  C   UNL     1       0.862  -1.962  -1.538  0.00  0.00    +0.162 A 
ATOM     23  C   UNL     1       0.108  -2.796  -0.738  0.00  0.00    +0.057 A 
ATOM     24  C   UNL     1       0.589  -4.072  -0.412  0.00  0.00    -0.020 A 
ATOM     25  C   UNL     1       1.834  -4.493  -0.902  0.00  0.00    +0.012 A 
ATOM     26  C   UNL     1       2.578  -3.654  -1.699  0.00  0.00    +0.050 A 
ATOM     27  C   UNL     1       2.097  -2.391  -2.026  0.00  0.00    +0.158 A 
BRANCH  27  28
ATOM     28  O   UNL     1       2.834  -1.571  -2.817  0.00  0.00    -0.503 OA
ATOM     29  H   UNL     1       3.445  -1.000  -2.332  0.00  0.00    +0.292 HD
ENDBRANCH  27  28
BRANCH  22  30
ATOM     30  O   UNL     1       0.398  -0.724  -1.857  0.00  0.00    -0.489 OA
BRANCH  30  32
ATOM     31  C   UNL     1      -1.225   1.065  -1.787  0.00  0.00    +0.048 C 
ATOM     32  C   UNL     1      -0.874  -0.351  -1.324  0.00  0.00    +0.226 C 
ENDBRANCH  30  32
ENDBRANCH  22  30
ENDBRANCH  20  24
BRANCH  21  33
ATOM     33  C   UNL     1       0.476  -6.852  -0.936  0.00  0.00    +0.104 C 
ATOM     34  N   UNL     1       1.001  -7.272  -1.852  0.00  0.00    -0.191 NA
ENDBRANCH  21  33
ENDBRANCH   1  21
TORSDOF 10
