REMARK  Name = ZINC20412701
REMARK  8 active torsions:
REMARK  status: ('A' for Active; 'I' for Inactive)
REMARK    1  A    between atoms: C_4  and  C_7
REMARK    2  A    between atoms: C_7  and  C_8
REMARK    3  A    between atoms: C_8  and  C_10
REMARK    4  A    between atoms: C_8  and  N_36
REMARK    5  A    between atoms: C_10  and  O_12
REMARK    6  A    between atoms: O_12  and  C_13
REMARK    7  A    between atoms: C_15  and  O_35
REMARK    8  A    between atoms: C_21  and  C_24
REMARK                            x       y       z     vdW  Elec       q    Type
REMARK                         _______ _______ _______ _____ _____    ______ ____
ROOT
ATOM      1  C   UNL     1       0.048  -2.085   1.188  0.00  0.00    +0.139 A 
ATOM      2  C   UNL     1       0.125  -0.696   1.213  0.00  0.00    +0.092 A 
ATOM      3  C   UNL     1       0.112   0.020   0.030  0.00  0.00    +0.135 A 
ATOM      4  C   UNL     1       0.016  -0.664  -1.189  0.00  0.00    +0.106 A 
ATOM      5  C   UNL     1      -0.056  -2.068  -1.212  0.00  0.00    +0.145 A 
ATOM      6  C   UNL     1      -0.042  -2.767  -0.014  0.00  0.00    +0.093 A 
ATOM      7  O   UNL     1      -0.143  -2.724  -2.387  0.00  0.00    -0.462 OA
ATOM      8  C   UNL     1      -0.160  -2.107  -3.572  0.00  0.00    +0.208 A 
ATOM      9  C   UNL     1      -0.092  -0.757  -3.693  0.00  0.00    +0.065 A 
ATOM     10  C   UNL     1       0.006   0.060  -2.471  0.00  0.00    +0.204 A 
ATOM     11  O   UNL     1       0.070   1.276  -2.518  0.00  0.00    -0.286 OA
ENDROOT
BRANCH   9  12
ATOM     12  C   UNL     1      -0.115  -0.116  -5.031  0.00  0.00    -0.008 A 
ATOM     13  C   UNL     1      -0.996   0.934  -5.286  0.00  0.00    +0.012 A 
ATOM     14  C   UNL     1      -1.018   1.532  -6.530  0.00  0.00    +0.050 A 
ATOM     15  C   UNL     1      -0.164   1.085  -7.526  0.00  0.00    +0.162 A 
ATOM     16  C   UNL     1       0.714   0.039  -7.278  0.00  0.00    +0.162 A 
ATOM     17  C   UNL     1       0.748  -0.560  -6.032  0.00  0.00    +0.058 A 
ATOM     18  O   UNL     1       1.548  -0.390  -8.269  0.00  0.00    -0.488 OA
ATOM     19  C   UNL     1       2.579   0.521  -8.658  0.00  0.00    +0.232 C 
ATOM     20  C   UNL     1       2.059   1.518  -9.682  0.00  0.00    +0.082 C 
ATOM     21  C   UNL     1       0.980   2.425  -9.110  0.00  0.00    +0.232 C 
ATOM     22  O   UNL     1      -0.182   1.671  -8.759  0.00  0.00    -0.488 OA
ENDBRANCH   9  12
BRANCH   3  23
ATOM     23  O   UNL     1       0.187   1.375   0.051  0.00  0.00    -0.506 OA
ATOM     24  H   UNL     1       0.176   1.940  -0.893  0.00  0.00    +0.292 HD
ENDBRANCH   3  23
BRANCH   1  25
ATOM     25  O   UNL     1       0.061  -2.779   2.356  0.00  0.00    -0.425 OA
BRANCH  25  26
ATOM     26  C   UNL     1      -1.018  -2.661   3.146  0.00  0.00    +0.330 C 
ATOM     27  O   UNL     1      -1.985  -2.047   2.762  0.00  0.00    -0.249 OA
BRANCH  26  28
ATOM     28  C   UNL     1      -1.023  -3.295   4.513  0.00  0.00    +0.166 C 
BRANCH  28  29
ATOM     29  N   UNL     1      -2.409  -3.452   4.976  0.00  0.00    -0.318 NA
ATOM     30  H   UNL     1      -2.960  -4.093   4.272  0.00  0.00    +0.119 HD
ATOM     31  H   UNL     1      -2.412  -3.915   5.974  0.00  0.00    +0.119 HD
ENDBRANCH  28  29
BRANCH  28  32
ATOM     32  C   UNL     1      -0.257  -2.403   5.492  0.00  0.00    +0.065 C 
BRANCH  32  36
ATOM     33  C   UNL     1       0.030  -4.360   9.278  0.00  0.00    +0.000 A 
ATOM     34  C   UNL     1       1.012  -4.553   8.325  0.00  0.00    +0.000 A 
ATOM     35  C   UNL     1       0.919  -3.920   7.099  0.00  0.00    +0.004 A 
ATOM     36  C   UNL     1      -0.156  -3.094   6.828  0.00  0.00    -0.045 A 
ATOM     37  C   UNL     1      -1.135  -2.897   7.784  0.00  0.00    +0.004 A 
ATOM     38  C   UNL     1      -1.045  -3.534   9.007  0.00  0.00    +0.000 A 
ENDBRANCH  32  36
ENDBRANCH  28  32
ENDBRANCH  26  28
ENDBRANCH  25  26
ENDBRANCH   1  25
TORSDOF 8
