REMARK  Name = ZINC09505368
REMARK  7 active torsions:
REMARK  status: ('A' for Active; 'I' for Inactive)
REMARK    1  A    between atoms: C_4  and  C_7
REMARK    2  A    between atoms: C_7  and  N_58
REMARK    3  A    between atoms: C_13  and  N_17
REMARK    4  A    between atoms: C_14  and  C_15
REMARK    5  A    between atoms: C_18  and  C_20
REMARK    6  A    between atoms: N_25  and  S_26
REMARK    7  A    between atoms: S_26  and  C_29
REMARK                            x       y       z     vdW  Elec       q    Type
REMARK                         _______ _______ _______ _____ _____    ______ ____
ROOT
ATOM      1  C   UNL     1      -0.349   7.290  -1.387  0.00  0.00    -0.073 C 
ATOM      2  C   UNL     1       0.002   7.854  -2.767  0.00  0.00    +0.019 C 
ATOM      3  C   UNL     1      -0.704   7.007  -3.819  0.00  0.00    -0.022 A 
ATOM      4  C   UNL     1      -1.178   5.781  -3.498  0.00  0.00    -0.021 A 
ATOM      5  S   UNL     1      -1.907   5.175  -4.991  0.00  0.00    -0.079 S 
ATOM      6  C   UNL     1      -1.588   6.527  -6.027  0.00  0.00    +0.090 A 
ATOM      7  C   UNL     1      -0.924   7.416  -5.193  0.00  0.00    +0.083 A 
ATOM      8  C   UNL     1      -1.085   5.115  -2.161  0.00  0.00    -0.035 C 
ATOM      9  N   UNL     1      -0.066   5.840  -1.363  0.00  0.00    +0.386 N 
ATOM     10  H   UNL     1       0.860   5.674  -1.773  0.00  0.00    -0.081 HD
ENDROOT
BRANCH   6  11
ATOM     11  N   UNL     1      -1.916   6.682  -7.367  0.00  0.00    -0.278 N 
ATOM     12  C   UNL     1      -2.568   5.700  -8.019  0.00  0.00    +0.236 C 
ATOM     13  O   UNL     1      -2.869   4.680  -7.436  0.00  0.00    -0.274 OA
ATOM     14  H   UNL     1      -1.675   7.498  -7.833  0.00  0.00    +0.155 HD
BRANCH  12  15
ATOM     15  C   UNL     1      -2.924   5.869  -9.474  0.00  0.00    +0.166 C 
ATOM     16  C   UNL     1      -1.639   6.030 -10.313  0.00  0.00    +0.031 C 
ATOM     17  C   UNL     1      -1.395   4.590 -10.848  0.00  0.00    +0.019 C 
ATOM     18  C   UNL     1      -2.844   4.092 -11.074  0.00  0.00    +0.110 C 
ATOM     19  N   UNL     1      -3.620   4.669  -9.961  0.00  0.00    -0.164 NA
BRANCH  19  20
ATOM     20  S   UNL     1      -5.039   4.064  -9.358  0.00  0.00    +0.068 S 
ATOM     21  O   UNL     1      -5.063   2.682  -9.686  0.00  0.00    -0.152 OA
ATOM     22  O   UNL     1      -5.144   4.532  -8.021  0.00  0.00    -0.152 OA
BRANCH  20  23
ATOM     23  C   UNL     1      -6.351   4.819 -10.260  0.00  0.00    +0.143 A 
ATOM     24  C   UNL     1      -6.949   4.405 -11.404  0.00  0.00    +0.036 A 
ATOM     25  C   UNL     1      -7.974   5.165 -11.937  0.00  0.00    +0.010 A 
ATOM     26  C   UNL     1      -8.344   6.306 -11.306  0.00  0.00    +0.047 A 
ATOM     27  S   UNL     1      -7.233   6.331  -9.908  0.00  0.00    -0.077 S 
ENDBRANCH  20  23
ENDBRANCH  19  20
ENDBRANCH  12  15
ENDBRANCH   6  11
BRANCH   7  28
ATOM     28  C   UNL     1      -0.475   8.689  -5.671  0.00  0.00    +0.102 C 
ATOM     29  N   UNL     1      -0.119   9.698  -6.050  0.00  0.00    -0.191 NA
ENDBRANCH   7  28
BRANCH   9  30
ATOM     30  C   UNL     1      -0.070   5.347   0.031  0.00  0.00    -0.043 C 
BRANCH  30  34
ATOM     31  C   UNL     1      -0.013   1.076   0.008  0.00  0.00    +0.000 A 
ATOM     32  C   UNL     1      -1.219   1.751   0.017  0.00  0.00    +0.000 A 
ATOM     33  C   UNL     1      -1.238   3.133   0.030  0.00  0.00    +0.002 A 
ATOM     34  C   UNL     1      -0.050   3.840   0.023  0.00  0.00    -0.064 A 
ATOM     35  C   UNL     1       1.156   3.165   0.008  0.00  0.00    +0.002 A 
ATOM     36  C   UNL     1       1.175   1.783   0.000  0.00  0.00    +0.000 A 
ENDBRANCH  30  34
ENDBRANCH   9  30
TORSDOF 7
