REMARK  Name = ZINC22507886
REMARK  11 active torsions:
REMARK  status: ('A' for Active; 'I' for Inactive)
REMARK    1  A    between atoms: C_1  and  C_2
REMARK    2  A    between atoms: C_2  and  O_3
REMARK    3  A    between atoms: O_3  and  C_4
REMARK    4  A    between atoms: C_9  and  N_12
REMARK    5  A    between atoms: C_13  and  C_15
REMARK    6  A    between atoms: C_16  and  C_29
REMARK    7  A    between atoms: C_18  and  C_28
REMARK    8  A    between atoms: C_20  and  C_24
REMARK    9  A    between atoms: C_24  and  C_25
REMARK   10  A    between atoms: C_24  and  C_26
REMARK   11  A    between atoms: C_24  and  C_27
REMARK                            x       y       z     vdW  Elec       q    Type
REMARK                         _______ _______ _______ _____ _____    ______ ____
ROOT
ATOM      1  N   UNL     1       2.824   7.758  -1.189  0.00  0.00    -0.308 N 
ATOM      2  C   UNL     1       1.539   7.412  -0.973  0.00  0.00    +0.251 C 
ATOM      3  O   UNL     1       0.664   8.255  -1.035  0.00  0.00    -0.270 OA
ATOM      4  H   UNL     1       3.615   6.996  -1.132  0.00  0.00    +0.149 HD
ENDROOT
BRANCH   2   5
ATOM      5  C   UNL     1       1.195   6.018  -0.662  0.00  0.00    +0.079 A 
ATOM      6  C   UNL     1      -0.031   5.482  -0.417  0.00  0.00    -0.020 A 
ATOM      7  C   UNL     1      -0.151   4.112  -0.136  0.00  0.00    +0.032 A 
ATOM      8  C   UNL     1      -1.313   3.352   0.146  0.00  0.00    +0.050 A 
ATOM      9  N   UNL     1      -1.200   2.063   0.377  0.00  0.00    -0.236 NA
ATOM     10  C   UNL     1      -0.033   1.441   0.369  0.00  0.00    +0.136 A 
ATOM     11  N   UNL     1       1.088   2.088   0.114  0.00  0.00    -0.224 NA
ATOM     12  C   UNL     1       1.065   3.379  -0.134  0.00  0.00    +0.113 A 
ATOM     13  S   UNL     1       2.284   4.611  -0.514  0.00  0.00    -0.064 S 
ATOM     14  C   UNL     1      -2.667   4.013   0.173  0.00  0.00    +0.066 C 
ATOM     15  C   UNL     1      -1.257   6.358  -0.446  0.00  0.00    +0.046 C 
BRANCH  10  16
ATOM     16  C   UNL     1       0.017  -0.039   0.650  0.00  0.00    +0.022 C 
ATOM     17  C   UNL     1       1.466  -0.523   0.577  0.00  0.00    +0.019 C 
ATOM     18  C   UNL     1      -0.542  -0.312   2.048  0.00  0.00    +0.019 C 
ATOM     19  C   UNL     1      -0.823  -0.784  -0.390  0.00  0.00    +0.019 C 
ENDBRANCH  10  16
ENDBRANCH   2   5
BRANCH   1  25
ATOM     20  C   UNL     1       5.608  11.693  -3.603  0.00  0.00    +0.403 C 
ATOM     21  O   UNL     1       6.713  11.943  -3.164  0.00  0.00    -0.226 OA
ATOM     22  N   UNL     1       4.667  11.163  -2.798  0.00  0.00    -0.267 N 
ATOM     23  C   UNL     1       4.962  10.882  -1.386  0.00  0.00    +0.113 C 
ATOM     24  C   UNL     1       4.617   9.418  -1.093  0.00  0.00    +0.041 C 
ATOM     25  C   UNL     1       3.166   9.148  -1.498  0.00  0.00    +0.076 C 
ATOM     26  C   UNL     1       3.000   9.392  -3.000  0.00  0.00    +0.041 C 
ATOM     27  C   UNL     1       3.326  10.855  -3.315  0.00  0.00    +0.113 C 
BRANCH  20  28
ATOM     28  O   UNL     1       5.324  11.946  -4.895  0.00  0.00    -0.451 OA
BRANCH  28  30
ATOM     29  C   UNL     1       5.880  12.733  -7.132  0.00  0.00    +0.048 C 
ATOM     30  C   UNL     1       6.386  12.517  -5.704  0.00  0.00    +0.230 C 
ENDBRANCH  28  30
ENDBRANCH  20  28
ENDBRANCH   1  25
TORSDOF 5
