REMARK  Name = ZINC22034403
REMARK  10 active torsions:
REMARK  status: ('A' for Active; 'I' for Inactive)
REMARK    1  A    between atoms: C_1  and  C_2
REMARK    2  A    between atoms: C_3  and  C_32
REMARK    3  A    between atoms: N_9  and  C_27
REMARK    4  A    between atoms: C_10  and  S_12
REMARK    5  A    between atoms: S_12  and  C_13
REMARK    6  A    between atoms: C_13  and  C_14
REMARK    7  A    between atoms: C_14  and  C_16
REMARK    8  A    between atoms: C_17  and  N_26
REMARK    9  A    between atoms: N_18  and  C_25
REMARK   10  A    between atoms: N_21  and  C_24
REMARK                            x       y       z     vdW  Elec       q    Type
REMARK                         _______ _______ _______ _____ _____    ______ ____
ROOT
ATOM      1  C   UNL     1       2.779   1.727   3.928  0.00  0.00    +0.045 C 
ATOM      2  C   UNL     1       2.710   0.373   3.268  0.00  0.00    -0.026 A 
ATOM      3  C   UNL     1       3.825  -0.348   3.081  0.00  0.00    -0.008 A 
ATOM      4  S   UNL     1       3.232  -1.829   2.285  0.00  0.00    -0.073 S 
ATOM      5  C   UNL     1       1.502  -1.437   2.228  0.00  0.00    +0.117 A 
ATOM      6  C   UNL     1       1.434  -0.165   2.828  0.00  0.00    +0.075 A 
ATOM      7  C   UNL     1       0.128   0.411   2.920  0.00  0.00    +0.263 A 
ATOM      8  O   UNL     1      -0.028   1.510   3.425  0.00  0.00    -0.267 OA
ATOM      9  N   UNL     1      -0.926  -0.275   2.441  0.00  0.00    -0.284 N 
ATOM     10  C   UNL     1      -0.770  -1.506   1.872  0.00  0.00    +0.173 A 
ATOM     11  N   UNL     1       0.421  -2.060   1.775  0.00  0.00    -0.216 NA
ATOM     12  C   UNL     1       5.241   0.008   3.454  0.00  0.00    +0.052 C 
ENDROOT
BRANCH   9  13
ATOM     13  C   UNL     1      -2.265   0.313   2.526  0.00  0.00    +0.093 C 
ATOM     14  C   UNL     1      -2.308   1.643   1.746  0.00  0.00    +0.025 C 
ATOM     15  C   UNL     1      -3.228   2.554   2.600  0.00  0.00    +0.002 C 
ATOM     16  C   UNL     1      -2.836   2.173   4.049  0.00  0.00    +0.002 C 
ATOM     17  C   UNL     1      -2.600   0.650   3.990  0.00  0.00    +0.025 C 
ENDBRANCH   9  13
BRANCH  10  18
ATOM     18  S   UNL     1      -2.181  -2.365   1.260  0.00  0.00    -0.080 S 
BRANCH  18  19
ATOM     19  C   UNL     1      -1.390  -3.873   0.648  0.00  0.00    +0.157 C 
BRANCH  19  20
ATOM     20  C   UNL     1      -2.435  -4.787   0.062  0.00  0.00    +0.182 C 
ATOM     21  O   UNL     1      -3.602  -4.451   0.058  0.00  0.00    -0.291 OA
BRANCH  20  22
ATOM     22  C   UNL     1      -2.058  -6.033  -0.483  0.00  0.00    +0.120 A 
ATOM     23  C   UNL     1      -2.993  -6.848  -1.145  0.00  0.00    +0.116 A 
ATOM     24  N   UNL     1      -2.579  -8.043  -1.660  0.00  0.00    -0.284 N 
ATOM     25  C   UNL     1      -1.307  -8.453  -1.536  0.00  0.00    +0.333 A 
ATOM     26  O   UNL     1      -0.990  -9.528  -2.008  0.00  0.00    -0.246 OA
ATOM     27  N   UNL     1      -0.372  -7.720  -0.910  0.00  0.00    -0.263 N 
ATOM     28  C   UNL     1      -0.678  -6.522  -0.372  0.00  0.00    +0.269 A 
ATOM     29  O   UNL     1       0.172  -5.861   0.196  0.00  0.00    -0.267 OA
ATOM     30  C   UNL     1       0.999  -8.229  -0.811  0.00  0.00    +0.157 C 
ATOM     31  C   UNL     1      -3.544  -8.898  -2.356  0.00  0.00    +0.155 C 
BRANCH  23  32
ATOM     32  N   UNL     1      -4.287  -6.450  -1.275  0.00  0.00    -0.344 N 
ATOM     33  H   UNL     1      -5.011  -7.095  -1.794  0.00  0.00    +0.144 HD
ATOM     34  H   UNL     1      -4.610  -5.484  -0.860  0.00  0.00    +0.144 HD
ENDBRANCH  23  32
ENDBRANCH  20  22
ENDBRANCH  19  20
ENDBRANCH  18  19
ENDBRANCH  10  18
TORSDOF 6
