REMARK  Name = ZINC02746237
REMARK  5 active torsions:
REMARK  status: ('A' for Active; 'I' for Inactive)
REMARK    1  A    between atoms: C_1  and  C_2
REMARK    2  A    between atoms: C_2  and  C_3
REMARK    3  A    between atoms: C_3  and  C_5
REMARK    4  A    between atoms: C_3  and  S_17
REMARK    5  A    between atoms: S_17  and  C_18
REMARK                            x       y       z     vdW  Elec       q    Type
REMARK                         _______ _______ _______ _____ _____    ______ ____
ROOT
ATOM      1  C   UNL     1       6.286   7.330  -0.069  0.00  0.00    +0.140 C 
ENDROOT
BRANCH   1   2
ATOM      2  C   UNL     1       7.318   8.395   0.201  0.00  0.00    +0.232 C 
ATOM      3  O   UNL     1       7.041   9.564   0.031  0.00  0.00    -0.274 OA
ATOM      4  N   UNL     1       8.547   8.049   0.631  0.00  0.00    -0.264 N 
ATOM      5  C   UNL     1       9.499   9.031   0.879  0.00  0.00    +0.165 A 
ATOM      6  N   UNL     1       9.393  10.337   0.751  0.00  0.00    -0.229 NA
ATOM      7  C   UNL     1      10.399  11.161   1.034  0.00  0.00    +0.054 A 
ATOM      8  C   UNL     1      11.550  10.574   1.454  0.00  0.00    +0.014 A 
ATOM      9  S   UNL     1      11.137   8.850   1.433  0.00  0.00    -0.057 S 
ATOM     10  C   UNL     1      12.830  11.237   1.831  0.00  0.00    +0.044 C 
ATOM     11  C   UNL     1      12.786  12.689   1.330  0.00  0.00    +0.006 C 
ATOM     12  C   UNL     1      11.441  13.305   1.726  0.00  0.00    +0.006 C 
ATOM     13  C   UNL     1      10.314  12.678   0.905  0.00  0.00    +0.056 C 
ATOM     14  H   UNL     1       8.768   7.114   0.766  0.00  0.00    +0.157 HD
ENDBRANCH   1   2
BRANCH   1  16
ATOM     15  C   UNL     1       5.592   5.527  -1.653  0.00  0.00    +0.005 C 
ATOM     16  C   UNL     1       6.547   6.703  -1.440  0.00  0.00    +0.020 C 
ENDBRANCH   1  16
BRANCH   1  17
ATOM     17  S   UNL     1       4.635   8.071  -0.049  0.00  0.00    -0.072 S 
BRANCH  17  18
ATOM     18  C   UNL     1       4.506   8.485   1.659  0.00  0.00    +0.212 A 
ATOM     19  N   UNL     1       3.448   9.161   2.087  0.00  0.00    -0.201 NA
ATOM     20  C   UNL     1       3.352   9.473   3.375  0.00  0.00    +0.162 A 
ATOM     21  C   UNL     1       4.389   9.066   4.241  0.00  0.00    +0.137 A 
ATOM     22  C   UNL     1       4.018   9.543   5.584  0.00  0.00    +0.029 A 
ATOM     23  C   UNL     1       4.624   9.455   6.835  0.00  0.00    +0.012 A 
ATOM     24  C   UNL     1       4.011  10.018   7.934  0.00  0.00    +0.001 A 
ATOM     25  C   UNL     1       2.793  10.666   7.798  0.00  0.00    +0.002 A 
ATOM     26  C   UNL     1       2.186  10.765   6.565  0.00  0.00    +0.026 A 
ATOM     27  C   UNL     1       2.788  10.204   5.444  0.00  0.00    +0.050 A 
ATOM     28  N   UNL     1       2.410  10.148   4.112  0.00  0.00    -0.338 N 
ATOM     29  H   UNL     1       1.596  10.531   3.751  0.00  0.00    +0.167 HD
ATOM     30  N   UNL     1       5.419   8.392   3.752  0.00  0.00    -0.143 NA
ATOM     31  N   UNL     1       5.470   8.113   2.494  0.00  0.00    -0.122 NA
ENDBRANCH  17  18
ENDBRANCH   1  17
TORSDOF 4
