REMARK  Name = ZINC17159109
REMARK  5 active torsions:
REMARK  status: ('A' for Active; 'I' for Inactive)
REMARK    1  A    between atoms: C_1  and  C_2
REMARK    2  A    between atoms: C_2  and  C_4
REMARK    3  A    between atoms: C_2  and  N_20
REMARK    4  A    between atoms: N_6  and  N_7
REMARK    5  A    between atoms: C_8  and  C_10
REMARK                            x       y       z     vdW  Elec       q    Type
REMARK                         _______ _______ _______ _____ _____    ______ ____
ROOT
ATOM      1  C   UNL     1       5.923   3.990  -0.632  0.00  0.00    +0.249 C 
ATOM      2  O   UNL     1       5.869   2.845  -1.027  0.00  0.00    -0.272 OA
ATOM      3  N   UNL     1       7.071   4.688  -0.742  0.00  0.00    -0.233 N 
ATOM      4  H   UNL     1       7.120   5.726  -0.384  0.00  0.00    +0.173 HD
ENDROOT
BRANCH   3   5
ATOM      5  N   UNL     1       8.201   4.090  -1.314  0.00  0.00    -0.234 N 
ATOM      6  C   UNL     1       9.349   4.788  -1.425  0.00  0.00    +0.235 C 
ATOM      7  O   UNL     1       9.403   5.933  -1.030  0.00  0.00    -0.274 OA
ATOM      8  H   UNL     1       8.152   3.051  -1.673  0.00  0.00    +0.173 HD
BRANCH   6   9
ATOM      9  C   UNL     1      10.565   4.145  -2.040  0.00  0.00    +0.049 C 
ATOM     10  C   UNL     1      10.959   2.913  -1.223  0.00  0.00    +0.019 C 
ATOM     11  C   UNL     1      12.194   2.260  -1.847  0.00  0.00    -0.009 C 
ATOM     12  C   UNL     1      13.352   3.261  -1.853  0.00  0.00    +0.007 C 
ATOM     13  C   UNL     1      12.958   4.493  -2.670  0.00  0.00    -0.009 C 
ATOM     14  C   UNL     1      11.723   5.145  -2.045  0.00  0.00    +0.019 C 
ATOM     15  C   UNL     1      12.641   4.072  -4.106  0.00  0.00    +0.007 C 
ATOM     16  C   UNL     1      11.483   3.072  -4.101  0.00  0.00    -0.009 C 
ATOM     17  C   UNL     1      11.877   1.840  -3.284  0.00  0.00    +0.007 C 
ATOM     18  C   UNL     1      10.248   3.724  -3.477  0.00  0.00    +0.019 C 
ENDBRANCH   6   9
ENDBRANCH   3   5
BRANCH   1  20
ATOM     19  C   UNL     1       5.024   5.053   1.420  0.00  0.00    +0.038 C 
ATOM     20  C   UNL     1       4.707   4.633  -0.017  0.00  0.00    +0.156 C 
BRANCH  20  21
ATOM     21  N   UNL     1       3.598   3.675  -0.012  0.00  0.00    -0.316 N 
ATOM     22  C   UNL     1       2.297   4.128   0.003  0.00  0.00    +0.150 C 
ATOM     23  N   UNL     1       2.045   5.398   0.012  0.00  0.00    -0.113 NA
ATOM     24  S   UNL     1       0.377   5.534   0.029  0.00  0.00    +0.101 S 
ATOM     25  O   UNL     1      -0.024   6.089  -1.216  0.00  0.00    -0.146 OA
ATOM     26  O   UNL     1      -0.002   6.075   1.287  0.00  0.00    -0.146 OA
ATOM     27  C   UNL     1      -0.067   3.819   0.023  0.00  0.00    +0.123 A 
ATOM     28  C   UNL     1       1.177   3.173   0.008  0.00  0.00    +0.043 A 
ATOM     29  C   UNL     1       1.177   1.770   0.000  0.00  0.00    +0.013 A 
ATOM     30  C   UNL     1      -0.013   1.076   0.008  0.00  0.00    +0.001 A 
ATOM     31  C   UNL     1      -1.226   1.741   0.017  0.00  0.00    +0.002 A 
ATOM     32  C   UNL     1      -1.244   3.129   0.031  0.00  0.00    +0.030 A 
ATOM     33  H   UNL     1       3.804   2.595  -0.019  0.00  0.00    +0.148 HD
ENDBRANCH  20  21
ENDBRANCH   1  20
TORSDOF 4
