REMARK  Name = ZINC17143476
REMARK  7 active torsions:
REMARK  status: ('A' for Active; 'I' for Inactive)
REMARK    1  A    between atoms: C_1  and  C_2
REMARK    2  A    between atoms: C_2  and  O_3
REMARK    3  A    between atoms: O_3  and  C_4
REMARK    4  A    between atoms: C_4  and  C_6
REMARK    5  A    between atoms: C_10  and  N_11
REMARK    6  A    between atoms: C_12  and  C_14
REMARK    7  A    between atoms: C_22  and  C_24
REMARK                            x       y       z     vdW  Elec       q    Type
REMARK                         _______ _______ _______ _____ _____    ______ ____
ROOT
ATOM      1  C   UNL     1      -1.346   2.344   0.191  0.00  0.00    +0.091 A 
ATOM      2  C   UNL     1      -0.021   1.786   0.061  0.00  0.00    -0.021 A 
ATOM      3  C   UNL     1       0.068   0.469  -0.200  0.00  0.00    -0.004 A 
ATOM      4  S   UNL     1      -1.634  -0.048  -0.284  0.00  0.00    -0.077 S 
ATOM      5  C   UNL     1      -2.412   1.468   0.024  0.00  0.00    +0.086 A 
ATOM      6  C   UNL     1       1.309  -0.367  -0.376  0.00  0.00    +0.043 C 
ATOM      7  C   UNL     1       1.687  -0.415  -1.858  0.00  0.00    +0.005 C 
ATOM      8  C   UNL     1       2.849  -1.391  -2.056  0.00  0.00    +0.000 C 
ATOM      9  C   UNL     1       3.971  -0.699  -2.831  0.00  0.00    +0.000 C 
ATOM     10  C   UNL     1       4.743   0.230  -1.891  0.00  0.00    +0.000 C 
ATOM     11  C   UNL     1       4.982   1.573  -2.583  0.00  0.00    +0.000 C 
ATOM     12  C   UNL     1       4.871   2.702  -1.557  0.00  0.00    +0.000 C 
ATOM     13  C   UNL     1       3.901   3.767  -2.073  0.00  0.00    +0.000 C 
ATOM     14  C   UNL     1       2.861   4.075  -0.994  0.00  0.00    +0.000 C 
ATOM     15  C   UNL     1       1.662   3.138  -1.159  0.00  0.00    +0.005 C 
ATOM     16  C   UNL     1       1.211   2.640   0.216  0.00  0.00    +0.037 C 
ENDROOT
BRANCH   5  17
ATOM     17  N   UNL     1      -3.770   1.740   0.093  0.00  0.00    -0.279 N 
ATOM     18  C   UNL     1      -4.666   0.751  -0.093  0.00  0.00    +0.224 C 
ATOM     19  O   UNL     1      -4.285  -0.378  -0.321  0.00  0.00    -0.275 OA
ATOM     20  H   UNL     1      -4.075   2.643   0.275  0.00  0.00    +0.155 HD
BRANCH  18  21
ATOM     21  C   UNL     1      -6.142   1.047  -0.019  0.00  0.00    +0.120 C 
ATOM     22  C   UNL     1      -6.768   0.412   1.259  0.00  0.00    +0.131 C 
ATOM     23  C   UNL     1      -6.202  -1.039   1.318  0.00  0.00    +0.035 C 
ATOM     24  C   UNL     1      -6.964  -1.751   0.172  0.00  0.00    +0.035 C 
ATOM     25  C   UNL     1      -7.869  -0.618  -0.398  0.00  0.00    +0.133 C 
ATOM     26  C   UNL     1      -6.903   0.334  -1.165  0.00  0.00    +0.145 C 
ATOM     27  O   UNL     1      -8.141   0.164   0.811  0.00  0.00    -0.372 OA
BRANCH  26  28
ATOM     28  C   UNL     1      -5.952  -0.453  -2.030  0.00  0.00    +0.362 C 
ATOM     29  O   UNL     1      -6.200  -1.602  -2.309  0.00  0.00    -0.246 OA
ATOM     30  O   UNL     1      -4.830   0.122  -2.490  0.00  0.00    -0.246 OA
ENDBRANCH  26  28
ENDBRANCH  18  21
ENDBRANCH   5  17
BRANCH   1  31
ATOM     31  C   UNL     1      -1.556   3.765   0.475  0.00  0.00    +0.342 C 
ATOM     32  O   UNL     1      -1.659   4.560  -0.440  0.00  0.00    -0.245 OA
BRANCH  31  33
ATOM     33  O   UNL     1      -1.635   4.193   1.752  0.00  0.00    -0.461 OA
BRANCH  33  35
ATOM     34  C   UNL     1      -1.908   5.909   3.459  0.00  0.00    +0.048 C 
ATOM     35  C   UNL     1      -1.845   5.615   1.959  0.00  0.00    +0.229 C 
ENDBRANCH  33  35
ENDBRANCH  31  33
ENDBRANCH   1  31
TORSDOF 6
