REMARK  Name = ZINC20886107
REMARK  8 active torsions:
REMARK  status: ('A' for Active; 'I' for Inactive)
REMARK    1  A    between atoms: C_1  and  O_2
REMARK    2  A    between atoms: O_2  and  C_3
REMARK    3  A    between atoms: C_5  and  C_13
REMARK    4  A    between atoms: C_7  and  O_11
REMARK    5  A    between atoms: C_8  and  O_9
REMARK    6  A    between atoms: O_9  and  C_10
REMARK    7  A    between atoms: O_11  and  C_12
REMARK    8  A    between atoms: C_18  and  C_28
REMARK                            x       y       z     vdW  Elec       q    Type
REMARK                         _______ _______ _______ _____ _____    ______ ____
ROOT
ATOM      1  C   UNL     1      -0.075   0.257  -0.324  0.00  0.00    +0.032 C 
ATOM      2  C   UNL     1       0.607  -0.250   0.945  0.00  0.00    +0.059 C 
ATOM      3  C   UNL     1       2.061   0.196   0.964  0.00  0.00    +0.017 C 
ATOM      4  C   UNL     1       2.418   1.371   0.419  0.00  0.00    +0.036 C 
ATOM      5  C   UNL     1       3.814   1.945   0.387  0.00  0.00    +0.138 C 
ATOM      6  N   UNL     1       4.854   1.012   0.768  0.00  0.00    -0.331 N 
ATOM      7  C   UNL     1       4.916   0.491   2.059  0.00  0.00    +0.049 A 
ATOM      8  C   UNL     1       5.976   0.777   2.905  0.00  0.00    +0.025 A 
ATOM      9  C   UNL     1       5.971   0.274   4.194  0.00  0.00    +0.002 A 
ATOM     10  C   UNL     1       4.918  -0.505   4.639  0.00  0.00    +0.002 A 
ATOM     11  C   UNL     1       3.867  -0.807   3.790  0.00  0.00    +0.025 A 
ATOM     12  C   UNL     1       3.881  -0.322   2.494  0.00  0.00    +0.052 A 
ATOM     13  N   UNL     1       2.913  -0.675   1.561  0.00  0.00    -0.316 N 
ATOM     14  C   UNL     1       1.449   2.189  -0.208  0.00  0.00    +0.163 C 
ATOM     15  O   UNL     1       1.797   3.256  -0.674  0.00  0.00    -0.292 OA
ATOM     16  C   UNL     1       0.009   1.788  -0.319  0.00  0.00    +0.088 C 
ATOM     17  H   UNL     1       5.612   0.704   0.033  0.00  0.00    +0.147 HD
ATOM     18  H   UNL     1       2.867  -1.746   1.315  0.00  0.00    +0.152 HD
ENDROOT
BRANCH   5  19
ATOM     19  C   UNL     1       3.867   3.126   1.321  0.00  0.00    +0.002 A 
ATOM     20  C   UNL     1       2.978   3.425   2.281  0.00  0.00    +0.089 A 
ATOM     21  N   UNL     1       3.355   4.572   2.926  0.00  0.00    -0.360 N 
ATOM     22  H   UNL     1       2.740   4.968   3.747  0.00  0.00    +0.165 HD
ATOM     23  C   UNL     1       4.526   5.050   2.383  0.00  0.00    +0.047 A 
ATOM     24  C   UNL     1       4.901   4.163   1.357  0.00  0.00    +0.005 A 
ATOM     25  C   UNL     1       6.061   4.403   0.619  0.00  0.00    +0.010 A 
ATOM     26  C   UNL     1       6.833   5.494   0.902  0.00  0.00    +0.001 A 
ATOM     27  C   UNL     1       6.470   6.370   1.917  0.00  0.00    +0.002 A 
ATOM     28  C   UNL     1       5.327   6.155   2.655  0.00  0.00    +0.026 A 
ENDBRANCH   5  19
BRANCH   1  31
ATOM     29  C   UNL     1      -3.326  -1.345  -1.394  0.00  0.00    +0.165 A 
ATOM     30  C   UNL     1      -1.999  -0.944  -1.379  0.00  0.00    +0.053 A 
ATOM     31  C   UNL     1      -1.518  -0.176  -0.336  0.00  0.00    -0.036 A 
ATOM     32  C   UNL     1      -2.357   0.192   0.700  0.00  0.00    +0.053 A 
ATOM     33  C   UNL     1      -3.687  -0.199   0.690  0.00  0.00    +0.165 A 
ATOM     34  C   UNL     1      -4.174  -0.972  -0.357  0.00  0.00    +0.204 A 
BRANCH  29  36
ATOM     35  C   UNL     1      -2.871  -2.446  -3.452  0.00  0.00    +0.277 C 
ATOM     36  O   UNL     1      -3.798  -2.101  -2.421  0.00  0.00    -0.491 OA
ENDBRANCH  29  36
BRANCH  34  37
ATOM     37  O   UNL     1      -5.478  -1.363  -0.368  0.00  0.00    -0.488 OA
ATOM     38  C   UNL     1      -5.787  -2.608   0.263  0.00  0.00    +0.277 C 
ENDBRANCH  34  37
BRANCH  33  39
ATOM     39  O   UNL     1      -4.512   0.168   1.706  0.00  0.00    -0.491 OA
ATOM     40  C   UNL     1      -3.944   0.963   2.749  0.00  0.00    +0.277 C 
ENDBRANCH  33  39
ENDBRANCH   1  31
TORSDOF 5
