REMARK  Name = ZINC09367757
REMARK  11 active torsions:
REMARK  status: ('A' for Active; 'I' for Inactive)
REMARK    1  A    between atoms: C_1  and  C_2
REMARK    2  A    between atoms: C_5  and  N_8
REMARK    3  A    between atoms: C_9  and  C_36
REMARK    4  A    between atoms: N_13  and  C_16
REMARK    5  A    between atoms: C_16  and  C_17
REMARK    6  A    between atoms: C_17  and  C_19
REMARK    7  A    between atoms: C_21  and  C_35
REMARK    8  A    between atoms: N_22  and  C_25
REMARK    9  A    between atoms: C_23  and  C_24
REMARK   10  A    between atoms: C_28  and  S_31
REMARK   11  A    between atoms: S_31  and  N_34
REMARK                            x       y       z     vdW  Elec       q    Type
REMARK                         _______ _______ _______ _____ _____    ______ ____
ROOT
ATOM      1  C   UNL     1       1.090   2.329   0.004  0.00  0.00    +0.040 A 
ATOM      2  C   UNL     1       0.568   3.703   0.017  0.00  0.00    +0.034 A 
ATOM      3  C   UNL     1      -0.771   3.600   0.029  0.00  0.00    +0.022 A 
ATOM      4  N   UNL     1      -1.120   2.278   0.019  0.00  0.00    -0.317 N 
ATOM      5  C   UNL     1      -0.018   1.503   0.010  0.00  0.00    +0.031 A 
ATOM      6  C   UNL     1       0.002  -0.004   0.002  0.00  0.00    +0.064 C 
ATOM      7  C   UNL     1      -1.736   4.758   0.043  0.00  0.00    +0.064 C 
ENDROOT
BRANCH   4   8
ATOM      8  C   UNL     1      -2.437   1.798   0.022  0.00  0.00    +0.047 A 
ATOM      9  C   UNL     1      -2.922   1.094  -1.071  0.00  0.00    +0.028 A 
ATOM     10  C   UNL     1      -4.219   0.617  -1.063  0.00  0.00    +0.030 A 
ATOM     11  C   UNL     1      -5.036   0.851   0.027  0.00  0.00    +0.105 A 
ATOM     12  C   UNL     1      -4.557   1.557   1.115  0.00  0.00    +0.030 A 
ATOM     13  C   UNL     1      -3.259   2.031   1.116  0.00  0.00    +0.028 A 
BRANCH  11  14
ATOM     14  S   UNL     1      -6.691   0.247   0.031  0.00  0.00    +0.056 S 
ATOM     15  O   UNL     1      -6.725  -0.851  -0.871  0.00  0.00    -0.153 OA
ATOM     16  O   UNL     1      -7.077   0.126   1.393  0.00  0.00    -0.153 OA
BRANCH  14  17
ATOM     17  N   UNL     1      -7.645   1.430  -0.627  0.00  0.00    -0.204 NA
ATOM     18  H   UNL     1      -7.248   2.263  -0.925  0.00  0.00    +0.144 HD
ATOM     19  H   UNL     1      -8.601   1.290  -0.715  0.00  0.00    +0.144 HD
ENDBRANCH  14  17
ENDBRANCH  11  14
ENDBRANCH   4   8
BRANCH   1  20
ATOM     20  C   UNL     1       2.495   1.919  -0.011  0.00  0.00    +0.183 C 
ATOM     21  O   UNL     1       2.784   0.741  -0.021  0.00  0.00    -0.290 OA
BRANCH  20  22
ATOM     22  C   UNL     1       3.584   2.962  -0.016  0.00  0.00    +0.197 C 
BRANCH  22  27
ATOM     23  N   UNL     1       6.731   1.375  -0.888  0.00  0.00    -0.243 N 
ATOM     24  C   UNL     1       6.858   1.310   0.578  0.00  0.00    +0.166 C 
ATOM     25  C   UNL     1       5.581   1.959   1.074  0.00  0.00    +0.244 C 
ATOM     26  O   UNL     1       5.248   2.133   2.227  0.00  0.00    -0.273 OA
ATOM     27  N   UNL     1       4.892   2.301  -0.032  0.00  0.00    -0.216 N 
ATOM     28  C   UNL     1       5.553   1.969  -1.147  0.00  0.00    +0.316 C 
ATOM     29  O   UNL     1       5.134   2.181  -2.269  0.00  0.00    -0.252 OA
ATOM     30  C   UNL     1       8.078   2.104   1.048  0.00  0.00    +0.038 C 
BRANCH  23  35
ATOM     31  C   UNL     1      10.483  -0.517  -4.701  0.00  0.00    +0.044 C 
ATOM     32  C   UNL     1       9.486  -0.015  -3.688  0.00  0.00    -0.050 A 
ATOM     33  C   UNL     1       8.311   0.579  -4.112  0.00  0.00    +0.005 A 
ATOM     34  C   UNL     1       7.396   1.040  -3.186  0.00  0.00    +0.024 A 
ATOM     35  C   UNL     1       7.657   0.908  -1.829  0.00  0.00    +0.039 A 
ATOM     36  C   UNL     1       8.840   0.317  -1.406  0.00  0.00    +0.024 A 
ATOM     37  C   UNL     1       9.749  -0.147  -2.337  0.00  0.00    +0.005 A 
ENDBRANCH  23  35
ENDBRANCH  22  27
ENDBRANCH  20  22
ENDBRANCH   1  20
TORSDOF 7
