REMARK  Name = ZINC67550836
REMARK  8 active torsions:
REMARK  status: ('A' for Active; 'I' for Inactive)
REMARK    1  A    between atoms: C_1  and  O_2
REMARK    2  A    between atoms: O_2  and  C_3
REMARK    3  A    between atoms: C_6  and  C_27
REMARK    4  A    between atoms: C_8  and  N_9
REMARK    5  A    between atoms: N_12  and  C_13
REMARK    6  A    between atoms: C_13  and  C_14
REMARK    7  A    between atoms: C_14  and  C_16
REMARK    8  A    between atoms: C_14  and  O_26
REMARK                            x       y       z     vdW  Elec       q    Type
REMARK                         _______ _______ _______ _____ _____    ______ ____
ROOT
ATOM      1  N   UNL     1      -0.066  -2.777  -0.012  0.00  0.00    -0.266 N 
ATOM      2  C   UNL     1      -0.113  -4.121   0.083  0.00  0.00    +0.304 C 
ATOM      3  O   UNL     1      -1.186  -4.692   0.090  0.00  0.00    -0.253 OA
ATOM      4  N   UNL     1       1.029  -4.831   0.170  0.00  0.00    -0.296 N 
ATOM      5  H   UNL     1       0.789  -2.327  -0.100  0.00  0.00    +0.156 HD
ATOM      6  H   UNL     1       1.885  -4.376   0.164  0.00  0.00    +0.150 HD
ENDROOT
BRANCH   1  12
ATOM      7  C   UNL     1      -1.294  -0.765  -0.571  0.00  0.00    +0.141 A 
ATOM      8  C   UNL     1      -2.468  -0.026  -0.549  0.00  0.00    +0.049 A 
ATOM      9  C   UNL     1      -3.596  -0.535   0.058  0.00  0.00    +0.022 A 
ATOM     10  C   UNL     1      -3.560  -1.799   0.653  0.00  0.00    +0.054 A 
ATOM     11  C   UNL     1      -2.378  -2.544   0.632  0.00  0.00    +0.046 A 
ATOM     12  C   UNL     1      -1.251  -2.030   0.016  0.00  0.00    +0.078 A 
BRANCH   7  14
ATOM     13  C   UNL     1      -0.298   1.041  -1.751  0.00  0.00    +0.277 C 
ATOM     14  O   UNL     1      -0.185  -0.259  -1.170  0.00  0.00    -0.493 OA
ENDBRANCH   7  14
BRANCH  10  15
ATOM     15  C   UNL     1      -4.731  -2.328   1.284  0.00  0.00    +0.099 C 
ATOM     16  N   UNL     1      -5.660  -2.748   1.785  0.00  0.00    -0.191 NA
ENDBRANCH  10  15
ENDBRANCH   1  12
BRANCH   4  17
ATOM     17  C   UNL     1       0.977  -6.292   0.273  0.00  0.00    +0.141 C 
BRANCH  17  18
ATOM     18  C   UNL     1       2.400  -6.848   0.357  0.00  0.00    +0.162 C 
BRANCH  18  19
ATOM     19  C   UNL     1       2.353  -8.354   0.340  0.00  0.00    -0.017 A 
ATOM     20  C   UNL     1       2.040  -9.045   1.510  0.00  0.00    +0.007 A 
ATOM     21  C   UNL     1       1.989 -10.404   1.528  0.00  0.00    +0.009 A 
ATOM     22  C   UNL     1       2.255 -11.126   0.352  0.00  0.00    -0.018 A 
ATOM     23  C   UNL     1       2.212 -12.531   0.332  0.00  0.00    +0.008 A 
ATOM     24  C   UNL     1       2.474 -13.196  -0.826  0.00  0.00    +0.001 A 
ATOM     25  C   UNL     1       2.787 -12.505  -1.996  0.00  0.00    +0.001 A 
ATOM     26  C   UNL     1       2.838 -11.146  -2.014  0.00  0.00    +0.008 A 
ATOM     27  C   UNL     1       2.572 -10.424  -0.838  0.00  0.00    -0.018 A 
ATOM     28  C   UNL     1       2.610  -9.019  -0.819  0.00  0.00    +0.014 A 
ENDBRANCH  18  19
BRANCH  18  29
ATOM     29  O   UNL     1       3.013  -6.405   1.570  0.00  0.00    -0.386 OA
ATOM     30  H   UNL     1       2.550  -6.685   2.370  0.00  0.00    +0.210 HD
ENDBRANCH  18  29
ENDBRANCH  17  18
ENDBRANCH   4  17
TORSDOF 7
