REMARK  Name = ZINC58314615
REMARK  9 active torsions:
REMARK  status: ('A' for Active; 'I' for Inactive)
REMARK    1  A    between atoms: C_1  and  C_2
REMARK    2  A    between atoms: C_2  and  C_3
REMARK    3  A    between atoms: C_3  and  C_5
REMARK    4  A    between atoms: C_3  and  N_12
REMARK    5  A    between atoms: N_12  and  S_13
REMARK    6  A    between atoms: S_13  and  C_16
REMARK    7  A    between atoms: C_18  and  N_24
REMARK    8  A    between atoms: C_21  and  O_22
REMARK    9  A    between atoms: O_22  and  C_23
REMARK                            x       y       z     vdW  Elec       q    Type
REMARK                         _______ _______ _______ _____ _____    ______ ____
ROOT
ATOM      1  S   UNL     1       0.392   1.173   3.218  0.00  0.00    +0.062 S 
ATOM      2  O   UNL     1       0.323   2.289   2.341  0.00  0.00    -0.153 OA
ATOM      3  O   UNL     1      -0.507   1.003   4.305  0.00  0.00    -0.153 OA
ENDROOT
BRANCH   1   4
ATOM      4  C   UNL     1       2.016   1.170   3.903  0.00  0.00    +0.149 A 
ATOM      5  C   UNL     1       2.917   2.156   3.550  0.00  0.00    +0.065 A 
ATOM      6  C   UNL     1       4.191   2.154   4.086  0.00  0.00    +0.128 A 
ATOM      7  C   UNL     1       4.567   1.166   4.977  0.00  0.00    +0.036 A 
ATOM      8  C   UNL     1       3.670   0.178   5.333  0.00  0.00    +0.050 A 
ATOM      9  C   UNL     1       2.388   0.181   4.801  0.00  0.00    +0.146 A 
BRANCH   6  10
ATOM     10  N   UNL     1       5.154   3.212   3.706  0.00  0.00    +0.056 N 
ATOM     11  O   UNL     1       4.827   4.076   2.927  0.00  0.00    -0.126 OA
ATOM     12  O   UNL     1       6.269   3.211   4.175  0.00  0.00    -0.126 OA
ENDBRANCH   6  10
BRANCH   9  13
ATOM     13  O   UNL     1       1.502  -0.787   5.153  0.00  0.00    -0.493 OA
ATOM     14  C   UNL     1       1.918  -1.711   6.161  0.00  0.00    +0.277 C 
ENDBRANCH   9  13
ENDBRANCH   1   4
BRANCH   1  15
ATOM     15  N   UNL     1       0.256  -0.180   2.274  0.00  0.00    -0.182 NA
ATOM     16  H   UNL     1      -0.391  -0.867   2.502  0.00  0.00    +0.149 HD
BRANCH  15  17
ATOM     17  C   UNL     1       1.111  -0.341   1.096  0.00  0.00    +0.106 C 
BRANCH  17  18
ATOM     18  C   UNL     1       1.939  -1.591   1.243  0.00  0.00    -0.029 A 
ATOM     19  C   UNL     1       1.374  -2.736   1.773  0.00  0.00    +0.006 A 
ATOM     20  C   UNL     1       2.133  -3.883   1.907  0.00  0.00    +0.015 A 
ATOM     21  C   UNL     1       3.458  -3.886   1.512  0.00  0.00    +0.018 A 
ATOM     22  C   UNL     1       4.024  -2.740   0.982  0.00  0.00    +0.015 A 
ATOM     23  C   UNL     1       3.263  -1.595   0.843  0.00  0.00    +0.006 A 
ATOM     24 BR   UNL     1       4.498  -5.455   1.696  0.00  0.00    -0.050 Br
ENDBRANCH  17  18
BRANCH  17  26
ATOM     25  C   UNL     1      -0.490   0.874  -0.388  0.00  0.00    +0.006 C 
ATOM     26  C   UNL     1       0.239  -0.451  -0.156  0.00  0.00    +0.022 C 
ENDBRANCH  17  26
ENDBRANCH  15  17
ENDBRANCH   1  15
TORSDOF 7
