REMARK  Name = ZINC04843838
REMARK  5 active torsions:
REMARK  status: ('A' for Active; 'I' for Inactive)
REMARK    1  A    between atoms: C_1  and  C_2
REMARK    2  A    between atoms: C_2  and  C_24
REMARK    3  A    between atoms: C_11  and  C_12
REMARK    4  A    between atoms: C_12  and  C_14
REMARK    5  A    between atoms: C_17  and  N_20
REMARK                            x       y       z     vdW  Elec       q    Type
REMARK                         _______ _______ _______ _____ _____    ______ ____
ROOT
ATOM      1  C   UNL     1      -0.019   1.526   0.010  0.00  0.00    +0.031 C 
ATOM      2  C   UNL     1       0.002  -0.004   0.002  0.00  0.00    +0.030 C 
ATOM      3  C   UNL     1       0.729  -0.499  -1.248  0.00  0.00    +0.061 C 
ATOM      4  C   UNL     1       1.006  -1.976  -1.160  0.00  0.00    -0.036 A 
ATOM      5  C   UNL     1       1.209  -2.697  -2.322  0.00  0.00    +0.004 A 
ATOM      6  C   UNL     1       1.471  -4.054  -2.263  0.00  0.00    +0.000 A 
ATOM      7  C   UNL     1       1.535  -4.704  -1.043  0.00  0.00    +0.001 A 
ATOM      8  C   UNL     1       1.332  -3.999   0.125  0.00  0.00    +0.010 A 
ATOM      9  C   UNL     1       1.063  -2.631   0.070  0.00  0.00    -0.001 A 
ATOM     10  C   UNL     1       0.825  -1.871   1.319  0.00  0.00    +0.039 C 
ATOM     11  C   UNL     1       0.720  -2.499   2.539  0.00  0.00    +0.075 C 
ATOM     12  N   UNL     1       0.714  -0.494   1.195  0.00  0.00    -0.338 N 
ATOM     13  C   UNL     1      -1.433  -0.536   0.008  0.00  0.00    +0.031 C 
ATOM     14  H   UNL     1       1.085   0.112   1.855  0.00  0.00    +0.147 HD
ENDROOT
BRANCH  11  15
ATOM     15  C   UNL     1       0.494  -1.741   3.703  0.00  0.00    +0.188 C 
ATOM     16  O   UNL     1       0.391  -0.529   3.630  0.00  0.00    -0.287 OA
BRANCH  15  17
ATOM     17  C   UNL     1       0.381  -2.416   5.015  0.00  0.00    +0.022 A 
ATOM     18  C   UNL     1       0.504  -3.803   5.103  0.00  0.00    +0.014 A 
ATOM     19  C   UNL     1       0.398  -4.426   6.329  0.00  0.00    +0.033 A 
ATOM     20  C   UNL     1       0.170  -3.679   7.471  0.00  0.00    +0.126 A 
ATOM     21  C   UNL     1       0.047  -2.303   7.391  0.00  0.00    +0.033 A 
ATOM     22  C   UNL     1       0.157  -1.667   6.171  0.00  0.00    +0.014 A 
BRANCH  20  23
ATOM     23  N   UNL     1       0.057  -4.354   8.783  0.00  0.00    +0.056 N 
ATOM     24  O   UNL     1       0.164  -5.556   8.856  0.00  0.00    -0.126 OA
ATOM     25  O   UNL     1      -0.142  -3.703   9.782  0.00  0.00    -0.126 OA
ENDBRANCH  20  23
ENDBRANCH  15  17
ENDBRANCH  11  15
TORSDOF 3
