REMARK  Name = ZINC14544592
REMARK  4 active torsions:
REMARK  status: ('A' for Active; 'I' for Inactive)
REMARK    1  A    between atoms: C_4  and  N_7
REMARK    2  A    between atoms: N_7  and  S_8
REMARK    3  A    between atoms: S_8  and  C_11
REMARK    4  A    between atoms: C_24  and  C_27
REMARK                            x       y       z     vdW  Elec       q    Type
REMARK                         _______ _______ _______ _____ _____    ______ ____
ROOT
ATOM      1  C   UNL     1       3.888   2.876  -0.024  0.00  0.00    +0.109 A 
ATOM      2  C   UNL     1       4.136   1.565   0.340  0.00  0.00    +0.030 A 
ATOM      3  C   UNL     1       3.105   0.646   0.331  0.00  0.00    +0.025 A 
ATOM      4  C   UNL     1       1.826   1.040  -0.043  0.00  0.00    +0.031 A 
ATOM      5  C   UNL     1       1.574   2.352  -0.411  0.00  0.00    -0.018 A 
ATOM      6  C   UNL     1       2.618   3.267  -0.397  0.00  0.00    +0.034 A 
ATOM      7  C   UNL     1       0.215   2.821  -0.824  0.00  0.00    +0.049 C 
ATOM      8  C   UNL     1      -0.444   3.634   0.265  0.00  0.00    -0.023 C 
ATOM      9  C   UNL     1      -1.732   3.397   0.292  0.00  0.00    -0.030 C 
ATOM     10  C   UNL     1      -2.110   2.394  -0.781  0.00  0.00    +0.033 C 
ATOM     11  C   UNL     1      -0.769   1.662  -1.079  0.00  0.00    +0.029 C 
ATOM     12  C   UNL     1      -0.592   0.582  -0.014  0.00  0.00    +0.107 C 
ATOM     13  N   UNL     1       0.792   0.098  -0.045  0.00  0.00    -0.336 N 
ATOM     14  H   UNL     1       0.986  -0.853  -0.071  0.00  0.00    +0.147 HD
ENDROOT
BRANCH  12  15
ATOM     15  C   UNL     1      -0.891   1.165   1.343  0.00  0.00    -0.002 A 
ATOM     16  C   UNL     1       0.000   1.675   2.208  0.00  0.00    +0.089 A 
ATOM     17  N   UNL     1      -0.640   2.111   3.336  0.00  0.00    -0.360 N 
ATOM     18  H   UNL     1      -0.205   2.517   4.101  0.00  0.00    +0.165 HD
ATOM     19  C   UNL     1      -1.994   1.886   3.222  0.00  0.00    +0.047 A 
ATOM     20  C   UNL     1      -2.211   1.289   1.966  0.00  0.00    +0.005 A 
ATOM     21  C   UNL     1      -3.505   0.939   1.576  0.00  0.00    +0.010 A 
ATOM     22  C   UNL     1      -4.557   1.189   2.412  0.00  0.00    +0.001 A 
ATOM     23  C   UNL     1      -4.348   1.782   3.649  0.00  0.00    +0.002 A 
ATOM     24  C   UNL     1      -3.079   2.131   4.057  0.00  0.00    +0.026 A 
ENDBRANCH  12  15
BRANCH   1  25
ATOM     25  S   UNL     1       5.200   4.052  -0.011  0.00  0.00    +0.072 S 
ATOM     26  O   UNL     1       6.411   3.310  -0.024  0.00  0.00    -0.150 OA
ATOM     27  O   UNL     1       4.888   5.019  -1.006  0.00  0.00    -0.150 OA
BRANCH  25  28
ATOM     28  N   UNL     1       5.140   4.837   1.446  0.00  0.00    -0.216 N 
ATOM     29  H   UNL     1       4.960   5.789   1.477  0.00  0.00    +0.174 HD
BRANCH  28  33
ATOM     30  C   UNL     1       5.762   2.720   4.977  0.00  0.00    +0.000 A 
ATOM     31  C   UNL     1       6.831   3.011   4.150  0.00  0.00    +0.002 A 
ATOM     32  C   UNL     1       6.628   3.712   2.978  0.00  0.00    +0.024 A 
ATOM     33  C   UNL     1       5.349   4.126   2.630  0.00  0.00    +0.048 A 
ATOM     34  C   UNL     1       4.278   3.837   3.466  0.00  0.00    +0.024 A 
ATOM     35  C   UNL     1       4.487   3.130   4.634  0.00  0.00    +0.002 A 
ENDBRANCH  28  33
ENDBRANCH  25  28
ENDBRANCH   1  25
TORSDOF 4
