REMARK  Name = ZINC00928421
REMARK  6 active torsions:
REMARK  status: ('A' for Active; 'I' for Inactive)
REMARK    1  A    between atoms: C_1  and  C_2
REMARK    2  A    between atoms: C_7  and  O_29
REMARK    3  A    between atoms: C_14  and  S_15
REMARK    4  A    between atoms: S_15  and  C_16
REMARK    5  A    between atoms: C_16  and  C_17
REMARK    6  A    between atoms: O_29  and  C_30
REMARK                            x       y       z     vdW  Elec       q    Type
REMARK                         _______ _______ _______ _____ _____    ______ ____
ROOT
ATOM      1  C   UNL     1      -8.107  -0.037   3.152  0.00  0.00    +0.047 C 
ATOM      2  C   UNL     1      -6.672   0.376   2.949  0.00  0.00    -0.005 A 
ATOM      3  C   UNL     1      -6.003  -0.039   1.849  0.00  0.00    +0.017 A 
ATOM      4  C   UNL     1      -4.608   0.371   1.665  0.00  0.00    -0.000 A 
ATOM      5  C   UNL     1      -3.882  -0.038   0.541  0.00  0.00    +0.013 A 
ATOM      6  C   UNL     1      -2.585   0.361   0.388  0.00  0.00    +0.046 A 
ATOM      7  C   UNL     1      -1.974   1.163   1.348  0.00  0.00    +0.122 A 
ATOM      8  C   UNL     1      -2.677   1.577   2.467  0.00  0.00    +0.072 A 
ATOM      9  C   UNL     1      -3.998   1.186   2.636  0.00  0.00    +0.061 A 
ATOM     10  N   UNL     1      -4.723   1.585   3.745  0.00  0.00    -0.270 N 
ATOM     11  C   UNL     1      -6.033   1.195   3.909  0.00  0.00    +0.165 A 
ATOM     12  N   UNL     1      -6.450   1.727   5.043  0.00  0.00    -0.128 NA
ATOM     13  N   UNL     1      -5.501   2.407   5.581  0.00  0.00    -0.122 NA
ATOM     14  C   UNL     1      -4.423   2.355   4.831  0.00  0.00    +0.197 A 
ENDROOT
BRANCH   7  15
ATOM     15  O   UNL     1      -0.682   1.547   1.184  0.00  0.00    -0.495 OA
ATOM     16  C   UNL     1      -0.013   1.086   0.008  0.00  0.00    +0.277 C 
ENDBRANCH   7  15
BRANCH  14  17
ATOM     17  S   UNL     1      -2.878   3.135   5.165  0.00  0.00    -0.081 S 
BRANCH  17  18
ATOM     18  C   UNL     1      -3.267   3.941   6.738  0.00  0.00    +0.113 C 
BRANCH  18  19
ATOM     19  C   UNL     1      -2.056   4.691   7.230  0.00  0.00    -0.023 A 
ATOM     20  C   UNL     1      -1.994   6.043   7.140  0.00  0.00    +0.075 A 
ATOM     21  C   UNL     1      -0.857   6.736   7.608  0.00  0.00    +0.249 A 
ATOM     22  O   UNL     1      -0.824   7.951   7.521  0.00  0.00    -0.268 OA
ATOM     23  N   UNL     1       0.193   6.088   8.143  0.00  0.00    -0.322 N 
ATOM     24  H   UNL     1       0.984   6.611   8.461  0.00  0.00    +0.169 HD
ATOM     25  C   UNL     1       0.194   4.714   8.259  0.00  0.00    +0.049 A 
ATOM     26  C   UNL     1      -0.918   3.977   7.811  0.00  0.00    +0.003 A 
ATOM     27  C   UNL     1      -0.921   2.583   7.926  0.00  0.00    +0.010 A 
ATOM     28  C   UNL     1       0.157   1.946   8.472  0.00  0.00    +0.001 A 
ATOM     29  C   UNL     1       1.255   2.670   8.915  0.00  0.00    +0.002 A 
ATOM     30  C   UNL     1       1.280   4.044   8.812  0.00  0.00    +0.026 A 
ENDBRANCH  18  19
ENDBRANCH  17  18
ENDBRANCH  14  17
TORSDOF 4
