REMARK  Name = ZINC00674511
REMARK  7 active torsions:
REMARK  status: ('A' for Active; 'I' for Inactive)
REMARK    1  A    between atoms: C_9  and  O_12
REMARK    2  A    between atoms: O_12  and  C_13
REMARK    3  A    between atoms: C_13  and  C_14
REMARK    4  A    between atoms: N_16  and  N_17
REMARK    5  A    between atoms: C_18  and  C_20
REMARK    6  A    between atoms: C_23  and  N_26
REMARK    7  A    between atoms: C_27  and  C_29
REMARK                            x       y       z     vdW  Elec       q    Type
REMARK                         _______ _______ _______ _____ _____    ______ ____
ROOT
ATOM      1  N   UNL     1       3.005  11.678  -0.123  0.00  0.00    -0.230 N 
ATOM      2  C   UNL     1       4.053  12.509   0.045  0.00  0.00    +0.260 C 
ATOM      3  O   UNL     1       5.171  12.056   0.193  0.00  0.00    -0.269 OA
ATOM      4  H   UNL     1       2.113  12.040  -0.241  0.00  0.00    +0.173 HD
ENDROOT
BRANCH   2   5
ATOM      5  C   UNL     1       3.843  13.970   0.048  0.00  0.00    +0.038 A 
ATOM      6  C   UNL     1       2.559  14.493  -0.128  0.00  0.00    +0.015 A 
ATOM      7  C   UNL     1       2.366  15.857  -0.119  0.00  0.00    +0.024 A 
ATOM      8  C   UNL     1       3.448  16.713   0.054  0.00  0.00    +0.033 A 
ATOM      9  C   UNL     1       4.729  16.196   0.224  0.00  0.00    +0.024 A 
ATOM     10  C   UNL     1       4.928  14.834   0.221  0.00  0.00    +0.015 A 
BRANCH   8  11
ATOM     11  N   UNL     1       3.250  18.093   0.057  0.00  0.00    -0.285 N 
ATOM     12  C   UNL     1       4.197  18.912  -0.441  0.00  0.00    +0.220 C 
ATOM     13  O   UNL     1       5.179  18.445  -0.979  0.00  0.00    -0.275 OA
ATOM     14  H   UNL     1       2.429  18.464   0.418  0.00  0.00    +0.155 HD
BRANCH  12  15
ATOM     15  C   UNL     1       4.037  20.406  -0.331  0.00  0.00    +0.075 C 
ATOM     16  C   UNL     1       2.759  20.837  -1.054  0.00  0.00    +0.013 C 
ATOM     17  C   UNL     1       2.596  22.354  -0.941  0.00  0.00    +0.001 C 
ATOM     18  C   UNL     1       3.802  23.045  -1.581  0.00  0.00    +0.000 C 
ATOM     19  C   UNL     1       5.079  22.614  -0.858  0.00  0.00    +0.001 C 
ATOM     20  C   UNL     1       5.242  21.097  -0.970  0.00  0.00    +0.013 C 
ENDBRANCH  12  15
ENDBRANCH   8  11
ENDBRANCH   2   5
BRANCH   1  23
ATOM     21  C   UNL     1       2.157   9.460  -0.293  0.00  0.00    +0.267 C 
ATOM     22  O   UNL     1       1.042   9.913  -0.441  0.00  0.00    -0.271 OA
ATOM     23  N   UNL     1       3.205  10.291  -0.126  0.00  0.00    -0.231 N 
ATOM     24  H   UNL     1       4.097   9.930  -0.008  0.00  0.00    +0.173 HD
BRANCH  21  25
ATOM     25  C   UNL     1       2.372   7.969  -0.297  0.00  0.00    +0.326 C 
BRANCH  25  26
ATOM     26  O   UNL     1       1.120   7.308  -0.489  0.00  0.00    -0.482 OA
BRANCH  26  35
ATOM     27  C   UNL     1       0.074   1.080  -0.780  0.00  0.00    +0.001 A 
ATOM     28  C   UNL     1      -1.138   1.750  -0.942  0.00  0.00    +0.001 A 
ATOM     29  C   UNL     1      -1.196   3.109  -0.913  0.00  0.00    +0.010 A 
ATOM     30  C   UNL     1      -0.017   3.852  -0.729  0.00  0.00    -0.000 A 
ATOM     31  C   UNL     1       1.216   3.171  -0.570  0.00  0.00    -0.017 A 
ATOM     32  C   UNL     1       1.235   1.766  -0.599  0.00  0.00    +0.008 A 
ATOM     33  C   UNL     1       2.397   3.910  -0.385  0.00  0.00    +0.012 A 
ATOM     34  C   UNL     1       2.349   5.270  -0.362  0.00  0.00    +0.047 A 
ATOM     35  C   UNL     1       1.137   5.949  -0.518  0.00  0.00    +0.136 A 
ATOM     36  C   UNL     1      -0.039   5.256  -0.700  0.00  0.00    +0.067 A 
ATOM     37 BR   UNL     1      -1.670   6.189  -0.911  0.00  0.00    -0.046 Br
ENDBRANCH  26  35
ENDBRANCH  25  26
ENDBRANCH  21  25
ENDBRANCH   1  23
TORSDOF 7
