REMARK  Name = ZINC00709616
REMARK  7 active torsions:
REMARK  status: ('A' for Active; 'I' for Inactive)
REMARK    1  A    between atoms: C_1  and  O_2
REMARK    2  A    between atoms: O_2  and  C_3
REMARK    3  A    between atoms: C_5  and  C_12
REMARK    4  A    between atoms: C_7  and  O_10
REMARK    5  A    between atoms: C_8  and  O_9
REMARK    6  A    between atoms: O_10  and  C_11
REMARK    7  A    between atoms: C_17  and  C_22
REMARK                            x       y       z     vdW  Elec       q    Type
REMARK                         _______ _______ _______ _____ _____    ______ ____
ROOT
ATOM      1  C   UNL     1      -4.865   0.143   0.720  0.00  0.00    +0.136 C 
ATOM      2  C   UNL     1      -5.227   0.125   2.185  0.00  0.00    +0.036 C 
ATOM      3  C   UNL     1      -6.252  -0.539   2.739  0.00  0.00    +0.017 C 
ATOM      4  C   UNL     1      -6.510  -0.455   4.233  0.00  0.00    +0.059 C 
ATOM      5  C   UNL     1      -5.190  -0.285   4.983  0.00  0.00    +0.032 C 
ATOM      6  C   UNL     1      -4.531   1.004   4.480  0.00  0.00    +0.088 C 
ATOM      7  C   UNL     1      -4.361   0.905   2.994  0.00  0.00    +0.163 C 
ATOM      8  O   UNL     1      -3.450   1.512   2.465  0.00  0.00    -0.292 OA
ATOM      9  N   UNL     1      -7.135  -1.306   2.049  0.00  0.00    -0.316 N 
ATOM     10  C   UNL     1      -6.790  -2.246   1.085  0.00  0.00    +0.052 A 
ATOM     11  C   UNL     1      -7.077  -3.592   1.230  0.00  0.00    +0.025 A 
ATOM     12  C   UNL     1      -6.814  -4.458   0.182  0.00  0.00    +0.002 A 
ATOM     13  C   UNL     1      -6.269  -3.982  -0.997  0.00  0.00    +0.002 A 
ATOM     14  C   UNL     1      -5.962  -2.639  -1.134  0.00  0.00    +0.025 A 
ATOM     15  C   UNL     1      -6.207  -1.773  -0.081  0.00  0.00    +0.049 A 
ATOM     16  N   UNL     1      -5.871  -0.422  -0.153  0.00  0.00    -0.331 N 
ATOM     17  H   UNL     1      -8.078  -1.188   2.244  0.00  0.00    +0.152 HD
ATOM     18  H   UNL     1      -6.319   0.147  -0.798  0.00  0.00    +0.147 HD
ENDROOT
BRANCH   5  19
ATOM     19  C   UNL     1      -5.454  -0.180   6.463  0.00  0.00    -0.040 A 
ATOM     20  C   UNL     1      -6.240   0.845   6.953  0.00  0.00    +0.008 A 
ATOM     21  C   UNL     1      -6.489   0.943   8.309  0.00  0.00    +0.050 A 
ATOM     22  C   UNL     1      -5.941   0.018   9.183  0.00  0.00    +0.166 A 
ATOM     23  C   UNL     1      -5.144  -1.013   8.690  0.00  0.00    +0.166 A 
ATOM     24  C   UNL     1      -4.903  -1.107   7.329  0.00  0.00    +0.053 A 
ATOM     25  O   UNL     1      -4.728  -1.782   9.738  0.00  0.00    -0.453 OA
ATOM     26  C   UNL     1      -5.609  -1.454  10.829  0.00  0.00    +0.466 C 
ATOM     27  O   UNL     1      -6.024  -0.106  10.540  0.00  0.00    -0.453 OA
ENDBRANCH   5  19
BRANCH   1  30
ATOM     28  C   UNL     1      -2.366  -2.692   0.672  0.00  0.00    +0.165 A 
ATOM     29  C   UNL     1      -3.542  -1.977   0.841  0.00  0.00    +0.055 A 
ATOM     30  C   UNL     1      -3.584  -0.630   0.535  0.00  0.00    -0.016 A 
ATOM     31  C   UNL     1      -2.455   0.011   0.061  0.00  0.00    +0.055 A 
ATOM     32  C   UNL     1      -1.274  -0.697  -0.110  0.00  0.00    +0.165 A 
ATOM     33  C   UNL     1      -1.226  -2.050   0.201  0.00  0.00    +0.201 A 
BRANCH  28  35
ATOM     34  C   UNL     1      -3.532  -4.610   1.458  0.00  0.00    +0.277 C 
ATOM     35  O   UNL     1      -2.325  -4.018   0.974  0.00  0.00    -0.491 OA
ENDBRANCH  28  35
BRANCH  33  36
ATOM     36  O   UNL     1      -0.068  -2.747   0.041  0.00  0.00    -0.501 OA
ATOM     37  H   UNL     1       0.034  -3.144  -0.835  0.00  0.00    +0.292 HD
ENDBRANCH  33  36
BRANCH  32  38
ATOM     38  O   UNL     1      -0.164  -0.066  -0.577  0.00  0.00    -0.491 OA
ATOM     39  C   UNL     1      -0.249   1.349  -0.755  0.00  0.00    +0.277 C 
ENDBRANCH  32  38
ENDBRANCH   1  30
TORSDOF 5
