REMARK  Name = ZINC08845163
REMARK  11 active torsions:
REMARK  status: ('A' for Active; 'I' for Inactive)
REMARK    1  A    between atoms: C_1  and  C_2
REMARK    2  A    between atoms: C_2  and  O_3
REMARK    3  A    between atoms: O_3  and  C_4
REMARK    4  A    between atoms: C_6  and  C_11
REMARK    5  A    between atoms: C_9  and  O_10
REMARK    6  A    between atoms: C_14  and  C_30
REMARK    7  A    between atoms: N_21  and  C_22
REMARK    8  A    between atoms: C_22  and  C_23
REMARK    9  A    between atoms: C_32  and  C_38
REMARK   10  A    between atoms: C_34  and  C_37
REMARK   11  A    between atoms: C_35  and  O_36
REMARK                            x       y       z     vdW  Elec       q    Type
REMARK                         _______ _______ _______ _____ _____    ______ ____
ROOT
ATOM      1  C   UNL     1       0.028  -4.976   0.028  0.00  0.00    +0.142 C 
ATOM      2  C   UNL     1       0.829  -5.323   1.253  0.00  0.00    +0.035 A 
ATOM      3  C   UNL     1       1.513  -4.864   2.384  0.00  0.00    +0.102 A 
ATOM      4  N   UNL     1       1.989  -5.921   3.013  0.00  0.00    -0.173 NA
ATOM      5  N   UNL     1       1.674  -7.001   2.391  0.00  0.00    -0.272 N 
ATOM      6  H   UNL     1       1.917  -7.897   2.672  0.00  0.00    +0.189 HD
ATOM      7  C   UNL     1       0.945  -6.699   1.276  0.00  0.00    +0.126 A 
ATOM      8  C   UNL     1       0.245  -7.246   0.108  0.00  0.00    +0.266 C 
ATOM      9  O   UNL     1       0.161  -8.429  -0.161  0.00  0.00    -0.268 OA
ATOM     10  N   UNL     1      -0.293  -6.252  -0.624  0.00  0.00    -0.281 N 
ENDROOT
BRANCH   3  11
ATOM     11  C   UNL     1       1.673  -3.448   2.800  0.00  0.00    +0.044 A 
ATOM     12  C   UNL     1       1.003  -2.438   2.115  0.00  0.00    +0.017 A 
ATOM     13  C   UNL     1       1.155  -1.123   2.505  0.00  0.00    -0.049 A 
ATOM     14  C   UNL     1       1.972  -0.804   3.575  0.00  0.00    +0.010 A 
ATOM     15  C   UNL     1       2.642  -1.799   4.261  0.00  0.00    -0.008 A 
ATOM     16  C   UNL     1       2.493  -3.124   3.884  0.00  0.00    +0.129 A 
ATOM     17  C   UNL     1       3.530  -1.443   5.426  0.00  0.00    +0.047 C 
ATOM     18  C   UNL     1       0.429  -0.031   1.762  0.00  0.00    +0.044 C 
BRANCH  16  19
ATOM     19  O   UNL     1       3.146  -4.103   4.562  0.00  0.00    -0.506 OA
ATOM     20  H   UNL     1       4.025  -4.305   4.212  0.00  0.00    +0.292 HD
ENDBRANCH  16  19
ENDBRANCH   3  11
BRANCH   1  23
ATOM     21  C   UNL     1       2.749  -3.815  -2.321  0.00  0.00    +0.162 A 
ATOM     22  C   UNL     1       1.998  -4.610  -1.469  0.00  0.00    +0.055 A 
ATOM     23  C   UNL     1       0.843  -4.111  -0.898  0.00  0.00    -0.019 A 
ATOM     24  C   UNL     1       0.433  -2.819  -1.174  0.00  0.00    +0.009 A 
ATOM     25  C   UNL     1       1.178  -2.022  -2.023  0.00  0.00    +0.049 A 
ATOM     26  C   UNL     1       2.340  -2.514  -2.594  0.00  0.00    +0.158 A 
BRANCH  26  27
ATOM     27  O   UNL     1       3.077  -1.728  -3.425  0.00  0.00    -0.503 OA
ATOM     28  H   UNL     1       2.822  -1.793  -4.356  0.00  0.00    +0.292 HD
ENDBRANCH  26  27
BRANCH  21  29
ATOM     29  O   UNL     1       3.887  -4.305  -2.883  0.00  0.00    -0.489 OA
BRANCH  29  31
ATOM     30  C   UNL     1       5.452  -6.069  -3.407  0.00  0.00    +0.048 C 
ATOM     31  C   UNL     1       4.216  -5.667  -2.602  0.00  0.00    +0.226 C 
ENDBRANCH  29  31
ENDBRANCH  21  29
ENDBRANCH   1  23
BRANCH  10  32
ATOM     32  C   UNL     1      -1.065  -6.414  -1.859  0.00  0.00    +0.145 C 
BRANCH  32  33
ATOM     33  C   UNL     1      -0.133  -6.382  -3.042  0.00  0.00    -0.012 A 
ATOM     34  C   UNL     1       0.006  -5.222  -3.781  0.00  0.00    +0.006 A 
ATOM     35  C   UNL     1       0.862  -5.193  -4.867  0.00  0.00    +0.000 A 
ATOM     36  C   UNL     1       1.578  -6.323  -5.214  0.00  0.00    +0.001 A 
ATOM     37  C   UNL     1       1.440  -7.483  -4.476  0.00  0.00    +0.020 A 
ATOM     38  C   UNL     1       0.588  -7.512  -3.386  0.00  0.00    +0.046 A 
ATOM     39 CL   UNL     1       0.418  -8.967  -2.454  0.00  0.00    -0.083 Cl
ENDBRANCH  32  33
ENDBRANCH  10  32
TORSDOF 8
