REMARK  Name = ZINC58312171
REMARK  6 active torsions:
REMARK  status: ('A' for Active; 'I' for Inactive)
REMARK    1  A    between atoms: C_3  and  C_9
REMARK    2  A    between atoms: C_12  and  C_14
REMARK    3  A    between atoms: C_14  and  C_15
REMARK    4  A    between atoms: C_15  and  C_16
REMARK    5  A    between atoms: C_21  and  N_24
REMARK    6  A    between atoms: C_28  and  C_30
REMARK                            x       y       z     vdW  Elec       q    Type
REMARK                         _______ _______ _______ _____ _____    ______ ____
ROOT
ATOM      1  C   UNL     1       8.260   4.115   2.941  0.00  0.00    +0.216 C 
ATOM      2  O   UNL     1       9.206   3.485   2.518  0.00  0.00    -0.276 OA
ATOM      3  N   UNL     1       8.415   4.936   3.998  0.00  0.00    -0.302 N 
ATOM      4  C   UNL     1       7.278   5.702   4.525  0.00  0.00    +0.106 C 
ATOM      5  C   UNL     1       7.147   5.422   6.026  0.00  0.00    +0.004 C 
ATOM      6  C   UNL     1       8.480   5.723   6.715  0.00  0.00    -0.065 C 
ATOM      7  C   UNL     1       9.568   4.809   6.146  0.00  0.00    +0.004 C 
ATOM      8  C   UNL     1       9.725   5.078   4.650  0.00  0.00    +0.106 C 
ENDROOT
BRANCH   6   9
ATOM      9  N   UNL     1       8.349   5.487   8.159  0.00  0.00    +0.389 N 
ATOM     10  C   UNL     1       7.315   6.384   8.717  0.00  0.00    -0.077 C 
ATOM     11  C   UNL     1       7.841   6.768  10.123  0.00  0.00    -0.020 C 
ATOM     12  C   UNL     1       9.367   6.887   9.864  0.00  0.00    -0.008 C 
ATOM     13  C   UNL     1       9.631   5.776   8.827  0.00  0.00    +0.019 C 
ATOM     14  H   UNL     1       8.088   4.527   8.324  0.00  0.00    -0.080 HD
BRANCH  13  15
ATOM     15  C   UNL     1      10.138   4.537   9.521  0.00  0.00    +0.197 C 
ATOM     16  O   UNL     1       9.498   3.509   9.469  0.00  0.00    -0.278 OA
ATOM     17  N   UNL     1      11.302   4.574  10.199  0.00  0.00    -0.331 N 
ATOM     18  H   UNL     1      11.813   5.396  10.241  0.00  0.00    +0.145 HD
ATOM     19  H   UNL     1      11.628   3.777  10.646  0.00  0.00    +0.145 HD
ENDBRANCH  13  15
ENDBRANCH   6   9
BRANCH   1  20
ATOM     20  C   UNL     1       6.910   3.981   2.283  0.00  0.00    +0.105 C 
BRANCH  20  21
ATOM     21  C   UNL     1       7.007   2.996   1.117  0.00  0.00    +0.105 C 
BRANCH  21  25
ATOM     22  C   UNL     1       3.656   2.167  -0.022  0.00  0.00    +0.158 A 
ATOM     23  C   UNL     1       3.983   3.190  -0.851  0.00  0.00    +0.161 A 
ATOM     24  N   UNL     1       5.221   3.593  -0.527  0.00  0.00    -0.221 NA
ATOM     25  C   UNL     1       5.658   2.861   0.460  0.00  0.00    +0.197 A 
ATOM     26  O   UNL     1       4.712   1.974   0.798  0.00  0.00    -0.440 OA
BRANCH  22  29
ATOM     27  C   UNL     1      -0.017   1.381   0.010  0.00  0.00    +0.039 A 
ATOM     28  C   UNL     1       1.166   2.091   0.002  0.00  0.00    +0.017 A 
ATOM     29  C   UNL     1       2.385   1.411  -0.013  0.00  0.00    +0.054 A 
ATOM     30  C   UNL     1       2.399   0.013  -0.021  0.00  0.00    +0.137 A 
ATOM     31  C   UNL     1       1.208  -0.686  -0.013  0.00  0.00    +0.077 A 
ATOM     32  C   UNL     1       0.002  -0.004   0.002  0.00  0.00    +0.126 A 
ATOM     33  F   UNL     1      -1.160  -0.693   0.010  0.00  0.00    -0.205 F 
ATOM     34  F   UNL     1       3.575  -0.652  -0.036  0.00  0.00    -0.205 F 
ENDBRANCH  22  29
ENDBRANCH  21  25
ENDBRANCH  20  21
ENDBRANCH   1  20
TORSDOF 6
