REMARK  Name = ZINC38701938
REMARK  12 active torsions:
REMARK  status: ('A' for Active; 'I' for Inactive)
REMARK    1  A    between atoms: C_1  and  C_2
REMARK    2  A    between atoms: C_2  and  C_3
REMARK    3  A    between atoms: C_3  and  C_4
REMARK    4  A    between atoms: C_4  and  O_5
REMARK    5  A    between atoms: O_5  and  C_6
REMARK    6  A    between atoms: C_9  and  C_14
REMARK    7  A    between atoms: C_11  and  O_12
REMARK    8  A    between atoms: O_12  and  C_13
REMARK    9  A    between atoms: C_17  and  C_33
REMARK   10  A    between atoms: N_24  and  C_25
REMARK   11  A    between atoms: C_35  and  C_40
REMARK   12  A    between atoms: C_38  and  O_39
REMARK                            x       y       z     vdW  Elec       q    Type
REMARK                         _______ _______ _______ _____ _____    ______ ____
ROOT
ATOM      1  C   UNL     1       1.823  -7.887  -2.946  0.00  0.00    +0.142 C 
ATOM      2  C   UNL     1       3.001  -8.514  -2.251  0.00  0.00    +0.035 A 
ATOM      3  C   UNL     1       4.391  -8.571  -2.105  0.00  0.00    +0.102 A 
ATOM      4  N   UNL     1       4.654  -9.481  -1.188  0.00  0.00    -0.173 NA
ATOM      5  N   UNL     1       3.569 -10.003  -0.739  0.00  0.00    -0.272 N 
ATOM      6  H   UNL     1       3.522 -10.693  -0.059  0.00  0.00    +0.189 HD
ATOM      7  C   UNL     1       2.491  -9.442  -1.363  0.00  0.00    +0.126 A 
ATOM      8  C   UNL     1       1.027  -9.432  -1.467  0.00  0.00    +0.266 C 
ATOM      9  O   UNL     1       0.280 -10.137  -0.816  0.00  0.00    -0.268 OA
ATOM     10  N   UNL     1       0.628  -8.531  -2.385  0.00  0.00    -0.280 N 
ENDROOT
BRANCH  10  11
ATOM     11  C   UNL     1      -0.758  -8.242  -2.761  0.00  0.00    +0.100 C 
ATOM     12  C   UNL     1      -1.547  -7.786  -1.522  0.00  0.00    +0.047 C 
ATOM     13  C   UNL     1      -3.063  -7.789  -1.832  0.00  0.00    +0.168 C 
ATOM     14  S   UNL     1      -3.210  -9.091  -3.122  0.00  0.00    -0.029 S 
ATOM     15  O   UNL     1      -3.904 -10.205  -2.578  0.00  0.00    -0.174 OA
ATOM     16  O   UNL     1      -3.675  -8.498  -4.327  0.00  0.00    -0.174 OA
ATOM     17  C   UNL     1      -1.431  -9.530  -3.316  0.00  0.00    +0.188 C 
ENDBRANCH  10  11
BRANCH   3  18
ATOM     18  C   UNL     1       5.386  -7.758  -2.847  0.00  0.00    +0.044 A 
ATOM     19  C   UNL     1       5.263  -7.587  -4.224  0.00  0.00    +0.017 A 
ATOM     20  C   UNL     1       6.191  -6.830  -4.910  0.00  0.00    -0.050 A 
ATOM     21  C   UNL     1       7.245  -6.240  -4.235  0.00  0.00    +0.007 A 
ATOM     22  C   UNL     1       7.377  -6.404  -2.869  0.00  0.00    +0.046 A 
ATOM     23  C   UNL     1       6.449  -7.157  -2.167  0.00  0.00    +0.126 A 
ATOM     24  C   UNL     1       6.056  -6.646  -6.400  0.00  0.00    +0.044 C 
BRANCH  23  25
ATOM     25  O   UNL     1       6.574  -7.314  -0.824  0.00  0.00    -0.506 OA
ATOM     26  H   UNL     1       7.165  -8.034  -0.565  0.00  0.00    +0.292 HD
ENDBRANCH  23  25
ENDBRANCH   3  18
BRANCH   1  30
ATOM     27  C   UNL     1       1.726  -3.683  -2.171  0.00  0.00    +0.162 A 
ATOM     28  C   UNL     1       1.424  -4.583  -1.162  0.00  0.00    +0.050 A 
ATOM     29  C   UNL     1       1.457  -5.942  -1.416  0.00  0.00    +0.009 A 
ATOM     30  C   UNL     1       1.789  -6.405  -2.675  0.00  0.00    -0.019 A 
ATOM     31  C   UNL     1       2.091  -5.512  -3.686  0.00  0.00    +0.055 A 
ATOM     32  C   UNL     1       2.055  -4.149  -3.440  0.00  0.00    +0.162 A 
BRANCH  32  33
ATOM     33  O   UNL     1       2.345  -3.269  -4.435  0.00  0.00    -0.491 OA
ATOM     34  C   UNL     1       2.675  -3.819  -5.712  0.00  0.00    +0.277 C 
ENDBRANCH  32  33
BRANCH  27  35
ATOM     35  O   UNL     1       1.694  -2.346  -1.923  0.00  0.00    -0.488 OA
BRANCH  35  36
ATOM     36  C   UNL     1       1.348  -1.940  -0.598  0.00  0.00    +0.229 C 
BRANCH  36  37
ATOM     37  C   UNL     1       1.365  -0.412  -0.511  0.00  0.00    +0.041 C 
BRANCH  37  39
ATOM     38  C   UNL     1       1.011   1.550   0.994  0.00  0.00    +0.004 C 
ATOM     39  C   UNL     1       0.994   0.022   0.908  0.00  0.00    -0.000 C 
ENDBRANCH  37  39
ENDBRANCH  36  37
ENDBRANCH  35  36
ENDBRANCH  27  35
ENDBRANCH   1  30
TORSDOF 9
