REMARK  Name = ZINC00635860
REMARK  4 active torsions:
REMARK  status: ('A' for Active; 'I' for Inactive)
REMARK    1  A    between atoms: C_1  and  O_2
REMARK    2  A    between atoms: O_2  and  C_3
REMARK    3  A    between atoms: C_7  and  C_9
REMARK    4  A    between atoms: C_26  and  C_28
REMARK                            x       y       z     vdW  Elec       q    Type
REMARK                         _______ _______ _______ _____ _____    ______ ____
ROOT
ATOM      1  C   UNL     1       1.325  -4.106  -2.289  0.00  0.00    +0.234 C 
ATOM      2  C   UNL     1       0.246  -4.592  -3.211  0.00  0.00    +0.027 C 
ATOM      3  C   UNL     1       0.482  -4.737  -4.530  0.00  0.00    +0.083 C 
ATOM      4  C   UNL     1       1.845  -4.409  -5.021  0.00  0.00    +0.042 A 
ATOM      5  C   UNL     1       2.102  -4.210  -6.371  0.00  0.00    +0.013 A 
ATOM      6  C   UNL     1       3.385  -3.905  -6.784  0.00  0.00    +0.001 A 
ATOM      7  C   UNL     1       4.407  -3.797  -5.858  0.00  0.00    +0.004 A 
ATOM      8  C   UNL     1       4.160  -3.995  -4.512  0.00  0.00    +0.046 A 
ATOM      9  C   UNL     1       2.880  -4.302  -4.084  0.00  0.00    +0.131 A 
ATOM     10  O   UNL     1       2.608  -4.506  -2.774  0.00  0.00    -0.479 OA
ATOM     11  N   UNL     1      -0.482  -5.168  -5.380  0.00  0.00    -0.213 NA
ATOM     12  C   UNL     1      -1.702  -5.486  -5.016  0.00  0.00    +0.237 C 
ATOM     13  N   UNL     1      -2.768  -5.928  -5.719  0.00  0.00    -0.205 NA
ATOM     14  C   UNL     1      -3.788  -6.117  -4.928  0.00  0.00    +0.203 C 
ATOM     15  N   UNL     1      -3.435  -5.804  -3.650  0.00  0.00    -0.251 N 
ATOM     16  N   UNL     1      -2.100  -5.396  -3.697  0.00  0.00    -0.208 N 
ATOM     17  C   UNL     1      -1.134  -4.934  -2.693  0.00  0.00    +0.159 C 
ATOM     18  H   UNL     1      -4.000  -5.854  -2.863  0.00  0.00    +0.171 HD
ENDROOT
BRANCH  17  19
ATOM     19  C   UNL     1      -0.991  -6.009  -1.647  0.00  0.00    -0.021 A 
ATOM     20  C   UNL     1      -0.822  -7.327  -2.030  0.00  0.00    +0.008 A 
ATOM     21  C   UNL     1      -0.691  -8.314  -1.071  0.00  0.00    +0.038 A 
ATOM     22  C   UNL     1      -0.728  -7.983   0.273  0.00  0.00    +0.123 A 
ATOM     23  C   UNL     1      -0.897  -6.663   0.654  0.00  0.00    +0.038 A 
ATOM     24  C   UNL     1      -1.023  -5.677  -0.306  0.00  0.00    +0.008 A 
ATOM     25  F   UNL     1      -0.600  -8.947   1.210  0.00  0.00    -0.205 F 
ENDBRANCH  17  19
BRANCH   1  30
ATOM     26  C   UNL     1       0.606  -0.607  -1.056  0.00  0.00    +0.120 A 
ATOM     27  C   UNL     1       1.173   0.161  -2.063  0.00  0.00    +0.045 A 
ATOM     28  C   UNL     1       1.786  -0.455  -3.136  0.00  0.00    +0.004 A 
ATOM     29  C   UNL     1       1.836  -1.835  -3.208  0.00  0.00    +0.008 A 
ATOM     30  C   UNL     1       1.271  -2.602  -2.207  0.00  0.00    +0.000 A 
ATOM     31  C   UNL     1       0.661  -1.991  -1.128  0.00  0.00    +0.053 A 
BRANCH  26  33
ATOM     32  C   UNL     1      -0.017   1.425   0.010  0.00  0.00    +0.277 C 
ATOM     33  O   UNL     1       0.002  -0.004   0.002  0.00  0.00    -0.495 OA
ENDBRANCH  26  33
ENDBRANCH   1  30
TORSDOF 3
