REMARK  Name = ZINC34946980
REMARK  8 active torsions:
REMARK  status: ('A' for Active; 'I' for Inactive)
REMARK    1  A    between atoms: C_1  and  C_2
REMARK    2  A    between atoms: C_2  and  N_3
REMARK    3  A    between atoms: C_11  and  C_13
REMARK    4  A    between atoms: C_14  and  C_16
REMARK    5  A    between atoms: C_16  and  C_18
REMARK    6  A    between atoms: C_16  and  N_29
REMARK    7  A    between atoms: C_18  and  C_19
REMARK    8  A    between atoms: C_30  and  C_32
REMARK                            x       y       z     vdW  Elec       q    Type
REMARK                         _______ _______ _______ _____ _____    ______ ____
ROOT
ATOM      1  C   UNL     1      -7.503  -2.590   1.631  0.00  0.00    +0.163 C 
ENDROOT
BRANCH   1  12
ATOM      2  N   UNL     1      -1.372  -0.511   0.014  0.00  0.00    -0.299 N 
ATOM      3  C   UNL     1      -1.601  -1.839   0.007  0.00  0.00    +0.303 C 
ATOM      4  O   UNL     1      -0.671  -2.616  -0.099  0.00  0.00    -0.253 OA
ATOM      5  N   UNL     1      -2.860  -2.307   0.119  0.00  0.00    -0.280 N 
ATOM      6  C   UNL     1      -4.003  -1.383   0.130  0.00  0.00    +0.128 C 
ATOM      7  C   UNL     1      -4.827  -1.639   1.398  0.00  0.00    +0.127 C 
ATOM      8  N   UNL     1      -5.081  -3.082   1.510  0.00  0.00    -0.297 N 
ATOM      9  C   UNL     1      -3.938  -4.006   1.498  0.00  0.00    +0.130 C 
ATOM     10  C   UNL     1      -3.115  -3.751   0.225  0.00  0.00    +0.092 C 
ATOM     11  C   UNL     1      -3.897  -4.225  -1.001  0.00  0.00    +0.030 C 
ATOM     12  C   UNL     1      -6.340  -3.550   1.621  0.00  0.00    +0.236 C 
ATOM     13  O   UNL     1      -6.538  -4.743   1.712  0.00  0.00    -0.274 OA
ATOM     14  H   UNL     1      -2.118   0.109   0.025  0.00  0.00    +0.150 HD
BRANCH   2  16
ATOM     15  C   UNL     1      -0.018   1.526   0.015  0.00  0.00    +0.024 C 
ATOM     16  C   UNL     1       0.002  -0.004   0.005  0.00  0.00    +0.102 C 
ENDBRANCH   2  16
ENDBRANCH   1  12
BRANCH   1  17
ATOM     17  N   UNL     1      -8.671  -3.246   2.224  0.00  0.00    -0.303 N 
ATOM     18  C   UNL     1      -9.176  -4.362   1.661  0.00  0.00    +0.217 C 
ATOM     19  O   UNL     1      -8.662  -4.823   0.664  0.00  0.00    -0.275 OA
ATOM     20  H   UNL     1      -9.082  -2.876   3.021  0.00  0.00    +0.149 HD
BRANCH  18  21
ATOM     21  C   UNL     1     -10.378  -5.036   2.270  0.00  0.00    +0.075 C 
ATOM     22  C   UNL     1     -10.042  -5.532   3.692  0.00  0.00    +0.013 C 
ATOM     23  C   UNL     1     -10.799  -6.877   3.813  0.00  0.00    +0.001 C 
ATOM     24  C   UNL     1     -10.638  -7.489   2.400  0.00  0.00    +0.001 C 
ATOM     25  C   UNL     1     -10.757  -6.280   1.449  0.00  0.00    +0.013 C 
ENDBRANCH  18  21
ENDBRANCH   1  17
BRANCH   1  26
ATOM     26  C   UNL     1      -7.827  -2.167   0.198  0.00  0.00    +0.069 C 
BRANCH  26  27
ATOM     27  C   UNL     1      -8.907  -1.115   0.217  0.00  0.00    -0.020 A 
ATOM     28  C   UNL     1     -10.226  -1.323   0.081  0.00  0.00    +0.087 A 
ATOM     29  N   UNL     1     -10.896  -0.132   0.150  0.00  0.00    -0.360 N 
ATOM     30  H   UNL     1     -11.857  -0.028   0.079  0.00  0.00    +0.165 HD
ATOM     31  C   UNL     1     -10.000   0.898   0.337  0.00  0.00    +0.047 A 
ATOM     32  C   UNL     1      -8.716   0.326   0.393  0.00  0.00    +0.003 A 
ATOM     33  C   UNL     1      -7.598   1.141   0.582  0.00  0.00    +0.010 A 
ATOM     34  C   UNL     1      -7.759   2.492   0.716  0.00  0.00    +0.001 A 
ATOM     35  C   UNL     1      -9.024   3.060   0.666  0.00  0.00    +0.002 A 
ATOM     36  C   UNL     1     -10.139   2.275   0.470  0.00  0.00    +0.026 A 
ENDBRANCH  26  27
ENDBRANCH   1  26
TORSDOF 6
