REMARK  Name = ZINC22064851
REMARK  14 active torsions:
REMARK  status: ('A' for Active; 'I' for Inactive)
REMARK    1  A    between atoms: C_4  and  O_10
REMARK    2  A    between atoms: C_5  and  N_7
REMARK    3  A    between atoms: O_10  and  C_11
REMARK    4  A    between atoms: C_13  and  O_42
REMARK    5  A    between atoms: C_15  and  O_41
REMARK    6  A    between atoms: C_17  and  O_24
REMARK    7  A    between atoms: C_19  and  C_22
REMARK    8  A    between atoms: C_22  and  O_23
REMARK    9  A    between atoms: O_24  and  C_25
REMARK   10  A    between atoms: C_27  and  O_40
REMARK   11  A    between atoms: C_29  and  O_39
REMARK   12  A    between atoms: C_31  and  O_38
REMARK   13  A    between atoms: C_33  and  C_36
REMARK   14  A    between atoms: C_36  and  O_37
REMARK                            x       y       z     vdW  Elec       q    Type
REMARK                         _______ _______ _______ _____ _____    ______ ____
ROOT
ATOM      1  C   UNL     1      -2.166  -5.158   3.700  0.00  0.00    +0.339 C 
ATOM      2  C   UNL     1      -2.178  -3.867   4.522  0.00  0.00    +0.214 C 
ATOM      3  C   UNL     1      -3.155  -2.874   3.885  0.00  0.00    +0.180 C 
ATOM      4  C   UNL     1      -2.743  -2.632   2.429  0.00  0.00    +0.184 C 
ATOM      5  C   UNL     1      -2.709  -3.971   1.688  0.00  0.00    +0.179 C 
ATOM      6  O   UNL     1      -1.805  -4.858   2.350  0.00  0.00    -0.331 OA
ENDROOT
BRANCH   3   7
ATOM      7  O   UNL     1      -4.478  -3.413   3.924  0.00  0.00    -0.386 OA
ATOM      8  H   UNL     1      -5.319  -2.837   3.510  0.00  0.00    +0.210 HD
ENDBRANCH   3   7
BRANCH   2   9
ATOM      9  O   UNL     1      -2.592  -4.156   5.859  0.00  0.00    -0.383 OA
ATOM     10  H   UNL     1      -2.662  -3.346   6.600  0.00  0.00    +0.210 HD
ENDBRANCH   2   9
BRANCH   1  11
ATOM     11  O   UNL     1      -3.465  -5.751   3.725  0.00  0.00    -0.459 OA
BRANCH  11  15
ATOM     12  C   UNL     1      -3.813  -9.565   2.192  0.00  0.00    +0.002 A 
ATOM     13  C   UNL     1      -2.584  -8.933   2.197  0.00  0.00    +0.004 A 
ATOM     14  C   UNL     1      -2.465  -7.656   2.710  0.00  0.00    +0.048 A 
ATOM     15  C   UNL     1      -3.580  -7.008   3.220  0.00  0.00    +0.154 A 
ATOM     16  C   UNL     1      -4.811  -7.646   3.218  0.00  0.00    +0.168 A 
ATOM     17  C   UNL     1      -4.926  -8.921   2.699  0.00  0.00    +0.036 A 
BRANCH  16  18
ATOM     18  N   UNL     1      -6.003  -6.960   3.767  0.00  0.00    +0.060 N 
ATOM     19  O   UNL     1      -7.083  -7.521   3.765  0.00  0.00    -0.126 OA
ATOM     20  O   UNL     1      -5.902  -5.833   4.220  0.00  0.00    -0.126 OA
ENDBRANCH  16  18
ENDBRANCH  11  15
ENDBRANCH   1  11
BRANCH   5  21
ATOM     21  C   UNL     1      -2.241  -3.745   0.249  0.00  0.00    +0.190 C 
BRANCH  21  22
ATOM     22  O   UNL     1      -2.321  -4.974  -0.476  0.00  0.00    -0.392 OA
ATOM     23  H   UNL     1      -2.023  -5.009  -1.535  0.00  0.00    +0.210 HD
ENDBRANCH  21  22
ENDBRANCH   5  21
BRANCH   4  24
ATOM     24  O   UNL     1      -1.446  -2.033   2.393  0.00  0.00    -0.340 OA
BRANCH  24  25
ATOM     25  C   UNL     1      -1.465  -0.604   2.413  0.00  0.00    +0.282 C 
ATOM     26  C   UNL     1      -0.031  -0.076   2.495  0.00  0.00    +0.201 C 
ATOM     27  C   UNL     1       0.740  -0.513   1.244  0.00  0.00    +0.179 C 
ATOM     28  C   UNL     1       0.002  -0.004   0.002  0.00  0.00    +0.177 C 
ATOM     29  C   UNL     1      -1.434  -0.535   0.016  0.00  0.00    +0.178 C 
ATOM     30  O   UNL     1      -2.083  -0.119   1.219  0.00  0.00    -0.341 OA
BRANCH  28  31
ATOM     31  O   UNL     1      -0.017   1.425   0.010  0.00  0.00    -0.386 OA
ATOM     32  H   UNL     1      -0.507   1.973  -0.809  0.00  0.00    +0.210 HD
ENDBRANCH  28  31
BRANCH  27  33
ATOM     33  O   UNL     1       0.816  -1.939   1.204  0.00  0.00    -0.386 OA
ATOM     34  H   UNL     1       1.336  -2.439   0.373  0.00  0.00    +0.210 HD
ENDBRANCH  27  33
BRANCH  26  35
ATOM     35  O   UNL     1       0.607  -0.605   3.659  0.00  0.00    -0.384 OA
ATOM     36  H   UNL     1       1.649  -0.335   3.887  0.00  0.00    +0.210 HD
ENDBRANCH  26  35
BRANCH  29  37
ATOM     37  C   UNL     1      -2.194   0.017  -1.191  0.00  0.00    +0.190 C 
BRANCH  37  38
ATOM     38  O   UNL     1      -3.496  -0.569  -1.243  0.00  0.00    -0.392 OA
ATOM     39  H   UNL     1      -4.193  -0.291  -2.048  0.00  0.00    +0.210 HD
ENDBRANCH  37  38
ENDBRANCH  29  37
ENDBRANCH  24  25
ENDBRANCH   4  24
TORSDOF 14
