REMARK  Name = ZINC30140685
REMARK  15 active torsions:
REMARK  status: ('A' for Active; 'I' for Inactive)
REMARK    1  A    between atoms: C_1  and  C_2
REMARK    2  A    between atoms: C_2  and  C_3
REMARK    3  A    between atoms: C_2  and  C_4
REMARK    4  A    between atoms: C_4  and  N_5
REMARK    5  A    between atoms: C_6  and  N_35
REMARK    6  A    between atoms: C_7  and  N_14
REMARK    7  A    between atoms: N_14  and  C_15
REMARK    8  A    between atoms: C_15  and  C_16
REMARK    9  A    between atoms: C_16  and  C_17
REMARK   10  A    between atoms: C_16  and  C_18
REMARK   11  A    between atoms: C_19  and  C_21
REMARK   12  A    between atoms: C_21  and  N_22
REMARK   13  A    between atoms: C_30  and  C_32
REMARK   14  A    between atoms: C_32  and  C_33
REMARK   15  A    between atoms: C_32  and  C_34
REMARK                            x       y       z     vdW  Elec       q    Type
REMARK                         _______ _______ _______ _____ _____    ______ ____
ROOT
ATOM      1  N   UNL     1       4.758   2.670  -2.123  0.00  0.00    -0.263 N 
ATOM      2  C   UNL     1       3.832   3.601  -2.434  0.00  0.00    +0.237 C 
ATOM      3  O   UNL     1       2.684   3.269  -2.642  0.00  0.00    -0.274 OA
ENDROOT
BRANCH   1   6
ATOM      4  N   UNL     1       4.497  -0.971  -2.546  0.00  0.00    -0.280 N 
ATOM      5  C   UNL     1       4.892   0.332  -2.747  0.00  0.00    +0.127 A 
ATOM      6  C   UNL     1       4.372   1.325  -1.942  0.00  0.00    +0.140 A 
ATOM      7  C   UNL     1       3.452   0.973  -0.937  0.00  0.00    +0.277 A 
ATOM      8  O   UNL     1       2.977   1.830  -0.212  0.00  0.00    -0.266 OA
ATOM      9  N   UNL     1       3.098  -0.318  -0.782  0.00  0.00    -0.273 N 
ATOM     10  H   UNL     1       2.464  -0.562  -0.090  0.00  0.00    +0.173 HD
ATOM     11  C   UNL     1       3.611  -1.272  -1.579  0.00  0.00    +0.331 A 
ATOM     12  O   UNL     1       3.271  -2.429  -1.421  0.00  0.00    -0.246 OA
BRANCH   5  13
ATOM     13  N   UNL     1       5.793   0.640  -3.737  0.00  0.00    -0.343 N 
ATOM     14  H   UNL     1       6.221  -0.070  -4.242  0.00  0.00    +0.144 HD
ATOM     15  H   UNL     1       6.003   1.567  -3.931  0.00  0.00    +0.144 HD
ENDBRANCH   5  13
BRANCH   4  16
ATOM     16  C   UNL     1       5.041  -2.035  -3.393  0.00  0.00    +0.131 C 
BRANCH  16  18
ATOM     17  C   UNL     1       4.198  -0.950  -5.479  0.00  0.00    +0.009 C 
ATOM     18  C   UNL     1       4.147  -2.216  -4.622  0.00  0.00    +0.003 C 
ATOM     19  C   UNL     1       4.643  -3.408  -5.442  0.00  0.00    +0.009 C 
ENDBRANCH  16  18
ENDBRANCH   4  16
ENDBRANCH   1   6
BRANCH   1  20
ATOM     20  C   UNL     1       6.163   3.056  -1.972  0.00  0.00    +0.117 C 
BRANCH  20  21
ATOM     21  C   UNL     1       6.406   3.550  -0.544  0.00  0.00    +0.001 C 
ATOM     22  C   UNL     1       6.220   2.390   0.436  0.00  0.00    +0.009 C 
ATOM     23  C   UNL     1       7.832   4.092  -0.428  0.00  0.00    +0.009 C 
ENDBRANCH  20  21
ENDBRANCH   1  20
BRANCH   2  24
ATOM     24  C   UNL     1       4.225   5.053  -2.524  0.00  0.00    +0.201 C 
BRANCH  24  25
ATOM     25  N   UNL     1       3.040   5.862  -2.821  0.00  0.00    -0.321 N 
ATOM     26  C   UNL     1       2.651   6.133  -4.212  0.00  0.00    +0.106 C 
ATOM     27  C   UNL     1       2.292   7.621  -4.316  0.00  0.00    +0.024 C 
ATOM     28  C   UNL     1       1.080   7.899  -3.428  0.00  0.00    +0.038 C 
ATOM     29  C   UNL     1       1.312   7.368  -2.038  0.00  0.00    -0.026 A 
ATOM     30  C   UNL     1       2.256   6.383  -1.786  0.00  0.00    +0.033 A 
ATOM     31  C   UNL     1       2.439   5.907  -0.493  0.00  0.00    +0.023 A 
ATOM     32  C   UNL     1       1.678   6.410   0.543  0.00  0.00    +0.006 A 
ATOM     33  C   UNL     1       0.735   7.390   0.293  0.00  0.00    -0.044 A 
ATOM     34  C   UNL     1       0.557   7.874  -0.993  0.00  0.00    +0.009 A 
BRANCH  33  35
ATOM     35  C   UNL     1      -0.094   7.941   1.424  0.00  0.00    +0.013 C 
ATOM     36  C   UNL     1      -0.897   6.808   2.067  0.00  0.00    +0.012 C 
ATOM     37  C   UNL     1       0.826   8.572   2.471  0.00  0.00    +0.012 C 
ENDBRANCH  33  35
ENDBRANCH  24  25
ENDBRANCH   2  24
TORSDOF 9
