REMARK  Name = ZINC35374642
REMARK  9 active torsions:
REMARK  status: ('A' for Active; 'I' for Inactive)
REMARK    1  A    between atoms: C_1  and  C_2
REMARK    2  A    between atoms: C_2  and  C_3
REMARK    3  A    between atoms: C_3  and  C_5
REMARK    4  A    between atoms: C_3  and  C_6
REMARK    5  A    between atoms: C_6  and  N_7
REMARK    6  A    between atoms: C_8  and  C_10
REMARK    7  A    between atoms: C_21  and  C_23
REMARK    8  A    between atoms: C_23  and  O_24
REMARK    9  A    between atoms: O_24  and  C_25
REMARK                            x       y       z     vdW  Elec       q    Type
REMARK                         _______ _______ _______ _____ _____    ______ ____
ROOT
ATOM      1  C   UNL     1       2.697  -4.272  -3.689  0.00  0.00    +0.028 C 
ATOM      2  C   UNL     1       1.975  -3.883  -5.015  0.00  0.00    +0.061 C 
ATOM      3  S   UNL     1       2.780  -5.088  -6.158  0.00  0.00    -0.174 S 
ATOM      4  C   UNL     1       3.367  -6.292  -4.902  0.00  0.00    -0.016 C 
ATOM      5  N   UNL     1       2.832  -5.742  -3.639  0.00  0.00    +0.397 N 
ATOM      6  C   UNL     1       2.780  -7.665  -5.189  0.00  0.00    +0.017 C 
ATOM      7  C   UNL     1       3.252  -8.657  -4.119  0.00  0.00    +0.107 C 
ATOM      8  N   UNL     1       4.718  -8.604  -4.041  0.00  0.00    -0.299 N 
ATOM      9  C   UNL     1       5.369  -7.307  -3.815  0.00  0.00    +0.107 C 
ATOM     10  C   UNL     1       4.887  -6.321  -4.886  0.00  0.00    +0.017 C 
ATOM     11  C   UNL     1       5.452  -9.726  -4.175  0.00  0.00    +0.253 C 
ATOM     12  O   UNL     1       4.904 -10.792  -4.361  0.00  0.00    -0.272 OA
ATOM     13  H   UNL     1       3.456  -5.989  -2.886  0.00  0.00    -0.083 HD
ATOM     14  H   UNL     1       1.926  -6.149  -3.460  0.00  0.00    -0.083 HD
ENDROOT
BRANCH   1  16
ATOM     15  N   UNL     1       1.639  -2.482  -2.350  0.00  0.00    -0.316 N 
ATOM     16  C   UNL     1       1.885  -3.797  -2.512  0.00  0.00    +0.200 C 
ATOM     17  O   UNL     1       1.454  -4.599  -1.710  0.00  0.00    -0.278 OA
ATOM     18  H   UNL     1       1.984  -1.842  -2.991  0.00  0.00    +0.149 HD
BRANCH  15  19
ATOM     19  C   UNL     1       0.849  -2.021  -1.205  0.00  0.00    +0.107 C 
BRANCH  19  20
ATOM     20  C   UNL     1       0.718  -0.497  -1.257  0.00  0.00    +0.003 C 
ATOM     21  C   UNL     1      -0.089  -0.097  -2.493  0.00  0.00    +0.009 C 
BRANCH  20  23
ATOM     22  C   UNL     1      -0.019   1.526   0.010  0.00  0.00    +0.004 C 
ATOM     23  C   UNL     1       0.002  -0.004   0.002  0.00  0.00    +0.001 C 
ENDBRANCH  20  23
ENDBRANCH  19  20
ENDBRANCH  15  19
ENDBRANCH   1  16
BRANCH  11  24
ATOM     24  C   UNL     1       6.956  -9.657  -4.093  0.00  0.00    +0.324 C 
BRANCH  24  25
ATOM     25  O   UNL     1       7.503 -10.966  -4.263  0.00  0.00    -0.483 OA
BRANCH  25  26
ATOM     26  C   UNL     1       8.856 -11.080  -4.215  0.00  0.00    +0.121 A 
ATOM     27  C   UNL     1       9.641  -9.956  -4.003  0.00  0.00    +0.047 A 
ATOM     28  C   UNL     1      11.017 -10.074  -3.955  0.00  0.00    +0.023 A 
ATOM     29  C   UNL     1      11.612 -11.312  -4.119  0.00  0.00    +0.041 A 
ATOM     30  C   UNL     1      10.831 -12.435  -4.331  0.00  0.00    +0.023 A 
ATOM     31  C   UNL     1       9.455 -12.322  -4.373  0.00  0.00    +0.047 A 
ATOM     32 CL   UNL     1      13.341 -11.458  -4.059  0.00  0.00    -0.084 Cl
ENDBRANCH  25  26
ENDBRANCH  24  25
ENDBRANCH  11  24
TORSDOF 7
