REMARK  Name = ZINC39654530
REMARK  12 active torsions:
REMARK  status: ('A' for Active; 'I' for Inactive)
REMARK    1  A    between atoms: C_1  and  C_2
REMARK    2  A    between atoms: C_2  and  C_3
REMARK    3  A    between atoms: C_3  and  C_4
REMARK    4  A    between atoms: C_4  and  C_5
REMARK    5  A    between atoms: C_5  and  C_7
REMARK    6  A    between atoms: C_5  and  C_8
REMARK    7  A    between atoms: C_12  and  C_21
REMARK    8  A    between atoms: N_23  and  C_24
REMARK    9  A    between atoms: C_24  and  C_25
REMARK   10  A    between atoms: C_25  and  C_26
REMARK   11  A    between atoms: C_29  and  C_32
REMARK   12  A    between atoms: C_32  and  C_33
REMARK                            x       y       z     vdW  Elec       q    Type
REMARK                         _______ _______ _______ _____ _____    ______ ____
ROOT
ATOM      1  C   UNL     1      -2.959  -3.842   0.023  0.00  0.00    +0.218 C 
ATOM      2  O   UNL     1      -1.857  -4.346  -0.030  0.00  0.00    -0.275 OA
ATOM      3  N   UNL     1      -4.058  -4.619  -0.041  0.00  0.00    -0.300 N 
ATOM      4  C   UNL     1      -5.476  -4.191   0.001  0.00  0.00    +0.121 C 
ATOM      5  C   UNL     1      -6.189  -5.099  -1.027  0.00  0.00    +0.100 C 
ATOM      6  C   UNL     1      -5.296  -6.347  -1.132  0.00  0.00    -0.004 C 
ATOM      7  C   UNL     1      -4.122  -6.094  -0.175  0.00  0.00    +0.115 C 
ATOM      8  C   UNL     1      -4.780  -6.509  -2.559  0.00  0.00    -0.010 C 
ATOM      9  C   UNL     1      -3.943  -7.788  -2.651  0.00  0.00    -0.082 C 
ATOM     10  N   UNL     1      -4.766  -8.943  -2.273  0.00  0.00    +0.379 N 
ATOM     11  C   UNL     1      -5.181  -8.824  -0.870  0.00  0.00    -0.082 C 
ATOM     12  C   UNL     1      -6.071  -7.589  -0.702  0.00  0.00    -0.010 C 
ATOM     13  H   UNL     1      -5.584  -8.979  -2.863  0.00  0.00    -0.086 HD
ATOM     14  H   UNL     1      -4.231  -9.790  -2.393  0.00  0.00    -0.086 HD
ENDROOT
BRANCH   5  15
ATOM     15  C   UNL     1      -6.285  -4.406  -2.361  0.00  0.00    +0.218 C 
ATOM     16  O   UNL     1      -5.435  -3.607  -2.693  0.00  0.00    -0.275 OA
ATOM     17  N   UNL     1      -7.316  -4.675  -3.187  0.00  0.00    -0.315 N 
ATOM     18  H   UNL     1      -7.996  -5.314  -2.922  0.00  0.00    +0.149 HD
BRANCH  17  19
ATOM     19  C   UNL     1      -7.410  -4.001  -4.484  0.00  0.00    +0.109 C 
BRANCH  19  20
ATOM     20  C   UNL     1      -8.664  -4.481  -5.218  0.00  0.00    +0.054 C 
BRANCH  20  21
ATOM     21  C   UNL     1      -8.761  -3.788  -6.553  0.00  0.00    -0.046 A 
ATOM     22  C   UNL     1      -9.433  -2.585  -6.660  0.00  0.00    +0.004 A 
ATOM     23  C   UNL     1      -9.522  -1.950  -7.885  0.00  0.00    +0.004 A 
ATOM     24  C   UNL     1      -8.938  -2.517  -9.002  0.00  0.00    -0.048 A 
ATOM     25  C   UNL     1      -8.264  -3.719  -8.895  0.00  0.00    +0.004 A 
ATOM     26  C   UNL     1      -8.172  -4.353  -7.669  0.00  0.00    +0.004 A 
BRANCH  24  27
ATOM     27  C   UNL     1      -9.035  -1.824 -10.337  0.00  0.00    +0.032 C 
ATOM     28  C   UNL     1      -7.845  -0.879 -10.509  0.00  0.00    +0.009 C 
ENDBRANCH  24  27
ENDBRANCH  20  21
ENDBRANCH  19  20
ENDBRANCH  17  19
ENDBRANCH   5  15
BRANCH   1  29
ATOM     29  C   UNL     1      -3.099  -2.348   0.161  0.00  0.00    +0.072 C 
ATOM     30  C   UNL     1      -3.856  -2.023   1.450  0.00  0.00    +0.017 C 
BRANCH  29  31
ATOM     31  C   UNL     1      -1.710  -1.708   0.210  0.00  0.00    +0.012 C 
BRANCH  31  32
ATOM     32  C   UNL     1      -1.850  -0.185   0.224  0.00  0.00    +0.000 C 
BRANCH  32  34
ATOM     33  C   UNL     1      -0.602   1.978   0.288  0.00  0.00    +0.004 C 
ATOM     34  C   UNL     1      -0.461   0.455   0.274  0.00  0.00    -0.003 C 
ENDBRANCH  32  34
ENDBRANCH  31  32
ENDBRANCH  29  31
ENDBRANCH   1  29
TORSDOF 9
