REMARK  Name = ZINC39920001
REMARK  6 active torsions:
REMARK  status: ('A' for Active; 'I' for Inactive)
REMARK    1  A    between atoms: C_10  and  O_11
REMARK    2  A    between atoms: O_11  and  C_12
REMARK    3  A    between atoms: C_12  and  C_13
REMARK    4  A    between atoms: N_15  and  N_16
REMARK    5  A    between atoms: C_17  and  C_28
REMARK    6  A    between atoms: C_31  and  O_34
REMARK                            x       y       z     vdW  Elec       q    Type
REMARK                         _______ _______ _______ _____ _____    ______ ____
ROOT
ATOM      1  N   UNL     1       9.759   0.784  -0.105  0.00  0.00    -0.191 N 
ATOM      2  C   UNL     1      10.219   0.807  -1.493  0.00  0.00    +0.212 C 
ATOM      3  N   UNL     1      11.678   0.965  -1.544  0.00  0.00    -0.320 N 
ATOM      4  C   UNL     1      12.272   1.906  -0.711  0.00  0.00    +0.041 A 
ATOM      5  C   UNL     1      13.444   2.557  -1.058  0.00  0.00    +0.024 A 
ATOM      6  C   UNL     1      13.991   3.486  -0.195  0.00  0.00    +0.002 A 
ATOM      7  C   UNL     1      13.378   3.772   1.014  0.00  0.00    +0.001 A 
ATOM      8  C   UNL     1      12.210   3.132   1.377  0.00  0.00    +0.015 A 
ATOM      9  C   UNL     1      11.649   2.192   0.517  0.00  0.00    +0.059 A 
ATOM     10  C   UNL     1      10.405   1.476   0.857  0.00  0.00    +0.266 C 
ATOM     11  O   UNL     1       9.969   1.506   1.991  0.00  0.00    -0.268 OA
ATOM     12  H   UNL     1      12.215   0.425  -2.145  0.00  0.00    +0.148 HD
ENDROOT
BRANCH   2  13
ATOM     13  C   UNL     1       9.570   1.959  -2.216  0.00  0.00    -0.008 A 
ATOM     14  C   UNL     1       8.865   1.732  -3.383  0.00  0.00    +0.011 A 
ATOM     15  C   UNL     1       8.270   2.787  -4.048  0.00  0.00    +0.046 A 
ATOM     16  C   UNL     1       8.379   4.074  -3.542  0.00  0.00    +0.117 A 
ATOM     17  C   UNL     1       9.086   4.299  -2.370  0.00  0.00    +0.046 A 
ATOM     18  C   UNL     1       9.675   3.240  -1.706  0.00  0.00    +0.011 A 
BRANCH  16  19
ATOM     19  O   UNL     1       7.794   5.113  -4.194  0.00  0.00    -0.507 OA
ATOM     20  H   UNL     1       6.886   5.293  -3.914  0.00  0.00    +0.292 HD
ENDBRANCH  16  19
ENDBRANCH   2  13
BRANCH   1  23
ATOM     21  C   UNL     1       7.446   0.656   0.445  0.00  0.00    +0.267 C 
ATOM     22  O   UNL     1       7.388   1.867   0.434  0.00  0.00    -0.271 OA
ATOM     23  N   UNL     1       8.624   0.036   0.232  0.00  0.00    -0.227 N 
ATOM     24  H   UNL     1       8.685  -0.929   0.311  0.00  0.00    +0.173 HD
BRANCH  21  25
ATOM     25  C   UNL     1       6.202  -0.156   0.697  0.00  0.00    +0.326 C 
BRANCH  25  26
ATOM     26  O   UNL     1       5.092   0.723   0.893  0.00  0.00    -0.482 OA
BRANCH  26  36
ATOM     27  C   UNL     1       0.470   2.485   1.743  0.00  0.00    +0.001 A 
ATOM     28  C   UNL     1       1.699   3.094   1.498  0.00  0.00    +0.001 A 
ATOM     29  C   UNL     1       2.822   2.351   1.297  0.00  0.00    +0.012 A 
ATOM     30  C   UNL     1       2.744   0.950   1.336  0.00  0.00    +0.024 A 
ATOM     31  C   UNL     1       1.495   0.329   1.586  0.00  0.00    -0.014 A 
ATOM     32  C   UNL     1       0.357   1.129   1.788  0.00  0.00    +0.008 A 
ATOM     33  C   UNL     1       1.418  -1.073   1.626  0.00  0.00    +0.009 A 
ATOM     34  C   UNL     1       2.540  -1.818   1.425  0.00  0.00    +0.004 A 
ATOM     35  C   UNL     1       3.769  -1.214   1.180  0.00  0.00    +0.046 A 
ATOM     36  C   UNL     1       3.885   0.147   1.133  0.00  0.00    +0.129 A 
ENDBRANCH  26  36
ENDBRANCH  25  26
ENDBRANCH  21  25
ENDBRANCH   1  23
TORSDOF 6
