REMARK  Name = ZINC01135008
REMARK  5 active torsions:
REMARK  status: ('A' for Active; 'I' for Inactive)
REMARK    1  A    between atoms: C_1  and  C_2
REMARK    2  A    between atoms: C_5  and  C_8
REMARK    3  A    between atoms: C_13  and  C_23
REMARK    4  A    between atoms: C_26  and  N_29
REMARK    5  A    between atoms: C_30  and  C_32
REMARK                            x       y       z     vdW  Elec       q    Type
REMARK                         _______ _______ _______ _____ _____    ______ ____
ROOT
ATOM      1  C   UNL     1       0.013   0.012   0.024  0.00  0.00    +0.032 C 
ATOM      2  C   UNL     1      -0.756  -0.507  -1.190  0.00  0.00    +0.059 C 
ATOM      3  C   UNL     1      -0.763  -2.026  -1.190  0.00  0.00    +0.017 C 
ATOM      4  C   UNL     1      -0.758  -2.710  -0.032  0.00  0.00    +0.036 C 
ATOM      5  C   UNL     1      -0.777  -4.212   0.110  0.00  0.00    +0.136 C 
ATOM      6  N   UNL     1      -1.065  -4.929  -1.114  0.00  0.00    -0.331 N 
ATOM      7  C   UNL     1      -0.191  -4.878  -2.198  0.00  0.00    +0.049 A 
ATOM      8  C   UNL     1       0.479  -6.006  -2.643  0.00  0.00    +0.025 A 
ATOM      9  C   UNL     1       1.374  -5.895  -3.694  0.00  0.00    +0.002 A 
ATOM     10  C   UNL     1       1.602  -4.670  -4.293  0.00  0.00    +0.002 A 
ATOM     11  C   UNL     1       0.920  -3.544  -3.862  0.00  0.00    +0.025 A 
ATOM     12  C   UNL     1       0.009  -3.658  -2.827  0.00  0.00    +0.052 A 
ATOM     13  N   UNL     1      -0.791  -2.596  -2.422  0.00  0.00    -0.316 N 
ATOM     14  C   UNL     1      -0.730  -2.018   1.202  0.00  0.00    +0.163 C 
ATOM     15  O   UNL     1      -0.745  -2.660   2.234  0.00  0.00    -0.292 OA
ATOM     16  C   UNL     1      -0.684  -0.521   1.281  0.00  0.00    +0.088 C 
ATOM     17  H   UNL     1      -1.879  -5.453  -1.181  0.00  0.00    +0.147 HD
ATOM     18  H   UNL     1      -1.417  -2.234  -3.068  0.00  0.00    +0.152 HD
ENDROOT
BRANCH   1  23
ATOM     19  C   UNL     1      -0.043   5.790   0.054  0.00  0.00    +0.044 C 
ATOM     20  C   UNL     1      -0.028   4.283   0.046  0.00  0.00    -0.050 A 
ATOM     21  C   UNL     1       1.175   3.604   0.025  0.00  0.00    +0.003 A 
ATOM     22  C   UNL     1       1.189   2.221   0.017  0.00  0.00    +0.004 A 
ATOM     23  C   UNL     1      -0.001   1.518   0.032  0.00  0.00    -0.043 A 
ATOM     24  C   UNL     1      -1.205   2.198   0.048  0.00  0.00    +0.004 A 
ATOM     25  C   UNL     1      -1.218   3.580   0.059  0.00  0.00    +0.003 A 
ENDBRANCH   1  23
BRANCH   5  26
ATOM     26  C   UNL     1       0.569  -4.660   0.620  0.00  0.00    -0.023 A 
ATOM     27  C   UNL     1       1.696  -4.486  -0.162  0.00  0.00    +0.007 A 
ATOM     28  C   UNL     1       2.931  -4.891   0.304  0.00  0.00    +0.023 A 
ATOM     29  C   UNL     1       3.039  -5.483   1.555  0.00  0.00    +0.033 A 
ATOM     30  C   UNL     1       1.905  -5.662   2.336  0.00  0.00    +0.023 A 
ATOM     31  C   UNL     1       0.673  -5.250   1.866  0.00  0.00    +0.007 A 
BRANCH  29  32
ATOM     32  N   UNL     1       4.288  -5.899   2.029  0.00  0.00    -0.286 N 
ATOM     33  C   UNL     1       4.386  -7.005   2.792  0.00  0.00    +0.214 C 
ATOM     34  O   UNL     1       3.407  -7.694   2.989  0.00  0.00    -0.276 OA
ATOM     35  C   UNL     1       5.710  -7.385   3.403  0.00  0.00    +0.109 C 
ATOM     36  H   UNL     1       5.085  -5.391   1.807  0.00  0.00    +0.155 HD
ENDBRANCH  29  32
ENDBRANCH   5  26
TORSDOF 3
