REMARK  Name = ZINC13448038
REMARK  13 active torsions:
REMARK  status: ('A' for Active; 'I' for Inactive)
REMARK    1  A    between atoms: C_1  and  C_2
REMARK    2  A    between atoms: C_2  and  O_3
REMARK    3  A    between atoms: O_3  and  C_4
REMARK    4  A    between atoms: C_4  and  C_6
REMARK    5  A    between atoms: C_10  and  N_11
REMARK    6  A    between atoms: C_12  and  C_14
REMARK    7  A    between atoms: C_14  and  S_15
REMARK    8  A    between atoms: S_15  and  C_16
REMARK    9  A    between atoms: C_20  and  C_24
REMARK   10  A    between atoms: C_21  and  C_23
REMARK   11  A    between atoms: C_24  and  C_25
REMARK   12  A    between atoms: C_25  and  C_26
REMARK   13  A    between atoms: C_30  and  C_34
REMARK                            x       y       z     vdW  Elec       q    Type
REMARK                         _______ _______ _______ _____ _____    ______ ____
ROOT
ATOM      1  N   UNL     1      -0.604  -2.455  -3.925  0.00  0.00    -0.279 N 
ATOM      2  C   UNL     1      -1.119  -2.783  -5.126  0.00  0.00    +0.228 C 
ATOM      3  O   UNL     1      -0.397  -3.225  -5.995  0.00  0.00    -0.275 OA
ATOM      4  H   UNL     1      -1.181  -2.102  -3.230  0.00  0.00    +0.155 HD
ENDROOT
BRANCH   1   9
ATOM      5  C   UNL     1       1.449  -2.344  -2.516  0.00  0.00    +0.091 A 
ATOM      6  C   UNL     1       2.876  -2.619  -2.515  0.00  0.00    -0.021 A 
ATOM      7  C   UNL     1       3.343  -3.117  -3.680  0.00  0.00    -0.004 A 
ATOM      8  S   UNL     1       1.922  -3.212  -4.730  0.00  0.00    -0.077 S 
ATOM      9  C   UNL     1       0.750  -2.624  -3.681  0.00  0.00    +0.086 A 
ATOM     10  C   UNL     1       4.757  -3.498  -3.993  0.00  0.00    +0.046 C 
ATOM     11  C   UNL     1       5.669  -2.887  -2.920  0.00  0.00    -0.009 C 
ATOM     12  C   UNL     1       5.082  -3.191  -1.538  0.00  0.00    +0.008 C 
ATOM     13  C   UNL     1       3.799  -2.383  -1.329  0.00  0.00    +0.037 C 
ATOM     14  C   UNL     1       7.069  -3.497  -3.029  0.00  0.00    +0.008 C 
BRANCH   5  15
ATOM     15  C   UNL     1       0.776  -1.800  -1.335  0.00  0.00    +0.342 C 
ATOM     16  O   UNL     1       0.312  -2.552  -0.499  0.00  0.00    -0.245 OA
BRANCH  15  17
ATOM     17  O   UNL     1       0.671  -0.465  -1.174  0.00  0.00    -0.461 OA
BRANCH  17  19
ATOM     18  C   UNL     1      -0.019   1.526   0.010  0.00  0.00    +0.048 C 
ATOM     19  C   UNL     1       0.002  -0.004   0.002  0.00  0.00    +0.229 C 
ENDBRANCH  17  19
ENDBRANCH  15  17
ENDBRANCH   5  15
ENDBRANCH   1   9
BRANCH   2  20
ATOM     20  C   UNL     1      -2.591  -2.599  -5.391  0.00  0.00    +0.173 C 
BRANCH  20  21
ATOM     21  S   UNL     1      -2.971  -3.126  -7.085  0.00  0.00    -0.077 S 
BRANCH  21  22
ATOM     22  C   UNL     1      -4.705  -2.853  -7.236  0.00  0.00    +0.192 A 
ATOM     23  N   UNL     1      -5.375  -2.358  -6.205  0.00  0.00    -0.183 NA
ATOM     24  C   UNL     1      -6.681  -2.141  -6.288  0.00  0.00    +0.277 A 
ATOM     25  O   UNL     1      -7.362  -1.634  -5.232  0.00  0.00    -0.265 OA
ATOM     26  C   UNL     1      -7.344  -2.443  -7.478  0.00  0.00    +0.040 A 
ATOM     27  C   UNL     1      -6.610  -2.958  -8.530  0.00  0.00    +0.049 A 
ATOM     28  N   UNL     1      -5.307  -3.144  -8.381  0.00  0.00    -0.227 NA
ATOM     29  C   UNL     1      -7.284  -3.299  -9.834  0.00  0.00    +0.066 C 
BRANCH  26  30
ATOM     30  C   UNL     1      -8.827  -2.212  -7.613  0.00  0.00    +0.054 C 
BRANCH  30  31
ATOM     31  C   UNL     1      -9.078  -0.797  -8.137  0.00  0.00    +0.130 C 
BRANCH  31  32
ATOM     32  C   UNL     1     -10.561  -0.567  -8.272  0.00  0.00    +0.356 C 
ATOM     33  O   UNL     1     -11.345  -1.452  -7.977  0.00  0.00    -0.246 OA
ATOM     34  O   UNL     1     -10.977   0.506  -8.678  0.00  0.00    -0.246 OA
ENDBRANCH  31  32
ENDBRANCH  30  31
ENDBRANCH  26  30
ENDBRANCH  21  22
ENDBRANCH  20  21
ENDBRANCH   2  20
TORSDOF 10
