REMARK  Name = ZINC40943836
REMARK  8 active torsions:
REMARK  status: ('A' for Active; 'I' for Inactive)
REMARK    1  A    between atoms: C_1  and  C_2
REMARK    2  A    between atoms: C_2  and  C_3
REMARK    3  A    between atoms: C_8  and  O_9
REMARK    4  A    between atoms: O_9  and  C_10
REMARK    5  A    between atoms: C_10  and  C_11
REMARK    6  A    between atoms: N_13  and  C_14
REMARK    7  A    between atoms: C_17  and  S_20
REMARK    8  A    between atoms: S_20  and  N_23
REMARK                            x       y       z     vdW  Elec       q    Type
REMARK                         _______ _______ _______ _____ _____    ______ ____
ROOT
ATOM      1  C   UNL     1      -3.356  -0.139   3.663  0.00  0.00    +0.255 C 
ATOM      2  O   UNL     1      -3.803   0.256   2.607  0.00  0.00    -0.272 OA
ATOM      3  N   UNL     1      -4.158  -0.227   4.743  0.00  0.00    -0.283 N 
ATOM      4  H   UNL     1      -3.819  -0.606   5.569  0.00  0.00    +0.155 HD
ENDROOT
BRANCH   3   5
ATOM      5  C   UNL     1      -5.479   0.227   4.672  0.00  0.00    +0.034 A 
ATOM      6  C   UNL     1      -6.069   0.827   5.777  0.00  0.00    +0.025 A 
ATOM      7  C   UNL     1      -7.373   1.275   5.705  0.00  0.00    +0.030 A 
ATOM      8  C   UNL     1      -8.092   1.126   4.533  0.00  0.00    +0.105 A 
ATOM      9  C   UNL     1      -7.509   0.529   3.431  0.00  0.00    +0.030 A 
ATOM     10  C   UNL     1      -6.202   0.085   3.495  0.00  0.00    +0.025 A 
BRANCH   8  11
ATOM     11  S   UNL     1      -9.757   1.699   4.444  0.00  0.00    +0.056 S 
ATOM     12  O   UNL     1     -10.389   0.951   3.414  0.00  0.00    -0.153 OA
ATOM     13  O   UNL     1     -10.248   1.726   5.777  0.00  0.00    -0.153 OA
BRANCH  11  14
ATOM     14  N   UNL     1      -9.707   3.271   3.926  0.00  0.00    -0.204 NA
ATOM     15  H   UNL     1     -10.442   3.634   3.408  0.00  0.00    +0.144 HD
ATOM     16  H   UNL     1      -8.942   3.828   4.141  0.00  0.00    +0.144 HD
ENDBRANCH  11  14
ENDBRANCH   8  11
ENDBRANCH   3   5
BRANCH   1  17
ATOM     17  C   UNL     1      -1.905  -0.531   3.768  0.00  0.00    +0.324 C 
BRANCH  17  18
ATOM     18  O   UNL     1      -1.270  -0.351   2.500  0.00  0.00    -0.482 OA
BRANCH  18  24
ATOM     19  C   UNL     1       0.730  -0.510   1.222  0.00  0.00    -0.005 A 
ATOM     20  C   UNL     1       2.074  -0.821   1.146  0.00  0.00    +0.022 A 
ATOM     21  C   UNL     1       2.741  -1.289   2.264  0.00  0.00    +0.018 A 
ATOM     22  C   UNL     1       2.064  -1.446   3.460  0.00  0.00    +0.019 A 
ATOM     23  C   UNL     1       0.720  -1.135   3.541  0.00  0.00    +0.047 A 
ATOM     24  C   UNL     1       0.051  -0.661   2.422  0.00  0.00    +0.124 A 
ATOM     25 BR   UNL     1       4.580  -1.715   2.156  0.00  0.00    -0.050 Br
BRANCH  19  27
ATOM     26  C   UNL     1      -0.009   1.530   0.020  0.00  0.00    +0.009 C 
ATOM     27  C   UNL     1       0.004  -0.000   0.004  0.00  0.00    +0.035 C 
ENDBRANCH  19  27
ENDBRANCH  18  24
ENDBRANCH  17  18
ENDBRANCH   1  17
TORSDOF 7
