REMARK  Name = ZINC26283710
REMARK  7 active torsions:
REMARK  status: ('A' for Active; 'I' for Inactive)
REMARK    1  A    between atoms: C_1  and  N_2
REMARK    2  A    between atoms: N_2  and  C_3
REMARK    3  A    between atoms: C_3  and  C_4
REMARK    4  A    between atoms: N_12  and  C_13
REMARK    5  A    between atoms: N_16  and  C_19
REMARK    6  A    between atoms: C_19  and  C_20
REMARK    7  A    between atoms: N_22  and  C_23
REMARK                            x       y       z     vdW  Elec       q    Type
REMARK                         _______ _______ _______ _____ _____    ______ ____
ROOT
ATOM      1  C   UNL     1      -0.017  -0.723  -3.604  0.00  0.00    +0.071 C 
ATOM      2  C   UNL     1       1.425  -1.048  -4.007  0.00  0.00    +0.004 C 
ATOM      3  C   UNL     1       1.424  -1.734  -5.375  0.00  0.00    -0.076 C 
ATOM      4  N   UNL     1       0.825  -0.841  -6.374  0.00  0.00    +0.386 N 
ATOM      5  C   UNL     1      -0.580  -0.583  -6.033  0.00  0.00    -0.076 C 
ATOM      6  C   UNL     1      -0.656   0.147  -4.690  0.00  0.00    +0.004 C 
ATOM      7  H   UNL     1       1.331   0.031  -6.391  0.00  0.00    -0.081 HD
ENDROOT
BRANCH   1  12
ATOM      8  C   UNL     1      -0.023   1.453   0.012  0.00  0.00    +0.134 C 
ATOM      9  N   UNL     1       0.007  -0.012   0.003  0.00  0.00    -0.284 N 
ATOM     10  C   UNL     1       0.008  -0.679  -1.168  0.00  0.00    +0.302 C 
ATOM     11  O   UNL     1       0.033  -1.895  -1.176  0.00  0.00    -0.253 OA
ATOM     12  N   UNL     1      -0.018   0.002  -2.331  0.00  0.00    -0.297 N 
ATOM     13  H   UNL     1      -0.038   0.971  -2.325  0.00  0.00    +0.151 HD
BRANCH   9  14
ATOM     14  C   UNL     1       0.035  -0.752   1.267  0.00  0.00    +0.151 C 
BRANCH  14  15
ATOM     15  C   UNL     1      -1.376  -1.035   1.716  0.00  0.00    +0.008 A 
ATOM     16  C   UNL     1      -2.159  -2.106   1.442  0.00  0.00    +0.014 A 
ATOM     17  C   UNL     1      -3.437  -2.153   1.967  0.00  0.00    +0.023 A 
ATOM     18  C   UNL     1      -3.868  -1.126   2.741  0.00  0.00    +0.055 A 
ATOM     19  S   UNL     1      -2.445  -0.049   2.751  0.00  0.00    -0.085 S 
ATOM     20 BR   UNL     1      -5.540  -0.898   3.594  0.00  0.00    -0.043 Br
ENDBRANCH  14  15
ENDBRANCH   9  14
ENDBRANCH   1  12
BRANCH   4  21
ATOM     21  C   UNL     1       0.897  -1.472  -7.699  0.00  0.00    +0.019 C 
BRANCH  21  22
ATOM     22  C   UNL     1       0.394  -0.508  -8.742  0.00  0.00    +0.201 C 
ATOM     23  O   UNL     1       0.013   0.596  -8.415  0.00  0.00    -0.278 OA
ATOM     24  N   UNL     1       0.368  -0.873 -10.040  0.00  0.00    -0.287 N 
ATOM     25  H   UNL     1       0.735  -1.730 -10.310  0.00  0.00    +0.155 HD
BRANCH  24  26
ATOM     26  C   UNL     1      -0.188  -0.016 -10.996  0.00  0.00    +0.033 A 
ATOM     27  C   UNL     1      -0.046   1.359 -10.865  0.00  0.00    +0.023 A 
ATOM     28  C   UNL     1      -0.596   2.202 -11.811  0.00  0.00    +0.002 A 
ATOM     29  C   UNL     1      -1.287   1.678 -12.887  0.00  0.00    +0.000 A 
ATOM     30  C   UNL     1      -1.431   0.309 -13.021  0.00  0.00    +0.002 A 
ATOM     31  C   UNL     1      -0.878  -0.540 -12.082  0.00  0.00    +0.023 A 
ENDBRANCH  24  26
ENDBRANCH  21  22
ENDBRANCH   4  21
TORSDOF 6
