REMARK  Name = ZINC34949632
REMARK  10 active torsions:
REMARK  status: ('A' for Active; 'I' for Inactive)
REMARK    1  A    between atoms: C_1  and  C_2
REMARK    2  A    between atoms: N_11  and  C_12
REMARK    3  A    between atoms: C_18  and  C_20
REMARK    4  A    between atoms: C_20  and  C_22
REMARK    5  A    between atoms: C_20  and  N_29
REMARK    6  A    between atoms: C_22  and  C_23
REMARK    7  A    between atoms: C_30  and  C_32
REMARK    8  A    between atoms: C_32  and  C_33
REMARK    9  A    between atoms: C_32  and  C_34
REMARK   10  A    between atoms: C_32  and  C_35
REMARK                            x       y       z     vdW  Elec       q    Type
REMARK                         _______ _______ _______ _____ _____    ______ ____
ROOT
ATOM      1  C   UNL     1      -0.016   1.530   0.016  0.00  0.00    +0.030 C 
ATOM      2  C   UNL     1       0.004  -0.000   0.002  0.00  0.00    +0.092 C 
ATOM      3  C   UNL     1      -1.433  -0.535   0.017  0.00  0.00    +0.130 C 
ATOM      4  N   UNL     1      -2.019  -0.270   1.339  0.00  0.00    -0.297 N 
ATOM      5  C   UNL     1      -1.322  -0.764   2.534  0.00  0.00    +0.127 C 
ATOM      6  C   UNL     1       0.116  -0.230   2.519  0.00  0.00    +0.128 C 
ATOM      7  N   UNL     1       0.705  -0.495   1.196  0.00  0.00    -0.280 N 
ATOM      8  C   UNL     1       1.860  -1.179   1.079  0.00  0.00    +0.303 C 
ATOM      9  O   UNL     1       2.283  -1.475  -0.022  0.00  0.00    -0.253 OA
ATOM     10  N   UNL     1       2.547  -1.536   2.182  0.00  0.00    -0.296 N 
ATOM     11  C   UNL     1      -3.175   0.414   1.452  0.00  0.00    +0.236 C 
ATOM     12  O   UNL     1      -3.741   0.818   0.459  0.00  0.00    -0.274 OA
ATOM     13  H   UNL     1       2.175  -1.364   3.062  0.00  0.00    +0.151 HD
ENDROOT
BRANCH  10  14
ATOM     14  C   UNL     1       3.855  -2.182   2.054  0.00  0.00    +0.074 C 
ATOM     15  C   UNL     1       3.663  -3.688   1.865  0.00  0.00    +0.022 C 
ATOM     16  C   UNL     1       5.029  -4.364   1.731  0.00  0.00    +0.002 C 
ATOM     17  C   UNL     1       5.851  -4.109   2.996  0.00  0.00    +0.000 C 
ATOM     18  C   UNL     1       6.043  -2.603   3.185  0.00  0.00    +0.002 C 
ATOM     19  C   UNL     1       4.677  -1.927   3.319  0.00  0.00    +0.022 C 
ENDBRANCH  10  14
BRANCH  11  20
ATOM     20  C   UNL     1      -3.763   0.678   2.814  0.00  0.00    +0.163 C 
BRANCH  20  21
ATOM     21  N   UNL     1      -4.704   1.798   2.731  0.00  0.00    -0.303 N 
ATOM     22  C   UNL     1      -5.779   1.717   1.922  0.00  0.00    +0.220 C 
ATOM     23  O   UNL     1      -5.967   0.716   1.263  0.00  0.00    -0.275 OA
ATOM     24  H   UNL     1      -4.553   2.598   3.258  0.00  0.00    +0.149 HD
BRANCH  22  25
ATOM     25  C   UNL     1      -6.747   2.869   1.836  0.00  0.00    +0.055 C 
ATOM     26  C   UNL     1      -7.344   3.137   3.219  0.00  0.00    +0.022 C 
ATOM     27  C   UNL     1      -6.010   4.118   1.348  0.00  0.00    +0.022 C 
BRANCH  25  28
ATOM     28  C   UNL     1      -7.868   2.521   0.855  0.00  0.00    +0.124 C 
ATOM     29 CL   UNL     1      -9.025   3.899   0.752  0.00  0.00    -0.124 Cl
ENDBRANCH  25  28
ENDBRANCH  22  25
ENDBRANCH  20  21
BRANCH  20  30
ATOM     30  C   UNL     1      -4.499  -0.571   3.303  0.00  0.00    +0.067 C 
BRANCH  30  31
ATOM     31  C   UNL     1      -4.982  -0.350   4.713  0.00  0.00    -0.045 A 
ATOM     32  C   UNL     1      -4.172  -0.686   5.781  0.00  0.00    +0.004 A 
ATOM     33  C   UNL     1      -4.615  -0.484   7.075  0.00  0.00    +0.000 A 
ATOM     34  C   UNL     1      -5.869   0.055   7.300  0.00  0.00    +0.000 A 
ATOM     35  C   UNL     1      -6.678   0.391   6.231  0.00  0.00    +0.000 A 
ATOM     36  C   UNL     1      -6.234   0.193   4.938  0.00  0.00    +0.004 A 
ENDBRANCH  30  31
ENDBRANCH  20  30
ENDBRANCH  11  20
TORSDOF 7
