REMARK  Name = ZINC06796649
REMARK  4 active torsions:
REMARK  status: ('A' for Active; 'I' for Inactive)
REMARK    1  A    between atoms: C_1  and  C_2
REMARK    2  A    between atoms: C_4  and  N_24
REMARK    3  A    between atoms: N_12  and  N_13
REMARK    4  A    between atoms: C_14  and  C_16
REMARK                            x       y       z     vdW  Elec       q    Type
REMARK                         _______ _______ _______ _____ _____    ______ ____
ROOT
ATOM      1  C   UNL     1      -0.018   1.503   0.010  0.00  0.00    +0.046 C 
ATOM      2  C   UNL     1       0.002  -0.004   0.002  0.00  0.00    -0.026 A 
ATOM      3  C   UNL     1       0.006  -0.686  -1.198  0.00  0.00    +0.038 A 
ATOM      4  C   UNL     1       0.024  -2.070  -1.222  0.00  0.00    +0.127 A 
ATOM      5  C   UNL     1       0.040  -2.783  -0.040  0.00  0.00    +0.044 A 
ATOM      6  C   UNL     1       0.036  -2.105   1.174  0.00  0.00    +0.031 A 
ATOM      7  C   UNL     1       0.023  -0.704   1.203  0.00  0.00    +0.046 A 
ATOM      8  N   UNL     1       0.029  -0.272   2.525  0.00  0.00    -0.279 N 
ATOM      9  C   UNL     1       0.051  -1.308   3.380  0.00  0.00    +0.269 C 
ATOM     10  O   UNL     1       0.061  -1.233   4.595  0.00  0.00    -0.268 OA
ATOM     11  C   UNL     1       0.048  -2.552   2.586  0.00  0.00    +0.153 C 
ATOM     12  N   UNL     1       0.067  -3.785   3.033  0.00  0.00    -0.174 NA
ATOM     13  H   UNL     1       0.019   0.660   2.794  0.00  0.00    +0.155 HD
ENDROOT
BRANCH  12  14
ATOM     14  N   UNL     1       0.076  -4.030   4.413  0.00  0.00    -0.202 N 
ATOM     15  C   UNL     1       0.095  -5.297   4.872  0.00  0.00    +0.265 C 
ATOM     16  O   UNL     1       0.103  -6.227   4.090  0.00  0.00    -0.268 OA
ATOM     17  H   UNL     1       0.069  -3.287   5.037  0.00  0.00    +0.178 HD
BRANCH  15  18
ATOM     18  C   UNL     1       0.105  -5.554   6.325  0.00  0.00    +0.057 A 
ATOM     19  C   UNL     1       0.089  -4.488   7.227  0.00  0.00    +0.016 A 
ATOM     20  C   UNL     1       0.099  -4.735   8.583  0.00  0.00    +0.021 A 
ATOM     21  C   UNL     1       0.124  -6.038   9.053  0.00  0.00    +0.042 A 
ATOM     22  C   UNL     1       0.140  -7.101   8.166  0.00  0.00    +0.040 A 
ATOM     23  C   UNL     1       0.124  -6.867   6.805  0.00  0.00    +0.054 A 
ATOM     24 CL   UNL     1       0.136  -8.200   5.693  0.00  0.00    -0.083 Cl
ATOM     25 CL   UNL     1       0.137  -6.340  10.763  0.00  0.00    -0.083 Cl
ENDBRANCH  15  18
ENDBRANCH  12  14
BRANCH   4  26
ATOM     26  N   UNL     1       0.028  -2.787  -2.517  0.00  0.00    +0.056 N 
ATOM     27  O   UNL     1       0.014  -2.164  -3.553  0.00  0.00    -0.126 OA
ATOM     28  O   UNL     1       0.044  -3.996  -2.539  0.00  0.00    -0.126 OA
ENDBRANCH   4  26
TORSDOF 3
