REMARK  Name = ZINC43684399
REMARK  5 active torsions:
REMARK  status: ('A' for Active; 'I' for Inactive)
REMARK    1  A    between atoms: N_9  and  C_12
REMARK    2  A    between atoms: C_12  and  C_13
REMARK    3  A    between atoms: C_16  and  C_18
REMARK    4  A    between atoms: C_19  and  C_20
REMARK    5  A    between atoms: C_20  and  N_21
REMARK                            x       y       z     vdW  Elec       q    Type
REMARK                         _______ _______ _______ _____ _____    ______ ____
ROOT
ATOM      1  C   UNL     1       2.670  -4.163  -0.046  0.00  0.00    +0.191 C 
ENDROOT
BRANCH   1  10
ATOM      2  C   UNL     1      -0.017   1.373   0.010  0.00  0.00    +0.001 A 
ATOM      3  C   UNL     1       1.170   2.095   0.002  0.00  0.00    +0.002 A 
ATOM      4  C   UNL     1       2.386   1.452  -0.013  0.00  0.00    +0.030 A 
ATOM      5  C   UNL     1       2.432   0.055  -0.021  0.00  0.00    +0.100 A 
ATOM      6  C   UNL     1       1.224  -0.675  -0.013  0.00  0.00    +0.068 A 
ATOM      7  C   UNL     1       0.002  -0.004   0.002  0.00  0.00    +0.015 A 
ATOM      8  C   UNL     1       1.298  -2.144  -0.022  0.00  0.00    +0.278 A 
ATOM      9  O   UNL     1       0.291  -2.829  -0.016  0.00  0.00    -0.265 OA
ATOM     10  N   UNL     1       2.530  -2.705  -0.037  0.00  0.00    -0.205 N 
ATOM     11  N   UNL     1       3.668  -1.894  -0.044  0.00  0.00    -0.062 NA
ATOM     12  N   UNL     1       3.612  -0.612  -0.037  0.00  0.00    -0.131 NA
ENDBRANCH   1  10
BRANCH   1  13
ATOM     13  C   UNL     1       2.704  -4.655  -1.470  0.00  0.00    +0.012 A 
ATOM     14  C   UNL     1       3.776  -4.838  -2.285  0.00  0.00    +0.014 A 
ATOM     15  C   UNL     1       3.574  -5.303  -3.565  0.00  0.00    +0.025 A 
ATOM     16  C   UNL     1       2.292  -5.567  -3.975  0.00  0.00    +0.062 A 
ATOM     17  S   UNL     1       1.347  -5.155  -2.517  0.00  0.00    -0.083 S 
BRANCH  16  18
ATOM     18  C   UNL     1       1.831  -6.051  -5.242  0.00  0.00    -0.061 C 
ATOM     19  C   UNL     1       1.454  -6.449  -6.280  0.00  0.00    -0.116 C 
BRANCH  19  20
ATOM     20  C   UNL     1       0.980  -6.947  -7.582  0.00  0.00    +0.005 C 
BRANCH  20  21
ATOM     21  N   UNL     1      -0.483  -7.075  -7.555  0.00  0.00    +0.385 N 
ATOM     22  H   UNL     1      -0.750  -7.723  -6.829  0.00  0.00    -0.089 HD
ATOM     23  H   UNL     1      -0.896  -6.173  -7.369  0.00  0.00    -0.089 HD
ATOM     24  H   UNL     1      -0.807  -7.416  -8.447  0.00  0.00    -0.089 HD
ENDBRANCH  20  21
ENDBRANCH  19  20
ENDBRANCH  16  18
ENDBRANCH   1  13
TORSDOF 5
