REMARK  Name = ZINC67028380
REMARK  6 active torsions:
REMARK  status: ('A' for Active; 'I' for Inactive)
REMARK    1  A    between atoms: C_1  and  C_2
REMARK    2  A    between atoms: C_3  and  C_16
REMARK    3  A    between atoms: C_4  and  C_11
REMARK    4  A    between atoms: N_9  and  C_10
REMARK    5  A    between atoms: N_18  and  C_19
REMARK    6  A    between atoms: C_22  and  N_25
REMARK                            x       y       z     vdW  Elec       q    Type
REMARK                         _______ _______ _______ _____ _____    ______ ____
ROOT
ATOM      1  C   UNL     1      -0.020   1.408   0.427  0.00  0.00    +0.061 C 
ATOM      2  C   UNL     1       0.027  -0.087   0.245  0.00  0.00    +0.019 C 
ATOM      3  C   UNL     1      -1.106  -0.809   0.383  0.00  0.00    +0.057 C 
ATOM      4  C   UNL     1      -1.014  -2.309   0.192  0.00  0.00    +0.158 C 
ATOM      5  N   UNL     1       0.313  -2.861  -0.130  0.00  0.00    -0.314 N 
ATOM      6  C   UNL     1       1.353  -2.010  -0.235  0.00  0.00    +0.137 C 
ATOM      7  S   UNL     1       2.901  -2.638  -0.609  0.00  0.00    -0.018 S 
ATOM      8  N   UNL     1       1.214  -0.690  -0.061  0.00  0.00    -0.289 N 
ATOM      9  C   UNL     1       2.402   0.155  -0.201  0.00  0.00    +0.137 C 
ATOM     10  H   UNL     1       0.435  -3.814  -0.263  0.00  0.00    +0.149 HD
ENDROOT
BRANCH   4  11
ATOM     11  C   UNL     1      -1.496  -2.969   1.459  0.00  0.00    +0.073 A 
ATOM     12  C   UNL     1      -2.492  -3.891   1.444  0.00  0.00    +0.072 A 
ATOM     13  S   UNL     1      -2.601  -4.285   3.182  0.00  0.00    -0.084 S 
ATOM     14  C   UNL     1      -1.389  -3.253   3.729  0.00  0.00    +0.156 A 
ATOM     15  N   UNL     1      -0.965  -2.681   2.630  0.00  0.00    -0.250 NA
ENDBRANCH   4  11
BRANCH   3  16
ATOM     16  C   UNL     1      -2.338  -0.184   0.696  0.00  0.00    +0.248 C 
ATOM     17  O   UNL     1      -2.388   1.023   0.845  0.00  0.00    -0.270 OA
ATOM     18  N   UNL     1      -3.455  -0.926   0.828  0.00  0.00    -0.282 N 
ATOM     19  H   UNL     1      -3.407  -1.893   0.754  0.00  0.00    +0.155 HD
BRANCH  18  20
ATOM     20  C   UNL     1      -4.683  -0.304   1.071  0.00  0.00    +0.034 A 
ATOM     21  C   UNL     1      -5.847  -0.820   0.517  0.00  0.00    +0.025 A 
ATOM     22  C   UNL     1      -7.059  -0.203   0.760  0.00  0.00    +0.034 A 
ATOM     23  C   UNL     1      -7.114   0.927   1.554  0.00  0.00    +0.126 A 
ATOM     24  C   UNL     1      -5.956   1.444   2.108  0.00  0.00    +0.034 A 
ATOM     25  C   UNL     1      -4.743   0.828   1.874  0.00  0.00    +0.025 A 
BRANCH  23  26
ATOM     26  N   UNL     1      -8.414   1.586   1.812  0.00  0.00    +0.056 N 
ATOM     27  O   UNL     1      -9.426   1.136   1.329  0.00  0.00    -0.126 OA
ATOM     28  O   UNL     1      -8.463   2.575   2.507  0.00  0.00    -0.126 OA
ENDBRANCH  23  26
ENDBRANCH  18  20
ENDBRANCH   3  16
TORSDOF 4
