REMARK  Name = ZINC13637232
REMARK  4 active torsions:
REMARK  status: ('A' for Active; 'I' for Inactive)
REMARK    1  A    between atoms: C_1  and  O_2
REMARK    2  A    between atoms: O_2  and  C_3
REMARK    3  A    between atoms: C_10  and  C_19
REMARK    4  A    between atoms: C_22  and  O_25
REMARK                            x       y       z     vdW  Elec       q    Type
REMARK                         _______ _______ _______ _____ _____    ______ ____
ROOT
ATOM      1  C   UNL     1      -0.537   3.682   2.644  0.00  0.00    +0.141 A 
ATOM      2  C   UNL     1      -0.082   4.939   2.990  0.00  0.00    +0.047 A 
ATOM      3  C   UNL     1       0.889   5.562   2.228  0.00  0.00    +0.004 A 
ATOM      4  C   UNL     1       1.397   4.923   1.113  0.00  0.00    +0.006 A 
ATOM      5  C   UNL     1       0.945   3.669   0.754  0.00  0.00    -0.016 A 
ATOM      6  C   UNL     1      -0.025   3.020   1.521  0.00  0.00    +0.074 A 
ATOM      7  N   UNL     1      -0.521   1.731   1.229  0.00  0.00    -0.334 N 
ATOM      8  C   UNL     1      -0.013   1.086   0.008  0.00  0.00    +0.105 C 
ATOM      9  C   UNL     1       1.454   1.446  -0.108  0.00  0.00    +0.029 C 
ATOM     10  C   UNL     1       1.460   2.970  -0.443  0.00  0.00    +0.049 C 
ATOM     11  C   UNL     1       2.834   3.196  -0.955  0.00  0.00    -0.023 C 
ATOM     12  C   UNL     1       3.273   2.066  -1.499  0.00  0.00    -0.030 C 
ATOM     13  C   UNL     1       2.214   0.971  -1.352  0.00  0.00    +0.033 C 
ATOM     14  H   UNL     1      -1.529   1.702   1.261  0.00  0.00    +0.147 HD
ENDROOT
BRANCH   8  15
ATOM     15  C   UNL     1      -0.764   1.596  -1.195  0.00  0.00    -0.027 A 
ATOM     16  C   UNL     1      -1.383   2.831  -1.149  0.00  0.00    +0.009 A 
ATOM     17  C   UNL     1      -2.067   3.303  -2.253  0.00  0.00    +0.046 A 
ATOM     18  C   UNL     1      -2.142   2.532  -3.403  0.00  0.00    +0.117 A 
ATOM     19  C   UNL     1      -1.525   1.290  -3.444  0.00  0.00    +0.046 A 
ATOM     20  C   UNL     1      -0.837   0.825  -2.340  0.00  0.00    +0.009 A 
BRANCH  18  21
ATOM     21  O   UNL     1      -2.819   2.992  -4.488  0.00  0.00    -0.507 OA
ATOM     22  H   UNL     1      -3.755   2.747  -4.501  0.00  0.00    +0.292 HD
ENDBRANCH  18  21
ENDBRANCH   8  15
BRANCH   1  24
ATOM     23  C   UNL     1      -1.974   3.805   4.534  0.00  0.00    +0.277 C 
ATOM     24  O   UNL     1      -1.492   3.080   3.401  0.00  0.00    -0.493 OA
ENDBRANCH   1  24
TORSDOF 3
