REMARK  Name = ZINC33170592
REMARK  12 active torsions:
REMARK  status: ('A' for Active; 'I' for Inactive)
REMARK    1  A    between atoms: C_1  and  C_2
REMARK    2  A    between atoms: C_5  and  C_22
REMARK    3  A    between atoms: C_7  and  S_8
REMARK    4  A    between atoms: S_8  and  N_11
REMARK    5  A    between atoms: N_11  and  C_12
REMARK    6  A    between atoms: C_12  and  C_13
REMARK    7  A    between atoms: C_13  and  C_15
REMARK    8  A    between atoms: C_13  and  C_16
REMARK    9  A    between atoms: C_23  and  C_24
REMARK   10  A    between atoms: C_25  and  N_30
REMARK   11  A    between atoms: C_26  and  C_29
REMARK   12  A    between atoms: C_31  and  C_33
REMARK                            x       y       z     vdW  Elec       q    Type
REMARK                         _______ _______ _______ _____ _____    ______ ____
ROOT
ATOM      1  C   UNL     1      -7.914  -0.578   1.518  0.00  0.00    +0.046 C 
ATOM      2  C   UNL     1      -7.308   0.795   1.384  0.00  0.00    -0.024 A 
ATOM      3  C   UNL     1      -6.047   0.940   0.833  0.00  0.00    +0.006 A 
ATOM      4  C   UNL     1      -5.485   2.193   0.708  0.00  0.00    +0.008 A 
ATOM      5  C   UNL     1      -6.194   3.319   1.139  0.00  0.00    -0.023 A 
ATOM      6  C   UNL     1      -7.465   3.163   1.700  0.00  0.00    +0.036 A 
ATOM      7  C   UNL     1      -8.015   1.904   1.815  0.00  0.00    +0.109 A 
ENDROOT
BRANCH   7   8
ATOM      8  S   UNL     1      -9.619   1.706   2.516  0.00  0.00    +0.059 S 
ATOM      9  O   UNL     1     -10.039   2.995   2.940  0.00  0.00    -0.153 OA
ATOM     10  O   UNL     1     -10.370   0.924   1.597  0.00  0.00    -0.153 OA
BRANCH   8  11
ATOM     11  N   UNL     1      -9.445   0.791   3.885  0.00  0.00    -0.189 NA
ATOM     12  H   UNL     1      -9.769  -0.260   3.874  0.00  0.00    +0.148 HD
BRANCH  11  13
ATOM     13  C   UNL     1      -8.674   1.308   5.018  0.00  0.00    +0.113 C 
BRANCH  13  14
ATOM     14  C   UNL     1      -9.002   0.495   6.272  0.00  0.00    +0.031 C 
ATOM     15  C   UNL     1     -10.469   0.711   6.650  0.00  0.00    +0.014 C 
BRANCH  14  16
ATOM     16  C   UNL     1      -8.120   0.945   7.408  0.00  0.00    -0.043 A 
ATOM     17  C   UNL     1      -8.160   2.259   7.836  0.00  0.00    +0.004 A 
ATOM     18  C   UNL     1      -7.354   2.670   8.881  0.00  0.00    +0.000 A 
ATOM     19  C   UNL     1      -6.501   1.770   9.491  0.00  0.00    +0.000 A 
ATOM     20  C   UNL     1      -6.457   0.458   9.060  0.00  0.00    +0.000 A 
ATOM     21  C   UNL     1      -7.266   0.045   8.018  0.00  0.00    +0.004 A 
ENDBRANCH  14  16
ENDBRANCH  13  14
ENDBRANCH  11  13
ENDBRANCH   8  11
ENDBRANCH   7   8
BRANCH   5  22
ATOM     22  C   UNL     1      -5.601   4.660   1.010  0.00  0.00    +0.012 C 
ATOM     23  C   UNL     1      -6.315   5.662   0.459  0.00  0.00    +0.051 C 
BRANCH  23  24
ATOM     24  C   UNL     1      -7.511   5.362  -0.328  0.00  0.00    +0.182 A 
ATOM     25  C   UNL     1      -8.416   6.272  -0.861  0.00  0.00    +0.103 A 
ATOM     26  C   UNL     1      -9.367   5.452  -1.511  0.00  0.00    +0.102 A 
ATOM     27  N   UNL     1      -8.980   4.220  -1.336  0.00  0.00    -0.081 NA
ATOM     28  O   UNL     1      -7.965   4.143  -0.686  0.00  0.00    -0.353 OA
ATOM     29  C   UNL     1     -10.589   5.913  -2.263  0.00  0.00    +0.071 C 
BRANCH  25  30
ATOM     30  N   UNL     1      -8.394   7.670  -0.770  0.00  0.00    -0.281 N 
ATOM     31  C   UNL     1      -8.951   8.417  -1.744  0.00  0.00    +0.214 C 
ATOM     32  O   UNL     1      -9.404   7.883  -2.734  0.00  0.00    -0.276 OA
ATOM     33  C   UNL     1      -9.018   9.916  -1.598  0.00  0.00    +0.109 C 
ATOM     34  H   UNL     1      -7.921   8.158   0.095  0.00  0.00    +0.155 HD
ENDBRANCH  25  30
ENDBRANCH  23  24
ENDBRANCH   5  22
TORSDOF 8
