REMARK  Name = ZINC38999062
REMARK  6 active torsions:
REMARK  status: ('A' for Active; 'I' for Inactive)
REMARK    1  A    between atoms: C_1  and  C_2
REMARK    2  A    between atoms: C_4  and  C_8
REMARK    3  A    between atoms: C_12  and  S_16
REMARK    4  A    between atoms: N_14  and  N_15
REMARK    5  A    between atoms: S_16  and  C_17
REMARK    6  A    between atoms: C_17  and  C_18
REMARK                            x       y       z     vdW  Elec       q    Type
REMARK                         _______ _______ _______ _____ _____    ______ ____
ROOT
ATOM      1  C   UNL     1      -0.983  -2.935  -1.270  0.00  0.00    +0.185 C 
ATOM      2  N   UNL     1      -2.466  -2.997  -1.349  0.00  0.00    -0.234 NA
ATOM      3  N   UNL     1      -2.741  -4.167  -2.187  0.00  0.00    -0.228 NA
ATOM      4  C   UNL     1      -1.559  -5.048  -2.094  0.00  0.00    +0.214 C 
ATOM      5  N   UNL     1      -0.593  -4.368  -1.198  0.00  0.00    -0.197 NA
ATOM      6  H   UNL     1      -2.841  -2.158  -1.764  0.00  0.00    +0.143 HD
ATOM      7  H   UNL     1      -3.574  -4.645  -1.879  0.00  0.00    +0.143 HD
ENDROOT
BRANCH   1  11
ATOM      8  C   UNL     1      -0.028   1.505   0.005  0.00  0.00    +0.067 C 
ATOM      9  C   UNL     1      -0.006  -0.002  -0.003  0.00  0.00    +0.058 C 
ATOM     10  C   UNL     1      -1.094  -0.775  -0.001  0.00  0.00    +0.029 C 
ATOM     11  C   UNL     1      -0.538  -2.188  -0.012  0.00  0.00    +0.186 C 
ATOM     12  N   UNL     1       0.919  -1.970  -0.019  0.00  0.00    -0.177 NA
ATOM     13  N   UNL     1       1.117  -0.753  -0.020  0.00  0.00    -0.159 NA
ENDBRANCH   1  11
BRANCH   5  14
ATOM     14  N   UNL     1       0.774  -4.560  -1.657  0.00  0.00    -0.264 NA
ATOM     15  H   UNL     1       1.039  -5.532  -1.608  0.00  0.00    +0.137 HD
ATOM     16  H   UNL     1       0.895  -4.199  -2.591  0.00  0.00    +0.137 HD
ENDBRANCH   5  14
BRANCH   4  17
ATOM     17  S   UNL     1      -2.035  -6.654  -1.398  0.00  0.00    -0.115 S 
BRANCH  17  18
ATOM     18  C   UNL     1      -2.744  -6.239   0.220  0.00  0.00    +0.168 C 
BRANCH  18  19
ATOM     19  C   UNL     1      -3.186  -7.501   0.913  0.00  0.00    +0.228 C 
ATOM     20  O   UNL     1      -3.038  -8.575   0.370  0.00  0.00    -0.275 OA
ATOM     21  N   UNL     1      -3.747  -7.436   2.138  0.00  0.00    -0.270 N 
ATOM     22  C   UNL     1      -4.252  -8.591   2.735  0.00  0.00    +0.125 A 
ATOM     23  C   UNL     1      -4.923  -8.501   3.949  0.00  0.00    +0.045 A 
ATOM     24  C   UNL     1      -5.419  -9.653   4.531  0.00  0.00    +0.020 A 
ATOM     25  C   UNL     1      -5.228 -10.862   3.875  0.00  0.00    +0.036 A 
ATOM     26  C   UNL     1      -4.551 -10.878   2.670  0.00  0.00    +0.128 A 
ATOM     27  N   UNL     1      -4.093  -9.761   2.138  0.00  0.00    -0.239 NA
ATOM     28 BR   UNL     1      -5.884 -12.470   4.623  0.00  0.00    -0.049 Br
ATOM     29  H   UNL     1      -3.798  -6.587   2.603  0.00  0.00    +0.156 HD
ENDBRANCH  18  19
ENDBRANCH  17  18
ENDBRANCH   4  17
TORSDOF 5
