REMARK  Name = ZINC39685237
REMARK  6 active torsions:
REMARK  status: ('A' for Active; 'I' for Inactive)
REMARK    1  A    between atoms: C_5  and  O_7
REMARK    2  A    between atoms: O_7  and  C_8
REMARK    3  A    between atoms: C_8  and  C_9
REMARK    4  A    between atoms: C_9  and  N_10
REMARK    5  A    between atoms: C_11  and  C_13
REMARK    6  A    between atoms: C_24  and  C_26
REMARK                            x       y       z     vdW  Elec       q    Type
REMARK                         _______ _______ _______ _____ _____    ______ ____
ROOT
ATOM      1  C   UNL     1       1.834  -6.340   2.711  0.00  0.00    +0.100 C 
ATOM      2  C   UNL     1       3.277  -5.790   2.756  0.00  0.00    +0.121 C 
ATOM      3  N   UNL     1       4.069  -6.867   3.396  0.00  0.00    -0.296 N 
ATOM      4  C   UNL     1       3.511  -8.120   2.831  0.00  0.00    +0.115 C 
ATOM      5  C   UNL     1       1.992  -7.869   2.760  0.00  0.00    -0.004 C 
ATOM      6  C   UNL     1       1.305  -8.431   4.001  0.00  0.00    -0.010 C 
ATOM      7  C   UNL     1       1.427  -9.958   3.998  0.00  0.00    -0.082 C 
ATOM      8  N   UNL     1       0.805 -10.497   2.783  0.00  0.00    +0.379 N 
ATOM      9  C   UNL     1       1.529 -10.025   1.597  0.00  0.00    -0.082 C 
ATOM     10  C   UNL     1       1.412  -8.501   1.498  0.00  0.00    -0.010 C 
ATOM     11  C   UNL     1       5.069  -6.738   4.290  0.00  0.00    +0.252 C 
ATOM     12  O   UNL     1       5.625  -7.727   4.727  0.00  0.00    -0.270 OA
ATOM     13  H   UNL     1       0.832 -11.506   2.812  0.00  0.00    -0.086 HD
ATOM     14  H   UNL     1      -0.155 -10.191   2.733  0.00  0.00    -0.086 HD
ENDROOT
BRANCH  11  15
ATOM     15  C   UNL     1       5.488  -5.396   4.739  0.00  0.00    +0.108 A 
ATOM     16  C   UNL     1       4.890  -4.811   5.860  0.00  0.00    +0.138 A 
ATOM     17  C   UNL     1       5.289  -3.554   6.275  0.00  0.00    +0.041 A 
ATOM     18  C   UNL     1       6.276  -2.874   5.584  0.00  0.00    +0.026 A 
ATOM     19  C   UNL     1       6.872  -3.445   4.473  0.00  0.00    +0.077 A 
ATOM     20  C   UNL     1       6.489  -4.705   4.049  0.00  0.00    +0.156 A 
ATOM     21  F   UNL     1       7.077  -5.264   2.968  0.00  0.00    -0.203 F 
ATOM     22 CL   UNL     1       8.109  -2.582   3.615  0.00  0.00    -0.081 Cl
ATOM     23  F   UNL     1       3.925  -5.472   6.536  0.00  0.00    -0.205 F 
ENDBRANCH  11  15
BRANCH   1  25
ATOM     24  N   UNL     1      -0.185  -5.768   1.401  0.00  0.00    -0.312 N 
ATOM     25  C   UNL     1       1.154  -5.923   1.432  0.00  0.00    +0.218 C 
ATOM     26  O   UNL     1       1.810  -5.727   0.431  0.00  0.00    -0.275 OA
ATOM     27  H   UNL     1      -0.710  -5.925   2.201  0.00  0.00    +0.149 HD
BRANCH  24  28
ATOM     28  C   UNL     1      -0.846  -5.363   0.158  0.00  0.00    +0.145 C 
BRANCH  28  29
ATOM     29  C   UNL     1      -2.355  -5.261   0.393  0.00  0.00    +0.248 C 
BRANCH  29  30
ATOM     30  O   UNL     1      -2.622  -4.209   1.323  0.00  0.00    -0.488 OA
BRANCH  30  35
ATOM     31  C   UNL     1      -6.245  -4.528   1.400  0.00  0.00    +0.004 A 
ATOM     32  C   UNL     1      -6.574  -3.526   2.295  0.00  0.00    +0.003 A 
ATOM     33  C   UNL     1      -5.581  -2.752   2.865  0.00  0.00    +0.042 A 
ATOM     34  C   UNL     1      -4.255  -2.978   2.541  0.00  0.00    +0.165 A 
ATOM     35  C   UNL     1      -3.924  -3.984   1.643  0.00  0.00    +0.156 A 
ATOM     36  C   UNL     1      -4.923  -4.759   1.074  0.00  0.00    +0.048 A 
ATOM     37  F   UNL     1      -3.285  -2.220   3.097  0.00  0.00    -0.202 F 
ENDBRANCH  30  35
ENDBRANCH  29  30
ENDBRANCH  28  29
ENDBRANCH  24  28
ENDBRANCH   1  25
TORSDOF 6
