REMARK  Name = ZINC02247168
REMARK  6 active torsions:
REMARK  status: ('A' for Active; 'I' for Inactive)
REMARK    1  A    between atoms: C_1  and  C_2
REMARK    2  A    between atoms: C_2  and  C_3
REMARK    3  A    between atoms: C_6  and  N_9
REMARK    4  A    between atoms: C_23  and  C_32
REMARK    5  A    between atoms: N_25  and  C_26
REMARK    6  A    between atoms: C_33  and  C_35
REMARK                            x       y       z     vdW  Elec       q    Type
REMARK                         _______ _______ _______ _____ _____    ______ ____
ROOT
ATOM      1  N   UNL     1      -0.417   3.353   7.313  0.00  0.00    -0.297 N 
ATOM      2  C   UNL     1       0.670   3.106   6.495  0.00  0.00    +0.164 C 
ATOM      3  N   UNL     1       1.885   3.226   6.968  0.00  0.00    -0.227 NA
ATOM      4  C   UNL     1       2.977   2.992   6.196  0.00  0.00    +0.087 A 
ATOM      5  C   UNL     1       4.260   3.131   6.738  0.00  0.00    +0.030 A 
ATOM      6  C   UNL     1       5.367   2.893   5.954  0.00  0.00    +0.002 A 
ATOM      7  C   UNL     1       5.220   2.516   4.628  0.00  0.00    +0.002 A 
ATOM      8  C   UNL     1       3.963   2.374   4.077  0.00  0.00    +0.025 A 
ATOM      9  C   UNL     1       2.834   2.609   4.851  0.00  0.00    +0.062 A 
ATOM     10  N   UNL     1       1.569   2.471   4.309  0.00  0.00    -0.269 N 
ATOM     11  C   UNL     1       0.460   2.708   5.090  0.00  0.00    +0.169 C 
ATOM     12  N   UNL     1      -0.757   2.590   4.620  0.00  0.00    -0.209 NA
ATOM     13  C   UNL     1      -1.056   2.232   3.352  0.00  0.00    +0.164 A 
ATOM     14  C   UNL     1      -0.052   1.958   2.438  0.00  0.00    +0.044 A 
ATOM     15  C   UNL     1      -0.646   1.621   1.230  0.00  0.00    +0.068 A 
ATOM     16  N   UNL     1      -1.948   1.685   1.373  0.00  0.00    -0.169 NA
ATOM     17  N   UNL     1      -2.242   2.059   2.691  0.00  0.00    -0.214 N 
ATOM     18  C   UNL     1       0.083   1.252  -0.035  0.00  0.00    +0.068 C 
ATOM     19  C   UNL     1       1.381   2.073   2.907  0.00  0.00    +0.146 C 
ATOM     20  H   UNL     1      -1.314   3.341   6.944  0.00  0.00    +0.154 HD
ENDROOT
BRANCH  19  21
ATOM     21  C   UNL     1       2.082   3.081   2.034  0.00  0.00    -0.022 A 
ATOM     22  C   UNL     1       1.910   4.433   2.266  0.00  0.00    +0.008 A 
ATOM     23  C   UNL     1       2.557   5.359   1.469  0.00  0.00    +0.038 A 
ATOM     24  C   UNL     1       3.368   4.932   0.431  0.00  0.00    +0.123 A 
ATOM     25  C   UNL     1       3.534   3.578   0.196  0.00  0.00    +0.038 A 
ATOM     26  C   UNL     1       2.891   2.654   0.998  0.00  0.00    +0.008 A 
ATOM     27  F   UNL     1       3.995   5.836  -0.352  0.00  0.00    -0.205 F 
ENDBRANCH  19  21
BRANCH   1  31
ATOM     28  C   UNL     1       0.159   4.150  11.359  0.00  0.00    -0.048 A 
ATOM     29  C   UNL     1      -0.885   4.750  10.680  0.00  0.00    +0.005 A 
ATOM     30  C   UNL     1      -1.079   4.488   9.338  0.00  0.00    +0.023 A 
ATOM     31  C   UNL     1      -0.224   3.620   8.671  0.00  0.00    +0.032 A 
ATOM     32  C   UNL     1       0.821   3.015   9.357  0.00  0.00    +0.023 A 
ATOM     33  C   UNL     1       1.013   3.286  10.698  0.00  0.00    +0.005 A 
BRANCH  28  35
ATOM     34  C   UNL     1      -0.420   3.427  13.660  0.00  0.00    +0.009 C 
ATOM     35  C   UNL     1       0.367   4.438  12.824  0.00  0.00    +0.032 C 
ENDBRANCH  28  35
ENDBRANCH   1  31
BRANCH  17  36
ATOM     36  C   UNL     1      -3.522   2.232   3.233  0.00  0.00    +0.068 A 
ATOM     37  C   UNL     1      -3.768   1.891   4.557  0.00  0.00    +0.028 A 
ATOM     38  C   UNL     1      -5.030   2.067   5.090  0.00  0.00    +0.002 A 
ATOM     39  C   UNL     1      -6.050   2.572   4.305  0.00  0.00    +0.000 A 
ATOM     40  C   UNL     1      -5.809   2.907   2.985  0.00  0.00    +0.002 A 
ATOM     41  C   UNL     1      -4.548   2.738   2.447  0.00  0.00    +0.028 A 
ENDBRANCH  17  36
TORSDOF 4
