REMARK  Name = ZINC41005695
REMARK  5 active torsions:
REMARK  status: ('A' for Active; 'I' for Inactive)
REMARK    1  A    between atoms: C_1  and  C_2
REMARK    2  A    between atoms: C_2  and  C_28
REMARK    3  A    between atoms: C_3  and  C_24
REMARK    4  A    between atoms: C_5  and  C_7
REMARK    5  A    between atoms: C_13  and  C_18
REMARK                            x       y       z     vdW  Elec       q    Type
REMARK                         _______ _______ _______ _____ _____    ______ ____
ROOT
ATOM      1  C   UNL     1       0.116  -2.011   1.645  0.00  0.00    +0.223 C 
ATOM      2  O   UNL     1      -0.874  -2.464   1.110  0.00  0.00    -0.275 OA
ATOM      3  N   UNL     1       0.691  -2.673   2.668  0.00  0.00    -0.263 N 
ATOM      4  C   UNL     1       0.151  -3.875   3.109  0.00  0.00    +0.188 A 
ATOM      5  N   UNL     1       0.558  -4.652   4.078  0.00  0.00    -0.140 NA
ATOM      6  N   UNL     1      -0.110  -5.830   4.385  0.00  0.00    -0.184 N 
ATOM      7  C   UNL     1      -0.030  -6.890   5.276  0.00  0.00    +0.186 A 
ATOM      8  N   UNL     1      -1.023  -7.710   5.013  0.00  0.00    -0.126 NA
ATOM      9  N   UNL     1      -1.719  -7.253   4.031  0.00  0.00    -0.120 NA
ATOM     10  C   UNL     1      -1.210  -6.128   3.622  0.00  0.00    +0.220 A 
ATOM     11  S   UNL     1      -1.282  -4.751   2.503  0.00  0.00    -0.011 S 
ATOM     12  H   UNL     1       1.483  -2.311   3.097  0.00  0.00    +0.157 HD
ENDROOT
BRANCH   7  13
ATOM     13  C   UNL     1       0.988  -7.066   6.332  0.00  0.00    +0.021 A 
ATOM     14  C   UNL     1       2.155  -6.299   6.315  0.00  0.00    +0.011 A 
ATOM     15  C   UNL     1       3.102  -6.468   7.304  0.00  0.00    +0.001 A 
ATOM     16  C   UNL     1       2.897  -7.395   8.311  0.00  0.00    +0.000 A 
ATOM     17  C   UNL     1       1.744  -8.158   8.333  0.00  0.00    +0.001 A 
ATOM     18  C   UNL     1       0.786  -7.995   7.353  0.00  0.00    +0.011 A 
ENDBRANCH   7  13
BRANCH   1  22
ATOM     19  C   UNL     1      -0.019   1.526   0.010  0.00  0.00    +0.012 C 
ATOM     20  C   UNL     1       0.002  -0.004   0.002  0.00  0.00    -0.016 C 
ATOM     21  C   UNL     1       1.351  -0.691  -0.218  0.00  0.00    +0.033 C 
ATOM     22  C   UNL     1       0.701  -0.708   1.167  0.00  0.00    +0.089 C 
ATOM     23  C   UNL     1      -1.239  -0.678  -0.588  0.00  0.00    +0.012 C 
BRANCH  21  24
ATOM     24  C   UNL     1       2.558   0.191  -0.410  0.00  0.00    +0.010 C 
ATOM     25  C   UNL     1       3.255   0.117  -1.521  0.00  0.00    +0.103 C 
ATOM     26 CL   UNL     1       2.786  -0.997  -2.768  0.00  0.00    -0.071 Cl
ATOM     27 CL   UNL     1       4.645   1.133  -1.743  0.00  0.00    -0.071 Cl
ENDBRANCH  21  24
ENDBRANCH   1  22
TORSDOF 3
