REMARK  Name = ZINC59644987
REMARK  10 active torsions:
REMARK  status: ('A' for Active; 'I' for Inactive)
REMARK    1  A    between atoms: C_1  and  C_2
REMARK    2  A    between atoms: C_2  and  O_3
REMARK    3  A    between atoms: O_3  and  C_4
REMARK    4  A    between atoms: C_6  and  C_20
REMARK    5  A    between atoms: C_9  and  O_10
REMARK    6  A    between atoms: O_10  and  C_11
REMARK    7  A    between atoms: C_11  and  C_12
REMARK    8  A    between atoms: N_21  and  N_22
REMARK    9  A    between atoms: C_23  and  C_25
REMARK   10  A    between atoms: C_25  and  C_26
REMARK                            x       y       z     vdW  Elec       q    Type
REMARK                         _______ _______ _______ _____ _____    ______ ____
ROOT
ATOM      1  C   UNL     1      -1.498  -1.849   0.006  0.00  0.00    +0.164 A 
ATOM      2  C   UNL     1      -0.391  -2.676  -0.003  0.00  0.00    +0.059 A 
ATOM      3  C   UNL     1      -0.558  -4.063  -0.009  0.00  0.00    -0.001 A 
ATOM      4  C   UNL     1      -1.845  -4.608  -0.005  0.00  0.00    +0.028 A 
ATOM      5  C   UNL     1      -2.946  -3.777   0.004  0.00  0.00    +0.064 A 
ATOM      6  C   UNL     1      -2.778  -2.399   0.016  0.00  0.00    +0.176 A 
ATOM      7 BR   UNL     1      -4.686  -4.516   0.009  0.00  0.00    -0.046 Br
ENDROOT
BRANCH   3   8
ATOM      8  C   UNL     1       0.620  -4.950  -0.019  0.00  0.00    +0.138 C 
ATOM      9  N   UNL     1       0.463  -6.238  -0.025  0.00  0.00    -0.188 NA
BRANCH   9  10
ATOM     10  N   UNL     1       1.582  -7.080  -0.035  0.00  0.00    -0.207 N 
ATOM     11  C   UNL     1       1.419  -8.418  -0.040  0.00  0.00    +0.238 C 
ATOM     12  O   UNL     1       0.302  -8.893  -0.037  0.00  0.00    -0.274 OA
ATOM     13  H   UNL     1       2.475  -6.701  -0.037  0.00  0.00    +0.177 HD
BRANCH  11  14
ATOM     14  C   UNL     1       2.623  -9.324  -0.051  0.00  0.00    +0.153 C 
BRANCH  14  15
ATOM     15  C   UNL     1       2.170 -10.762  -0.055  0.00  0.00    +0.059 A 
ATOM     16  C   UNL     1       2.588 -11.632  -1.005  0.00  0.00    +0.072 A 
ATOM     17  S   UNL     1       1.742 -13.118  -0.492  0.00  0.00    -0.061 S 
ATOM     18  C   UNL     1       0.957 -12.486   0.856  0.00  0.00    +0.156 A 
ATOM     19  N   UNL     1       1.351 -11.230   0.870  0.00  0.00    -0.230 NA
ATOM     20  N   UNL     1       0.106 -13.132   1.739  0.00  0.00    -0.338 N 
ATOM     21  H   UNL     1      -0.100 -14.071   1.614  0.00  0.00    +0.144 HD
ATOM     22  H   UNL     1      -0.283 -12.644   2.482  0.00  0.00    +0.144 HD
ENDBRANCH  14  15
ENDBRANCH  11  14
ENDBRANCH   9  10
ENDBRANCH   3   8
BRANCH   1  23
ATOM     23  O   UNL     1      -1.339  -0.499   0.012  0.00  0.00    -0.489 OA
BRANCH  23  25
ATOM     24  C   UNL     1      -0.019   1.526   0.010  0.00  0.00    +0.048 C 
ATOM     25  C   UNL     1       0.002  -0.004   0.002  0.00  0.00    +0.226 C 
ENDBRANCH  23  25
ENDBRANCH   1  23
BRANCH   6  26
ATOM     26  O   UNL     1      -3.866  -1.584   0.030  0.00  0.00    -0.483 OA
BRANCH  26  27
ATOM     27  C   UNL     1      -4.397  -1.188  -1.236  0.00  0.00    +0.267 C 
BRANCH  27  28
ATOM     28  C   UNL     1      -5.591  -0.293  -1.022  0.00  0.00    +0.025 A 
ATOM     29  C   UNL     1      -5.998   0.021   0.261  0.00  0.00    +0.010 A 
ATOM     30  C   UNL     1      -7.093   0.842   0.457  0.00  0.00    +0.001 A 
ATOM     31  C   UNL     1      -7.782   1.349  -0.629  0.00  0.00    +0.003 A 
ATOM     32  C   UNL     1      -7.377   1.036  -1.913  0.00  0.00    +0.039 A 
ATOM     33  C   UNL     1      -6.277   0.218  -2.111  0.00  0.00    +0.130 A 
ATOM     34  F   UNL     1      -5.876  -0.084  -3.365  0.00  0.00    -0.205 F 
ENDBRANCH  27  28
ENDBRANCH  26  27
ENDBRANCH   6  26
TORSDOF 9
