REMARK  Name = ZINC28419068
REMARK  9 active torsions:
REMARK  status: ('A' for Active; 'I' for Inactive)
REMARK    1  A    between atoms: C_1  and  C_2
REMARK    2  A    between atoms: C_2  and  C_3
REMARK    3  A    between atoms: C_3  and  N_4
REMARK    4  A    between atoms: C_14  and  S_15
REMARK    5  A    between atoms: S_15  and  C_16
REMARK    6  A    between atoms: C_16  and  C_17
REMARK    7  A    between atoms: N_19  and  C_20
REMARK    8  A    between atoms: C_24  and  N_27
REMARK    9  A    between atoms: C_25  and  C_26
REMARK                            x       y       z     vdW  Elec       q    Type
REMARK                         _______ _______ _______ _____ _____    ______ ____
ROOT
ATOM      1  S   UNL     1      -2.993  -4.014   0.866  0.00  0.00    -0.078 S 
ENDROOT
BRANCH   1  12
ATOM      2  N   UNL     1      -0.347  -4.372   1.234  0.00  0.00    -0.287 N 
ATOM      3  C   UNL     1       0.933  -3.981   1.432  0.00  0.00    +0.262 A 
ATOM      4  O   UNL     1       1.834  -4.793   1.534  0.00  0.00    -0.267 OA
ATOM      5  C   UNL     1       1.196  -2.538   1.520  0.00  0.00    +0.065 A 
ATOM      6  C   UNL     1       2.479  -2.033   1.724  0.00  0.00    +0.015 A 
ATOM      7  C   UNL     1       2.668  -0.681   1.798  0.00  0.00    +0.001 A 
ATOM      8  C   UNL     1       1.595   0.193   1.674  0.00  0.00    +0.002 A 
ATOM      9  C   UNL     1       0.327  -0.274   1.475  0.00  0.00    +0.028 A 
ATOM     10  C   UNL     1       0.102  -1.651   1.393  0.00  0.00    +0.079 A 
ATOM     11  N   UNL     1      -1.133  -2.155   1.198  0.00  0.00    -0.223 NA
ATOM     12  C   UNL     1      -1.345  -3.446   1.123  0.00  0.00    +0.173 A 
BRANCH   2  13
ATOM     13  C   UNL     1      -0.665  -5.799   1.138  0.00  0.00    +0.127 C 
BRANCH  13  15
ATOM     14  C   UNL     1      -1.313  -7.836   2.432  0.00  0.00    +0.005 C 
ATOM     15  C   UNL     1      -0.981  -6.345   2.532  0.00  0.00    +0.018 C 
ENDBRANCH  13  15
ENDBRANCH   2  13
ENDBRANCH   1  12
BRANCH   1  16
ATOM     16  C   UNL     1      -3.864  -2.429   0.796  0.00  0.00    +0.173 C 
BRANCH  16  17
ATOM     17  C   UNL     1      -5.335  -2.673   0.576  0.00  0.00    +0.227 C 
ATOM     18  O   UNL     1      -5.753  -3.807   0.476  0.00  0.00    -0.275 OA
ATOM     19  N   UNL     1      -6.185  -1.631   0.490  0.00  0.00    -0.285 N 
ATOM     20  H   UNL     1      -5.821  -0.608   0.664  0.00  0.00    +0.155 HD
BRANCH  19  21
ATOM     21  C   UNL     1      -7.532  -1.851   0.179  0.00  0.00    +0.038 A 
ATOM     22  C   UNL     1      -7.919  -3.035  -0.436  0.00  0.00    +0.024 A 
ATOM     23  C   UNL     1      -9.249  -3.249  -0.741  0.00  0.00    +0.004 A 
ATOM     24  C   UNL     1     -10.194  -2.287  -0.435  0.00  0.00    +0.033 A 
ATOM     25  C   UNL     1      -9.812  -1.108   0.178  0.00  0.00    +0.131 A 
ATOM     26  C   UNL     1      -8.484  -0.890   0.490  0.00  0.00    +0.001 A 
ATOM     27  C   UNL     1      -8.068   0.393   1.164  0.00  0.00    +0.048 C 
BRANCH  25  28
ATOM     28  N   UNL     1     -10.826  -0.081   0.504  0.00  0.00    +0.057 N 
ATOM     29  O   UNL     1     -12.010  -0.327   0.359  0.00  0.00    -0.126 OA
ATOM     30  O   UNL     1     -10.477   1.011   0.916  0.00  0.00    -0.126 OA
ENDBRANCH  25  28
ENDBRANCH  19  21
ENDBRANCH  16  17
ENDBRANCH   1  16
TORSDOF 7
