REMARK  Name = ZINC12539023
REMARK  10 active torsions:
REMARK  status: ('A' for Active; 'I' for Inactive)
REMARK    1  A    between atoms: C_1  and  C_2
REMARK    2  A    between atoms: C_5  and  S_8
REMARK    3  A    between atoms: S_8  and  N_11
REMARK    4  A    between atoms: N_11  and  C_12
REMARK    5  A    between atoms: N_11  and  C_13
REMARK    6  A    between atoms: C_13  and  C_14
REMARK    7  A    between atoms: C_17  and  C_20
REMARK    8  A    between atoms: N_22  and  N_23
REMARK    9  A    between atoms: N_23  and  C_24
REMARK   10  A    between atoms: N_29  and  C_32
REMARK                            x       y       z     vdW  Elec       q    Type
REMARK                         _______ _______ _______ _____ _____    ______ ____
ROOT
ATOM      1  C   UNL     1       5.780  -0.598  -1.721  0.00  0.00    +0.258 C 
ATOM      2  O   UNL     1       5.380   0.276  -2.465  0.00  0.00    -0.269 OA
ATOM      3  N   UNL     1       6.970  -0.464  -1.102  0.00  0.00    -0.246 N 
ATOM      4  H   UNL     1       7.289  -1.162  -0.509  0.00  0.00    +0.169 HD
ENDROOT
BRANCH   1   8
ATOM      5  C   UNL     1       3.428  -4.076  -1.072  0.00  0.00    -0.032 A 
ATOM      6  C   UNL     1       2.970  -3.082  -1.919  0.00  0.00    +0.006 A 
ATOM      7  C   UNL     1       3.729  -1.950  -2.134  0.00  0.00    +0.013 A 
ATOM      8  C   UNL     1       4.961  -1.809  -1.495  0.00  0.00    +0.038 A 
ATOM      9  C   UNL     1       5.418  -2.814  -0.642  0.00  0.00    +0.013 A 
ATOM     10  C   UNL     1       4.647  -3.939  -0.431  0.00  0.00    +0.006 A 
BRANCH   5  11
ATOM     11  C   UNL     1       2.594  -5.309  -0.842  0.00  0.00    +0.144 C 
BRANCH  11  12
ATOM     12  N   UNL     1       1.777  -5.129   0.361  0.00  0.00    -0.175 NA
ATOM     13  C   UNL     1       2.345  -5.413   1.681  0.00  0.00    +0.132 C 
BRANCH  12  14
ATOM     14  S   UNL     1       0.212  -4.604   0.228  0.00  0.00    +0.061 S 
ATOM     15  O   UNL     1       0.089  -4.017  -1.060  0.00  0.00    -0.153 OA
ATOM     16  O   UNL     1      -0.080  -3.891   1.421  0.00  0.00    -0.153 OA
BRANCH  14  21
ATOM     17  C   UNL     1      -3.319  -9.497   0.235  0.00  0.00    +0.044 C 
ATOM     18  C   UNL     1      -2.437  -8.275   0.233  0.00  0.00    -0.050 A 
ATOM     19  C   UNL     1      -2.030  -7.714   1.429  0.00  0.00    +0.005 A 
ATOM     20  C   UNL     1      -1.221  -6.594   1.428  0.00  0.00    +0.029 A 
ATOM     21  C   UNL     1      -0.818  -6.034   0.230  0.00  0.00    +0.105 A 
ATOM     22  C   UNL     1      -1.224  -6.595  -0.967  0.00  0.00    +0.029 A 
ATOM     23  C   UNL     1      -2.030  -7.718  -0.965  0.00  0.00    +0.005 A 
ENDBRANCH  14  21
ENDBRANCH  12  14
ENDBRANCH  11  12
ENDBRANCH   5  11
ENDBRANCH   1   8
BRANCH   3  24
ATOM     24  N   UNL     1       7.726   0.654  -1.312  0.00  0.00    -0.228 NA
ATOM     25  H   UNL     1       7.911   0.787  -2.294  0.00  0.00    +0.145 HD
BRANCH  24  26
ATOM     26  C   UNL     1       8.977   0.594  -0.544  0.00  0.00    +0.168 C 
ATOM     27  C   UNL     1       9.475   2.014  -0.206  0.00  0.00    +0.126 C 
ATOM     28  C   UNL     1      10.820   2.092  -0.895  0.00  0.00    +0.228 C 
ATOM     29  O   UNL     1      11.560   3.052  -0.883  0.00  0.00    -0.275 OA
ATOM     30  N   UNL     1      11.063   0.933  -1.520  0.00  0.00    -0.209 N 
ATOM     31  C   UNL     1      10.092   0.015  -1.387  0.00  0.00    +0.245 C 
ATOM     32  O   UNL     1      10.105  -1.098  -1.866  0.00  0.00    -0.273 OA
BRANCH  30  33
ATOM     33  C   UNL     1      12.236   0.696  -2.251  0.00  0.00    +0.044 A 
ATOM     34  C   UNL     1      13.457   0.611  -1.597  0.00  0.00    +0.027 A 
ATOM     35  C   UNL     1      14.612   0.378  -2.318  0.00  0.00    +0.040 A 
ATOM     36  C   UNL     1      14.551   0.229  -3.694  0.00  0.00    +0.124 A 
ATOM     37  C   UNL     1      13.334   0.314  -4.348  0.00  0.00    +0.040 A 
ATOM     38  C   UNL     1      12.177   0.541  -3.629  0.00  0.00    +0.027 A 
ATOM     39  F   UNL     1      15.681   0.001  -4.398  0.00  0.00    -0.205 F 
ENDBRANCH  30  33
ENDBRANCH  24  26
ENDBRANCH   3  24
TORSDOF 8
