REMARK  Name = ZINC22619338
REMARK  9 active torsions:
REMARK  status: ('A' for Active; 'I' for Inactive)
REMARK    1  A    between atoms: C_1  and  C_2
REMARK    2  A    between atoms: C_6  and  C_8
REMARK    3  A    between atoms: N_14  and  C_15
REMARK    4  A    between atoms: C_15  and  C_16
REMARK    5  A    between atoms: C_16  and  C_17
REMARK    6  A    between atoms: N_19  and  C_20
REMARK    7  A    between atoms: C_20  and  C_21
REMARK    8  A    between atoms: C_21  and  C_23
REMARK    9  A    between atoms: C_21  and  N_30
REMARK                            x       y       z     vdW  Elec       q    Type
REMARK                         _______ _______ _______ _____ _____    ______ ____
ROOT
ATOM      1  C   UNL     1       0.995   6.018  -1.919  0.00  0.00    +0.215 C 
ATOM      2  O   UNL     1       1.593   6.638  -1.065  0.00  0.00    -0.276 OA
ATOM      3  N   UNL     1       1.279   6.220  -3.221  0.00  0.00    -0.316 N 
ATOM      4  H   UNL     1       0.737   5.658  -3.995  0.00  0.00    +0.149 HD
ENDROOT
BRANCH   1   5
ATOM      5  C   UNL     1      -0.064   5.022  -1.524  0.00  0.00    +0.117 C 
BRANCH   5   6
ATOM      6  C   UNL     1      -0.188   4.986   0.001  0.00  0.00    +0.135 C 
BRANCH   6  13
ATOM      7  C   UNL     1      -0.999   2.700   0.737  0.00  0.00    +0.163 A 
ATOM      8  N   UNL     1      -2.147   2.151   1.019  0.00  0.00    -0.153 NA
ATOM      9  N   UNL     1      -3.146   3.119   0.846  0.00  0.00    -0.254 N 
ATOM     10  H   UNL     1      -4.199   2.862   1.033  0.00  0.00    +0.191 HD
ATOM     11  C   UNL     1      -2.543   4.258   0.450  0.00  0.00    +0.176 A 
ATOM     12  S   UNL     1      -3.318   5.744   0.102  0.00  0.00    -0.011 S 
ATOM     13  N   UNL     1      -1.218   4.018   0.384  0.00  0.00    -0.303 N 
BRANCH   7  19
ATOM     14  C   UNL     1       3.790   2.466  -0.648  0.00  0.00    +0.044 C 
ATOM     15  C   UNL     1       2.623   1.913   0.129  0.00  0.00    -0.050 A 
ATOM     16  C   UNL     1       2.785   0.775   0.901  0.00  0.00    +0.003 A 
ATOM     17  C   UNL     1       1.719   0.261   1.617  0.00  0.00    +0.001 A 
ATOM     18  C   UNL     1       0.487   0.881   1.566  0.00  0.00    +0.011 A 
ATOM     19  C   UNL     1       0.318   2.028   0.790  0.00  0.00    +0.019 A 
ATOM     20  C   UNL     1       1.397   2.541   0.070  0.00  0.00    +0.015 A 
ENDBRANCH   7  19
ENDBRANCH   6  13
ENDBRANCH   5   6
ENDBRANCH   1   5
BRANCH   3  21
ATOM     21  C   UNL     1       2.309   7.189  -3.604  0.00  0.00    +0.093 C 
BRANCH  21  22
ATOM     22  C   UNL     1       2.351   7.312  -5.129  0.00  0.00    -0.019 C 
BRANCH  22  23
ATOM     23  C   UNL     1       2.793   6.001  -5.727  0.00  0.00    -0.041 A 
ATOM     24  C   UNL     1       1.857   5.129  -6.251  0.00  0.00    +0.003 A 
ATOM     25  C   UNL     1       2.262   3.927  -6.798  0.00  0.00    +0.000 A 
ATOM     26  C   UNL     1       3.604   3.595  -6.824  0.00  0.00    +0.001 A 
ATOM     27  C   UNL     1       4.541   4.466  -6.301  0.00  0.00    +0.020 A 
ATOM     28  C   UNL     1       4.136   5.672  -5.756  0.00  0.00    +0.043 A 
ATOM     29 CL   UNL     1       5.314   6.769  -5.105  0.00  0.00    -0.083 Cl
ENDBRANCH  22  23
BRANCH  22  30
ATOM     30  N   UNL     1       1.012   7.652  -5.630  0.00  0.00    +0.385 N 
ATOM     31  C   UNL     1       0.488   8.871  -4.962  0.00  0.00    -0.078 C 
ATOM     32  C   UNL     1      -0.611   9.363  -5.936  0.00  0.00    -0.020 C 
ATOM     33  C   UNL     1      -0.002   9.062  -7.325  0.00  0.00    -0.020 C 
ATOM     34  C   UNL     1       1.052   7.968  -7.074  0.00  0.00    -0.078 C 
ATOM     35  H   UNL     1       0.384   6.772  -5.427  0.00  0.00    -0.081 HD
ENDBRANCH  22  30
ENDBRANCH  21  22
ENDBRANCH   3  21
TORSDOF 8
