REMARK  Name = ZINC64661773
REMARK  5 active torsions:
REMARK  status: ('A' for Active; 'I' for Inactive)
REMARK    1  A    between atoms: C_1  and  C_2
REMARK    2  A    between atoms: C_2  and  C_3
REMARK    3  A    between atoms: C_2  and  N_4
REMARK    4  A    between atoms: C_8  and  C_15
REMARK    5  A    between atoms: C_17  and  C_20
REMARK                            x       y       z     vdW  Elec       q    Type
REMARK                         _______ _______ _______ _____ _____    ______ ____
ROOT
ATOM      1  N   UNL     1      -1.372  -0.511   0.012  0.00  0.00    -0.290 N 
ATOM      2  C   UNL     1      -1.948  -1.322  -0.961  0.00  0.00    +0.070 A 
ATOM      3  C   UNL     1      -1.472  -1.868  -2.146  0.00  0.00    +0.029 A 
ATOM      4  C   UNL     1      -2.297  -2.651  -2.924  0.00  0.00    +0.014 A 
ATOM      5  C   UNL     1      -3.611  -2.898  -2.525  0.00  0.00    +0.025 A 
ATOM      6  C   UNL     1      -4.092  -2.353  -1.337  0.00  0.00    +0.039 A 
ATOM      7  C   UNL     1      -3.263  -1.566  -0.557  0.00  0.00    +0.068 A 
ATOM      8  N   UNL     1      -3.444  -0.895   0.651  0.00  0.00    -0.306 N 
ATOM      9  H   UNL     1      -4.259  -0.880   1.176  0.00  0.00    +0.170 HD
ATOM     10  C   UNL     1      -2.291  -0.277   0.968  0.00  0.00    +0.328 A 
ATOM     11  O   UNL     1      -2.107   0.395   1.966  0.00  0.00    -0.247 OA
ENDROOT
BRANCH   5  12
ATOM     12  C   UNL     1      -4.495  -3.741  -3.366  0.00  0.00    +0.202 A 
ATOM     13  N   UNL     1      -4.148  -4.325  -4.524  0.00  0.00    -0.187 NA
ATOM     14  C   UNL     1      -5.165  -4.998  -5.008  0.00  0.00    +0.259 A 
ATOM     15  O   UNL     1      -6.201  -4.862  -4.163  0.00  0.00    -0.332 OA
ATOM     16  N   UNL     1      -5.743  -4.043  -3.097  0.00  0.00    -0.056 NA
BRANCH  14  17
ATOM     17  C   UNL     1      -5.170  -5.773  -6.267  0.00  0.00    +0.040 A 
ATOM     18  C   UNL     1      -4.019  -5.838  -7.055  0.00  0.00    +0.014 A 
ATOM     19  C   UNL     1      -4.030  -6.563  -8.228  0.00  0.00    +0.016 A 
ATOM     20  C   UNL     1      -5.180  -7.225  -8.626  0.00  0.00    +0.018 A 
ATOM     21  C   UNL     1      -6.324  -7.164  -7.849  0.00  0.00    +0.016 A 
ATOM     22  C   UNL     1      -6.324  -6.448  -6.670  0.00  0.00    +0.014 A 
ATOM     23 BR   UNL     1      -5.187  -8.215 -10.236  0.00  0.00    -0.050 Br
ENDBRANCH  14  17
ENDBRANCH   5  12
BRANCH   1  25
ATOM     24  C   UNL     1      -0.019   1.526   0.010  0.00  0.00    +0.031 C 
ATOM     25  C   UNL     1       0.002  -0.004   0.002  0.00  0.00    +0.086 C 
ATOM     26  C   UNL     1       0.742  -0.511   1.242  0.00  0.00    +0.031 C 
ENDBRANCH   1  25
TORSDOF 3
