REMARK  Name = ZINC12349199
REMARK  4 active torsions:
REMARK  status: ('A' for Active; 'I' for Inactive)
REMARK    1  A    between atoms: C_2  and  C_3
REMARK    2  A    between atoms: C_3  and  O_4
REMARK    3  A    between atoms: O_4  and  C_5
REMARK    4  A    between atoms: C_8  and  C_11
REMARK                            x       y       z     vdW  Elec       q    Type
REMARK                         _______ _______ _______ _____ _____    ______ ____
ROOT
ATOM      1  C   UNL     1      -2.513   0.977   0.019  0.00  0.00    +0.178 C 
ATOM      2  C   UNL     1      -3.342   1.363  -1.187  0.00  0.00    +0.050 C 
ATOM      3  C   UNL     1      -4.495   2.103  -1.113  0.00  0.00    +0.051 C 
ATOM      4  C   UNL     1      -5.031   2.289  -2.467  0.00  0.00    +0.007 A 
ATOM      5  C   UNL     1      -6.156   2.950  -2.934  0.00  0.00    +0.010 A 
ATOM      6  C   UNL     1      -6.376   2.929  -4.314  0.00  0.00    +0.001 A 
ATOM      7  C   UNL     1      -5.522   2.283  -5.177  0.00  0.00    +0.001 A 
ATOM      8  C   UNL     1      -4.383   1.611  -4.722  0.00  0.00    +0.012 A 
ATOM      9  C   UNL     1      -4.152   1.625  -3.360  0.00  0.00    +0.031 A 
ATOM     10  C   UNL     1      -3.074   1.037  -2.536  0.00  0.00    +0.194 C 
ATOM     11  O   UNL     1      -2.128   0.390  -2.945  0.00  0.00    -0.287 OA
ATOM     12  N   UNL     1      -5.014   2.563   0.083  0.00  0.00    -0.282 N 
ATOM     13  C   UNL     1      -4.427   2.040   1.230  0.00  0.00    +0.240 A 
ATOM     14  N   UNL     1      -3.286   1.307   1.216  0.00  0.00    -0.201 N 
ATOM     15  N   UNL     1      -3.045   0.965   2.548  0.00  0.00    -0.042 NA
ATOM     16  N   UNL     1      -4.001   1.491   3.242  0.00  0.00    -0.021 NA
ATOM     17  N   UNL     1      -4.817   2.125   2.473  0.00  0.00    -0.092 NA
ATOM     18  H   UNL     1      -5.738   3.207   0.119  0.00  0.00    +0.155 HD
ENDROOT
BRANCH   1  22
ATOM     19  C   UNL     1       1.155   3.169   0.008  0.00  0.00    +0.121 A 
ATOM     20  C   UNL     1       1.175   1.782   0.000  0.00  0.00    +0.046 A 
ATOM     21  C   UNL     1      -0.013   1.076   0.008  0.00  0.00    +0.009 A 
ATOM     22  C   UNL     1      -1.220   1.750   0.017  0.00  0.00    -0.018 A 
ATOM     23  C   UNL     1      -1.242   3.133   0.031  0.00  0.00    +0.009 A 
ATOM     24  C   UNL     1      -0.057   3.844   0.023  0.00  0.00    +0.046 A 
BRANCH  19  25
ATOM     25  O   UNL     1       2.322   3.866   0.000  0.00  0.00    -0.488 OA
BRANCH  25  26
ATOM     26  C   UNL     1       2.225   5.292   0.009  0.00  0.00    +0.256 C 
BRANCH  26  28
ATOM     27  C   UNL     1       3.885   6.889  -0.801  0.00  0.00    +0.007 C 
ATOM     28  C   UNL     1       3.609   5.889  -0.002  0.00  0.00    +0.006 C 
ENDBRANCH  26  28
ENDBRANCH  25  26
ENDBRANCH  19  25
ENDBRANCH   1  22
TORSDOF 4
