REMARK  Name = ZINC12364963
REMARK  12 active torsions:
REMARK  status: ('A' for Active; 'I' for Inactive)
REMARK    1  A    between atoms: C_1  and  C_2
REMARK    2  A    between atoms: C_2  and  C_3
REMARK    3  A    between atoms: C_2  and  C_4
REMARK    4  A    between atoms: C_2  and  C_5
REMARK    5  A    between atoms: C_12  and  N_16
REMARK    6  A    between atoms: C_13  and  C_14
REMARK    7  A    between atoms: C_17  and  C_19
REMARK    8  A    between atoms: C_19  and  S_20
REMARK    9  A    between atoms: S_20  and  C_21
REMARK   10  A    between atoms: N_25  and  C_26
REMARK   11  A    between atoms: C_30  and  O_32
REMARK   12  A    between atoms: O_32  and  C_33
REMARK                            x       y       z     vdW  Elec       q    Type
REMARK                         _______ _______ _______ _____ _____    ______ ____
ROOT
ATOM      1  N   UNL     1      -4.944   8.065  -3.299  0.00  0.00    -0.278 N 
ATOM      2  C   UNL     1      -4.267   6.990  -2.847  0.00  0.00    +0.228 C 
ATOM      3  O   UNL     1      -4.645   5.873  -3.128  0.00  0.00    -0.275 OA
ATOM      4  H   UNL     1      -4.641   8.958  -3.074  0.00  0.00    +0.155 HD
ENDROOT
BRANCH   1  11
ATOM      5  C   UNL     1     -10.362   7.301  -6.606  0.00  0.00    -0.000 C 
ATOM      6  C   UNL     1      -9.768   8.585  -7.192  0.00  0.00    +0.009 C 
ATOM      7  C   UNL     1      -9.019   9.355  -6.103  0.00  0.00    +0.037 C 
ATOM      8  C   UNL     1      -8.028   8.414  -5.431  0.00  0.00    -0.018 A 
ATOM      9  C   UNL     1      -8.156   7.073  -5.542  0.00  0.00    -0.004 A 
ATOM     10  S   UNL     1      -6.798   6.411  -4.620  0.00  0.00    -0.077 S 
ATOM     11  C   UNL     1      -6.074   7.892  -4.085  0.00  0.00    +0.090 A 
ATOM     12  C   UNL     1      -6.896   8.862  -4.639  0.00  0.00    +0.084 A 
ATOM     13  C   UNL     1      -9.218   6.326  -6.289  0.00  0.00    +0.047 C 
BRANCH   5  15
ATOM     14  C   UNL     1     -10.539   6.330  -8.902  0.00  0.00    +0.011 C 
ATOM     15  C   UNL     1     -11.311   6.664  -7.623  0.00  0.00    -0.035 C 
ATOM     16  C   UNL     1     -11.902   5.381  -7.035  0.00  0.00    +0.011 C 
ATOM     17  C   UNL     1     -12.440   7.643  -7.950  0.00  0.00    +0.011 C 
ENDBRANCH   5  15
BRANCH  12  18
ATOM     18  C   UNL     1      -6.638  10.256  -4.436  0.00  0.00    +0.102 C 
ATOM     19  N   UNL     1      -6.433  11.362  -4.276  0.00  0.00    -0.191 NA
ENDBRANCH  12  18
ENDBRANCH   1  11
BRANCH   2  20
ATOM     20  C   UNL     1      -3.039   7.178  -1.993  0.00  0.00    +0.173 C 
BRANCH  20  21
ATOM     21  S   UNL     1      -2.360   5.560  -1.549  0.00  0.00    -0.075 S 
BRANCH  21  22
ATOM     22  C   UNL     1      -0.977   6.064  -0.582  0.00  0.00    +0.214 A 
ATOM     23  N   UNL     1      -0.620   7.302  -0.310  0.00  0.00    -0.101 NA
ATOM     24  N   UNL     1       0.439   7.316   0.416  0.00  0.00    -0.022 NA
ATOM     25  N   UNL     1       0.833   6.114   0.666  0.00  0.00    -0.038 NA
ATOM     26  N   UNL     1      -0.074   5.248   0.030  0.00  0.00    -0.187 N 
BRANCH  26  27
ATOM     27  C   UNL     1      -0.051   3.846   0.023  0.00  0.00    +0.073 A 
ATOM     28  C   UNL     1      -1.242   3.131   0.031  0.00  0.00    +0.028 A 
ATOM     29  C   UNL     1      -1.219   1.750   0.017  0.00  0.00    +0.006 A 
ATOM     30  C   UNL     1      -0.013   1.076   0.008  0.00  0.00    +0.046 A 
ATOM     31  C   UNL     1       1.180   1.785   0.000  0.00  0.00    +0.122 A 
ATOM     32  C   UNL     1       1.161   3.171   0.008  0.00  0.00    +0.073 A 
BRANCH  31  33
ATOM     33  O   UNL     1       2.366   1.121  -0.014  0.00  0.00    -0.495 OA
ATOM     34  C   UNL     1       2.310  -0.306  -0.021  0.00  0.00    +0.277 C 
ENDBRANCH  31  33
ENDBRANCH  26  27
ENDBRANCH  21  22
ENDBRANCH  20  21
ENDBRANCH   2  20
TORSDOF 8
