REMARK  Name = ZINC14658826
REMARK  11 active torsions:
REMARK  status: ('A' for Active; 'I' for Inactive)
REMARK    1  A    between atoms: C_1  and  C_2
REMARK    2  A    between atoms: C_2  and  C_3
REMARK    3  A    between atoms: C_2  and  O_4
REMARK    4  A    between atoms: O_4  and  C_5
REMARK    5  A    between atoms: C_8  and  C_12
REMARK    6  A    between atoms: N_14  and  N_15
REMARK    7  A    between atoms: C_16  and  C_18
REMARK    8  A    between atoms: C_18  and  C_19
REMARK    9  A    between atoms: C_19  and  C_20
REMARK   10  A    between atoms: C_20  and  O_21
REMARK   11  A    between atoms: O_21  and  C_22
REMARK                            x       y       z     vdW  Elec       q    Type
REMARK                         _______ _______ _______ _____ _____    ______ ____
ROOT
ATOM      1  N   UNL     1       0.051   1.268   1.324  0.00  0.00    -0.234 N 
ATOM      2  C   UNL     1       1.211   1.923   1.524  0.00  0.00    +0.229 C 
ATOM      3  O   UNL     1       2.261   1.316   1.506  0.00  0.00    -0.274 OA
ATOM      4  H   UNL     1      -0.789   1.754   1.335  0.00  0.00    +0.173 HD
ENDROOT
BRANCH   1   7
ATOM      5  C   UNL     1      -1.104  -0.769   0.895  0.00  0.00    +0.260 C 
ATOM      6  O   UNL     1      -2.157  -0.160   0.913  0.00  0.00    -0.269 OA
ATOM      7  N   UNL     1       0.057  -0.114   1.095  0.00  0.00    -0.230 N 
ATOM      8  H   UNL     1       0.896  -0.600   1.080  0.00  0.00    +0.173 HD
BRANCH   5  12
ATOM      9  C   UNL     1      -1.085  -4.959   0.199  0.00  0.00    +0.135 A 
ATOM     10  C   UNL     1       0.113  -4.285   0.405  0.00  0.00    +0.047 A 
ATOM     11  C   UNL     1       0.111  -2.925   0.626  0.00  0.00    +0.017 A 
ATOM     12  C   UNL     1      -1.098  -2.225   0.654  0.00  0.00    +0.039 A 
ATOM     13  C   UNL     1      -2.300  -2.906   0.446  0.00  0.00    +0.032 A 
ATOM     14  C   UNL     1      -2.290  -4.265   0.221  0.00  0.00    +0.060 A 
ATOM     15 BR   UNL     1      -3.916  -5.189  -0.061  0.00  0.00    -0.046 Br
BRANCH   9  16
ATOM     16  O   UNL     1      -1.078  -6.298  -0.024  0.00  0.00    -0.488 OA
BRANCH  16  18
ATOM     17  C   UNL     1       0.738  -7.272   1.238  0.00  0.00    +0.051 C 
ATOM     18  C   UNL     1       0.198  -6.928  -0.152  0.00  0.00    +0.167 C 
ATOM     19  C   UNL     1       0.054  -8.209  -0.975  0.00  0.00    +0.051 C 
ENDBRANCH  16  18
ENDBRANCH   9  16
ENDBRANCH   5  12
ENDBRANCH   1   7
BRANCH   2  20
ATOM     20  C   UNL     1       1.205   3.410   1.771  0.00  0.00    +0.100 C 
BRANCH  20  21
ATOM     21  C   UNL     1       2.641   3.901   1.965  0.00  0.00    +0.050 C 
BRANCH  21  22
ATOM     22  C   UNL     1       2.634   5.410   2.215  0.00  0.00    +0.229 C 
BRANCH  22  23
ATOM     23  O   UNL     1       3.975   5.869   2.397  0.00  0.00    -0.490 OA
BRANCH  23  24
ATOM     24  C   UNL     1       4.147   7.197   2.631  0.00  0.00    +0.139 A 
ATOM     25  C   UNL     1       3.048   8.040   2.685  0.00  0.00    +0.048 A 
ATOM     26  C   UNL     1       3.224   9.390   2.923  0.00  0.00    +0.023 A 
ATOM     27  C   UNL     1       4.497   9.901   3.107  0.00  0.00    +0.043 A 
ATOM     28  C   UNL     1       5.596   9.062   3.054  0.00  0.00    +0.043 A 
ATOM     29  C   UNL     1       5.423   7.710   2.822  0.00  0.00    +0.084 A 
ATOM     30 CL   UNL     1       6.801   6.655   2.763  0.00  0.00    -0.080 Cl
ATOM     31 CL   UNL     1       4.715  11.597   3.406  0.00  0.00    -0.083 Cl
ENDBRANCH  23  24
ENDBRANCH  22  23
ENDBRANCH  21  22
ENDBRANCH  20  21
ENDBRANCH   2  20
TORSDOF 9
