REMARK  Name = ZINC16716534
REMARK  8 active torsions:
REMARK  status: ('A' for Active; 'I' for Inactive)
REMARK    1  A    between atoms: C_1  and  C_2
REMARK    2  A    between atoms: C_2  and  C_4
REMARK    3  A    between atoms: C_2  and  O_15
REMARK    4  A    between atoms: N_6  and  C_7
REMARK    5  A    between atoms: C_8  and  C_12
REMARK    6  A    between atoms: O_15  and  C_16
REMARK    7  A    between atoms: C_16  and  C_18
REMARK    8  A    between atoms: C_31  and  C_32
REMARK                            x       y       z     vdW  Elec       q    Type
REMARK                         _______ _______ _______ _____ _____    ______ ____
ROOT
ATOM      1  C   UNL     1       1.896  -6.191   0.553  0.00  0.00    +0.341 C 
ATOM      2  O   UNL     1       3.001  -6.273   1.052  0.00  0.00    -0.245 OA
ENDROOT
BRANCH   1   3
ATOM      3  C   UNL     1       0.980  -7.350   0.595  0.00  0.00    +0.073 A 
ATOM      4  C   UNL     1       0.967  -8.347  -0.477  0.00  0.00    +0.015 A 
ATOM      5  C   UNL     1       1.825  -8.251  -1.577  0.00  0.00    +0.011 A 
ATOM      6  C   UNL     1       1.783  -9.206  -2.550  0.00  0.00    +0.001 A 
ATOM      7  C   UNL     1       0.897 -10.277  -2.459  0.00  0.00    +0.002 A 
ATOM      8  C   UNL     1       0.052 -10.403  -1.400  0.00  0.00    +0.028 A 
ATOM      9  C   UNL     1       0.067  -9.437  -0.376  0.00  0.00    +0.072 A 
ATOM     10  N   UNL     1      -0.748  -9.533   0.672  0.00  0.00    -0.247 NA
ATOM     11  C   UNL     1      -0.765  -8.642   1.659  0.00  0.00    +0.072 A 
ATOM     12  C   UNL     1       0.096  -7.530   1.648  0.00  0.00    -0.007 A 
ATOM     13  C   UNL     1      -0.137  -6.694   2.882  0.00  0.00    +0.043 C 
ATOM     14  C   UNL     1      -1.242  -7.400   3.678  0.00  0.00    +0.042 C 
ATOM     15  C   UNL     1      -1.605  -8.621   2.870  0.00  0.00    -0.018 C 
ATOM     16  C   UNL     1      -2.540  -9.537   3.199  0.00  0.00    +0.052 C 
BRANCH  16  17
ATOM     17  C   UNL     1      -3.304  -9.391   4.438  0.00  0.00    +0.128 A 
ATOM     18  C   UNL     1      -4.278 -10.238   4.886  0.00  0.00    +0.049 A 
ATOM     19  C   UNL     1      -4.736  -9.717   6.108  0.00  0.00    +0.042 A 
ATOM     20  C   UNL     1      -4.037  -8.586   6.345  0.00  0.00    +0.195 A 
ATOM     21  O   UNL     1      -3.174  -8.392   5.335  0.00  0.00    -0.464 OA
ENDBRANCH  16  17
ENDBRANCH   1   3
BRANCH   1  22
ATOM     22  O   UNL     1       1.506  -5.045  -0.038  0.00  0.00    -0.449 OA
BRANCH  22  24
ATOM     23  C   UNL     1       3.326  -4.030  -1.299  0.00  0.00    +0.062 C 
ATOM     24  C   UNL     1       2.458  -3.949  -0.041  0.00  0.00    +0.259 C 
BRANCH  24  25
ATOM     25  C   UNL     1       1.715  -2.638  -0.028  0.00  0.00    +0.258 C 
ATOM     26  O   UNL     1       0.502  -2.629  -0.016  0.00  0.00    -0.271 OA
ATOM     27  N   UNL     1       2.397  -1.476  -0.028  0.00  0.00    -0.276 N 
ATOM     28  H   UNL     1       3.367  -1.483  -0.037  0.00  0.00    +0.155 HD
BRANCH  27  29
ATOM     29  C   UNL     1       1.713  -0.270  -0.016  0.00  0.00    +0.084 A 
ATOM     30  C   UNL     1       2.234   1.018  -0.014  0.00  0.00    +0.065 A 
ATOM     31  C   UNL     1       1.283   2.104   0.001  0.00  0.00    +0.022 A 
ATOM     32  C   UNL     1      -0.022   1.776   0.012  0.00  0.00    +0.048 A 
ATOM     33  S   UNL     1       0.002  -0.004   0.002  0.00  0.00    -0.081 S 
BRANCH  30  34
ATOM     34  C   UNL     1       3.680   1.263  -0.027  0.00  0.00    +0.244 C 
ATOM     35  O   UNL     1       4.456   0.326  -0.040  0.00  0.00    -0.270 OA
ATOM     36  N   UNL     1       4.149   2.527  -0.024  0.00  0.00    -0.325 N 
ATOM     37  H   UNL     1       3.531   3.274  -0.014  0.00  0.00    +0.145 HD
ATOM     38  H   UNL     1       5.106   2.689  -0.033  0.00  0.00    +0.145 HD
ENDBRANCH  30  34
ENDBRANCH  27  29
ENDBRANCH  24  25
ENDBRANCH  22  24
ENDBRANCH   1  22
TORSDOF 7
