REMARK  Name = ZINC38660567
REMARK  15 active torsions:
REMARK  status: ('A' for Active; 'I' for Inactive)
REMARK    1  A    between atoms: C_1  and  C_2
REMARK    2  A    between atoms: C_2  and  C_4
REMARK    3  A    between atoms: C_2  and  O_33
REMARK    4  A    between atoms: C_4  and  O_6
REMARK    5  A    between atoms: O_6  and  C_7
REMARK    6  A    between atoms: C_14  and  N_32
REMARK    7  A    between atoms: C_15  and  C_30
REMARK    8  A    between atoms: C_16  and  C_18
REMARK    9  A    between atoms: C_20  and  O_28
REMARK   10  A    between atoms: C_21  and  O_26
REMARK   11  A    between atoms: C_22  and  O_24
REMARK   12  A    between atoms: O_24  and  C_25
REMARK   13  A    between atoms: O_26  and  C_27
REMARK   14  A    between atoms: O_28  and  C_29
REMARK   15  A    between atoms: O_33  and  C_34
REMARK                            x       y       z     vdW  Elec       q    Type
REMARK                         _______ _______ _______ _____ _____    ______ ____
ROOT
ATOM      1  C   UNL     1       1.553  -1.271   3.254  0.00  0.00    +0.135 A 
ATOM      2  C   UNL     1       2.778  -1.579   2.678  0.00  0.00    +0.047 A 
ATOM      3  C   UNL     1       3.751  -2.215   3.424  0.00  0.00    +0.012 A 
ATOM      4  C   UNL     1       3.510  -2.547   4.746  0.00  0.00    +0.008 A 
ATOM      5  C   UNL     1       2.288  -2.241   5.325  0.00  0.00    +0.138 A 
ATOM      6  C   UNL     1       1.311  -1.597   4.578  0.00  0.00    +0.093 A 
ATOM      7  O   UNL     1       2.034  -2.559   6.619  0.00  0.00    -0.441 OA
ATOM      8  C   UNL     1       2.776  -3.491   7.239  0.00  0.00    +0.199 C 
ATOM      9  C   UNL     1       3.995  -3.860   6.778  0.00  0.00    +0.098 C 
ATOM     10  C   UNL     1       4.583  -3.240   5.543  0.00  0.00    +0.098 C 
ENDROOT
BRANCH  10  11
ATOM     11  C   UNL     1       5.636  -2.237   5.940  0.00  0.00    -0.028 A 
ATOM     12  C   UNL     1       5.292  -1.150   6.721  0.00  0.00    +0.054 A 
ATOM     13  C   UNL     1       6.257  -0.224   7.088  0.00  0.00    +0.165 A 
ATOM     14  C   UNL     1       7.572  -0.392   6.670  0.00  0.00    +0.204 A 
ATOM     15  C   UNL     1       7.914  -1.487   5.886  0.00  0.00    +0.165 A 
ATOM     16  C   UNL     1       6.943  -2.410   5.527  0.00  0.00    +0.054 A 
BRANCH  15  17
ATOM     17  O   UNL     1       9.199  -1.655   5.474  0.00  0.00    -0.491 OA
ATOM     18  C   UNL     1       9.478  -2.803   4.670  0.00  0.00    +0.277 C 
ENDBRANCH  15  17
BRANCH  14  19
ATOM     19  O   UNL     1       8.522   0.514   7.029  0.00  0.00    -0.488 OA
ATOM     20  C   UNL     1       9.223   0.271   8.250  0.00  0.00    +0.277 C 
ENDBRANCH  14  19
BRANCH  13  21
ATOM     21  O   UNL     1       5.917   0.846   7.856  0.00  0.00    -0.491 OA
ATOM     22  C   UNL     1       4.548   0.954   8.248  0.00  0.00    +0.277 C 
ENDBRANCH  13  21
ENDBRANCH  10  11
BRANCH   8  23
ATOM     23  N   UNL     1       2.284  -4.088   8.373  0.00  0.00    -0.328 N 
ATOM     24  H   UNL     1       1.413  -3.835   8.716  0.00  0.00    +0.145 HD
ATOM     25  H   UNL     1       2.808  -4.763   8.832  0.00  0.00    +0.145 HD
ENDBRANCH   8  23
BRANCH   9  26
ATOM     26  C   UNL     1       4.738  -4.860   7.483  0.00  0.00    +0.101 C 
ATOM     27  N   UNL     1       5.328  -5.654   8.043  0.00  0.00    -0.191 NA
ENDBRANCH   9  26
BRANCH   1  28
ATOM     28  O   UNL     1       0.595  -0.645   2.520  0.00  0.00    -0.423 OA
BRANCH  28  29
ATOM     29  C   UNL     1      -0.095  -1.376   1.630  0.00  0.00    +0.353 C 
ATOM     30  O   UNL     1       0.107  -2.564   1.538  0.00  0.00    -0.246 OA
BRANCH  29  32
ATOM     31  C   UNL     1      -0.427   0.273  -0.192  0.00  0.00    +0.064 C 
ATOM     32  C   UNL     1      -1.122  -0.715   0.747  0.00  0.00    +0.279 C 
BRANCH  32  33
ATOM     33  O   UNL     1      -1.798  -1.710  -0.024  0.00  0.00    -0.475 OA
BRANCH  33  34
ATOM     34  C   UNL     1      -3.035  -1.394  -0.491  0.00  0.00    +0.157 A 
ATOM     35  C   UNL     1      -3.567  -0.136  -0.253  0.00  0.00    +0.048 A 
ATOM     36  C   UNL     1      -4.824   0.183  -0.729  0.00  0.00    +0.004 A 
ATOM     37  C   UNL     1      -5.554  -0.750  -1.441  0.00  0.00    +0.003 A 
ATOM     38  C   UNL     1      -5.028  -2.006  -1.680  0.00  0.00    +0.042 A 
ATOM     39  C   UNL     1      -3.767  -2.329  -1.212  0.00  0.00    +0.165 A 
ATOM     40  F   UNL     1      -3.250  -3.554  -1.451  0.00  0.00    -0.202 F 
ENDBRANCH  33  34
ENDBRANCH  32  33
ENDBRANCH  29  32
ENDBRANCH  28  29
ENDBRANCH   1  28
TORSDOF 11
