REMARK  Name = ZINC39665629
REMARK  13 active torsions:
REMARK  status: ('A' for Active; 'I' for Inactive)
REMARK    1  A    between atoms: C_1  and  C_2
REMARK    2  A    between atoms: C_2  and  C_4
REMARK    3  A    between atoms: C_2  and  O_31
REMARK    4  A    between atoms: C_4  and  N_5
REMARK    5  A    between atoms: C_6  and  C_8
REMARK    6  A    between atoms: C_19  and  C_21
REMARK    7  A    between atoms: C_24  and  O_29
REMARK    8  A    between atoms: C_26  and  O_27
REMARK    9  A    between atoms: O_27  and  C_28
REMARK   10  A    between atoms: O_29  and  C_30
REMARK   11  A    between atoms: O_31  and  C_32
REMARK   12  A    between atoms: C_35  and  O_38
REMARK   13  A    between atoms: O_38  and  C_39
REMARK                            x       y       z     vdW  Elec       q    Type
REMARK                         _______ _______ _______ _____ _____    ______ ____
ROOT
ATOM      1  C   UNL     1       2.260  -3.649   2.900  0.00  0.00    +0.100 C 
ATOM      2  C   UNL     1       3.052  -4.362   1.782  0.00  0.00    +0.121 C 
ATOM      3  N   UNL     1       4.432  -4.468   2.310  0.00  0.00    -0.296 N 
ATOM      4  C   UNL     1       4.254  -4.790   3.746  0.00  0.00    +0.115 C 
ATOM      5  C   UNL     1       3.050  -3.935   4.188  0.00  0.00    -0.004 C 
ATOM      6  C   UNL     1       3.532  -2.630   4.813  0.00  0.00    -0.010 C 
ATOM      7  C   UNL     1       4.266  -2.936   6.121  0.00  0.00    -0.082 C 
ATOM      8  N   UNL     1       3.360  -3.636   7.040  0.00  0.00    +0.379 N 
ATOM      9  C   UNL     1       2.974  -4.933   6.471  0.00  0.00    -0.082 C 
ATOM     10  C   UNL     1       2.186  -4.711   5.177  0.00  0.00    -0.010 C 
ATOM     11  C   UNL     1       5.589  -4.308   1.637  0.00  0.00    +0.250 C 
ATOM     12  O   UNL     1       5.571  -3.958   0.472  0.00  0.00    -0.270 OA
ATOM     13  H   UNL     1       3.826  -3.783   7.923  0.00  0.00    -0.086 HD
ATOM     14  H   UNL     1       2.534  -3.076   7.188  0.00  0.00    -0.086 HD
ENDROOT
BRANCH  11  15
ATOM     15  C   UNL     1       6.874  -4.558   2.312  0.00  0.00    +0.079 A 
ATOM     16  C   UNL     1       6.981  -5.576   3.264  0.00  0.00    +0.020 A 
ATOM     17  C   UNL     1       8.184  -5.806   3.891  0.00  0.00    +0.046 A 
ATOM     18  C   UNL     1       9.296  -5.029   3.583  0.00  0.00    +0.124 A 
ATOM     19  C   UNL     1       9.200  -4.016   2.640  0.00  0.00    +0.092 A 
ATOM     20  C   UNL     1       7.998  -3.778   1.997  0.00  0.00    +0.136 A 
BRANCH  20  21
ATOM     21  O   UNL     1       7.904  -2.791   1.071  0.00  0.00    -0.494 OA
ATOM     22  C   UNL     1       9.089  -2.039   0.803  0.00  0.00    +0.277 C 
ENDBRANCH  20  21
BRANCH  18  23
ATOM     23  O   UNL     1      10.478  -5.262   4.207  0.00  0.00    -0.495 OA
ATOM     24  C   UNL     1      10.507  -6.320   5.167  0.00  0.00    +0.277 C 
ENDBRANCH  18  23
ENDBRANCH  11  15
BRANCH   1  26
ATOM     25  N   UNL     1       1.223  -1.422   3.189  0.00  0.00    -0.312 N 
ATOM     26  C   UNL     1       2.202  -2.166   2.638  0.00  0.00    +0.218 C 
ATOM     27  O   UNL     1       3.037  -1.642   1.932  0.00  0.00    -0.275 OA
ATOM     28  H   UNL     1       0.555  -1.841   3.754  0.00  0.00    +0.149 HD
BRANCH  25  29
ATOM     29  C   UNL     1       1.167   0.020   2.935  0.00  0.00    +0.148 C 
BRANCH  29  31
ATOM     30  C   UNL     1      -0.163   2.102   3.307  0.00  0.00    +0.053 C 
ATOM     31  C   UNL     1      -0.032   0.622   3.671  0.00  0.00    +0.187 C 
BRANCH  31  32
ATOM     32  O   UNL     1       0.163   0.494   5.081  0.00  0.00    -0.488 OA
BRANCH  32  33
ATOM     33  C   UNL     1      -0.951   0.501   5.861  0.00  0.00    +0.121 A 
ATOM     34  C   UNL     1      -0.831   0.433   7.241  0.00  0.00    +0.049 A 
ATOM     35  C   UNL     1      -1.963   0.440   8.034  0.00  0.00    +0.049 A 
ATOM     36  C   UNL     1      -3.218   0.515   7.449  0.00  0.00    +0.120 A 
ATOM     37  C   UNL     1      -3.338   0.585   6.069  0.00  0.00    +0.049 A 
ATOM     38  C   UNL     1      -2.206   0.582   5.277  0.00  0.00    +0.049 A 
BRANCH  36  39
ATOM     39  O   UNL     1      -4.332   0.521   8.229  0.00  0.00    -0.495 OA
ATOM     40  C   UNL     1      -5.592   0.601   7.560  0.00  0.00    +0.277 C 
ENDBRANCH  36  39
ENDBRANCH  32  33
ENDBRANCH  31  32
ENDBRANCH  29  31
ENDBRANCH  25  29
ENDBRANCH   1  26
TORSDOF 9
