REMARK  Name = ZINC36597823
REMARK  13 active torsions:
REMARK  status: ('A' for Active; 'I' for Inactive)
REMARK    1  A    between atoms: C_1  and  C_2
REMARK    2  A    between atoms: C_5  and  C_7
REMARK    3  A    between atoms: C_7  and  N_8
REMARK    4  A    between atoms: N_8  and  C_9
REMARK    5  A    between atoms: C_9  and  C_11
REMARK    6  A    between atoms: C_9  and  C_18
REMARK    7  A    between atoms: N_20  and  C_21
REMARK    8  A    between atoms: C_21  and  C_22
REMARK    9  A    between atoms: C_21  and  C_23
REMARK   10  A    between atoms: C_21  and  C_24
REMARK   11  A    between atoms: C_25  and  C_27
REMARK   12  A    between atoms: C_31  and  O_34
REMARK   13  A    between atoms: C_32  and  O_33
REMARK                            x       y       z     vdW  Elec       q    Type
REMARK                         _______ _______ _______ _____ _____    ______ ____
ROOT
ATOM      1  N   UNL     1       1.026  -2.481  -1.964  0.00  0.00    -0.275 N 
ATOM      2  C   UNL     1       0.281  -3.501  -1.493  0.00  0.00    +0.252 C 
ATOM      3  O   UNL     1      -0.321  -3.380  -0.444  0.00  0.00    -0.270 OA
ENDROOT
BRANCH   2   4
ATOM      4  C   UNL     1       0.197  -4.764  -2.251  0.00  0.00    +0.082 A 
ATOM      5  C   UNL     1       1.363  -5.438  -2.626  0.00  0.00    +0.017 A 
ATOM      6  C   UNL     1       1.281  -6.617  -3.333  0.00  0.00    +0.005 A 
ATOM      7  C   UNL     1       0.046  -7.143  -3.675  0.00  0.00    +0.049 A 
ATOM      8  C   UNL     1      -1.118  -6.487  -3.311  0.00  0.00    +0.159 A 
ATOM      9  C   UNL     1      -1.051  -5.298  -2.592  0.00  0.00    +0.171 A 
BRANCH   9  10
ATOM     10  O   UNL     1      -2.190  -4.656  -2.228  0.00  0.00    -0.503 OA
ATOM     11  H   UNL     1      -2.507  -4.016  -2.881  0.00  0.00    +0.292 HD
ENDBRANCH   9  10
BRANCH   8  12
ATOM     12  O   UNL     1      -2.327  -7.009  -3.652  0.00  0.00    -0.503 OA
ATOM     13  H   UNL     1      -2.695  -7.613  -2.992  0.00  0.00    +0.292 HD
ENDBRANCH   8  12
ENDBRANCH   2   4
BRANCH   1  14
ATOM     14  C   UNL     1       1.014  -1.187  -1.277  0.00  0.00    +0.183 C 
BRANCH  14  19
ATOM     15  C   UNL     1      -3.317   1.060  -2.554  0.00  0.00    +0.086 C 
ATOM     16  C   UNL     1      -2.283   0.307  -1.758  0.00  0.00    +0.102 A 
ATOM     17  C   UNL     1      -2.447  -0.177  -0.514  0.00  0.00    +0.045 A 
ATOM     18  C   UNL     1      -1.233  -0.808  -0.156  0.00  0.00    +0.046 A 
ATOM     19  C   UNL     1      -0.399  -0.671  -1.203  0.00  0.00    +0.122 A 
ATOM     20  O   UNL     1      -1.042  -0.000  -2.172  0.00  0.00    -0.463 OA
ENDBRANCH  14  19
ENDBRANCH   1  14
BRANCH   1  21
ATOM     21  C   UNL     1       1.847  -2.667  -3.163  0.00  0.00    +0.193 C 
BRANCH  21  22
ATOM     22  C   UNL     1       3.293  -2.406  -2.828  0.00  0.00    -0.018 A 
ATOM     23  C   UNL     1       3.707  -2.409  -1.509  0.00  0.00    +0.007 A 
ATOM     24  C   UNL     1       5.033  -2.170  -1.200  0.00  0.00    +0.020 A 
ATOM     25  C   UNL     1       5.946  -1.927  -2.211  0.00  0.00    +0.041 A 
ATOM     26  C   UNL     1       5.530  -1.924  -3.531  0.00  0.00    +0.020 A 
ATOM     27  C   UNL     1       4.205  -2.169  -3.839  0.00  0.00    +0.007 A 
ATOM     28 CL   UNL     1       7.611  -1.626  -1.825  0.00  0.00    -0.084 Cl
ENDBRANCH  21  22
BRANCH  21  29
ATOM     29  C   UNL     1       1.398  -1.704  -4.233  0.00  0.00    +0.239 C 
ATOM     30  O   UNL     1       0.824  -0.681  -3.926  0.00  0.00    -0.273 OA
ATOM     31  N   UNL     1       1.635  -1.981  -5.531  0.00  0.00    -0.309 N 
ATOM     32  H   UNL     1       2.095  -2.799  -5.776  0.00  0.00    +0.149 HD
BRANCH  31  33
ATOM     33  C   UNL     1       1.199  -1.046  -6.570  0.00  0.00    +0.026 C 
ATOM     34  C   UNL     1       1.873   0.310  -6.352  0.00  0.00    +0.031 C 
ATOM     35  C   UNL     1       1.588  -1.593  -7.945  0.00  0.00    +0.031 C 
ATOM     36  C   UNL     1      -0.320  -0.877  -6.500  0.00  0.00    +0.031 C 
ENDBRANCH  31  33
ENDBRANCH  21  29
ENDBRANCH   1  21
TORSDOF 9
