REMARK  Name = ZINC58872106
REMARK  15 active torsions:
REMARK  status: ('A' for Active; 'I' for Inactive)
REMARK    1  A    between atoms: C_1  and  C_2
REMARK    2  A    between atoms: C_2  and  C_3
REMARK    3  A    between atoms: C_3  and  C_4
REMARK    4  A    between atoms: C_5  and  C_35
REMARK    5  A    between atoms: C_6  and  C_26
REMARK    6  A    between atoms: C_12  and  C_13
REMARK    7  A    between atoms: C_17  and  O_19
REMARK    8  A    between atoms: O_19  and  C_20
REMARK    9  A    between atoms: C_20  and  C_21
REMARK   10  A    between atoms: C_29  and  C_32
REMARK   11  A    between atoms: C_32  and  C_33
REMARK   12  A    between atoms: C_32  and  C_34
REMARK   13  A    between atoms: C_35  and  O_37
REMARK   14  A    between atoms: O_37  and  C_38
REMARK   15  A    between atoms: C_38  and  C_39
REMARK                            x       y       z     vdW  Elec       q    Type
REMARK                         _______ _______ _______ _____ _____    ______ ____
ROOT
ATOM      1  C   UNL     1      -0.311  -1.447   0.317  0.00  0.00    +0.056 C 
ATOM      2  C   UNL     1       0.695  -2.030  -0.401  0.00  0.00    +0.085 C 
ATOM      3  C   UNL     1       0.823  -3.535  -0.354  0.00  0.00    +0.162 C 
ATOM      4  N   UNL     1      -0.166  -4.276   0.479  0.00  0.00    -0.275 N 
ATOM      5  C   UNL     1      -0.215  -5.604   0.646  0.00  0.00    +0.268 A 
ATOM      6  O   UNL     1       0.589  -6.335   0.099  0.00  0.00    -0.266 OA
ATOM      7  C   UNL     1      -1.271  -6.151   1.513  0.00  0.00    +0.081 A 
ATOM      8  C   UNL     1      -1.534  -7.441   1.842  0.00  0.00    +0.028 C 
ATOM      9  S   UNL     1      -2.111  -4.657   2.015  0.00  0.00    -0.046 S 
ATOM     10  C   UNL     1      -1.098  -3.494   1.121  0.00  0.00    +0.178 A 
ATOM     11  N   UNL     1      -1.144  -2.189   1.036  0.00  0.00    -0.227 NA
ENDROOT
BRANCH   8  12
ATOM     12  C   UNL     1      -2.751  -7.773   2.596  0.00  0.00    -0.020 A 
ATOM     13  C   UNL     1      -3.733  -6.799   2.811  0.00  0.00    +0.008 A 
ATOM     14  C   UNL     1      -4.873  -7.116   3.519  0.00  0.00    +0.004 A 
ATOM     15  C   UNL     1      -5.050  -8.394   4.018  0.00  0.00    +0.046 A 
ATOM     16  C   UNL     1      -4.082  -9.368   3.811  0.00  0.00    +0.122 A 
ATOM     17  C   UNL     1      -2.936  -9.066   3.097  0.00  0.00    +0.053 A 
BRANCH  16  18
ATOM     18  O   UNL     1      -4.264 -10.621   4.305  0.00  0.00    -0.488 OA
BRANCH  18  19
ATOM     19  C   UNL     1      -5.473 -10.865   5.027  0.00  0.00    +0.256 C 
BRANCH  19  20
ATOM     20  C   UNL     1      -5.498 -12.297   5.494  0.00  0.00    +0.006 C 
ATOM     21  C   UNL     1      -5.861 -12.580   6.721  0.00  0.00    +0.007 C 
ENDBRANCH  19  20
ENDBRANCH  18  19
ENDBRANCH  16  18
ENDBRANCH   8  12
BRANCH   3  22
ATOM     22  C   UNL     1       0.720  -4.054  -1.765  0.00  0.00    -0.020 A 
ATOM     23  C   UNL     1      -0.519  -4.187  -2.363  0.00  0.00    +0.006 A 
ATOM     24  C   UNL     1      -0.614  -4.663  -3.658  0.00  0.00    +0.004 A 
ATOM     25  C   UNL     1       0.530  -5.005  -4.354  0.00  0.00    -0.045 A 
ATOM     26  C   UNL     1       1.769  -4.870  -3.756  0.00  0.00    +0.004 A 
ATOM     27  C   UNL     1       1.864  -4.390  -2.463  0.00  0.00    +0.006 A 
BRANCH  25  28
ATOM     28  C   UNL     1       0.427  -5.524  -5.765  0.00  0.00    +0.013 C 
ATOM     29  C   UNL     1       1.193  -4.594  -6.708  0.00  0.00    +0.012 C 
ATOM     30  C   UNL     1       1.027  -6.930  -5.836  0.00  0.00    +0.012 C 
ENDBRANCH  25  28
ENDBRANCH   3  22
BRANCH   2  31
ATOM     31  C   UNL     1       1.584  -1.253  -1.162  0.00  0.00    +0.339 C 
ATOM     32  O   UNL     1       1.381  -0.060  -1.306  0.00  0.00    -0.245 OA
BRANCH  31  33
ATOM     33  O   UNL     1       2.665  -1.827  -1.733  0.00  0.00    -0.462 OA
BRANCH  33  34
ATOM     34  C   UNL     1       3.526  -0.977  -2.493  0.00  0.00    +0.229 C 
ATOM     35  C   UNL     1       4.686  -1.800  -3.058  0.00  0.00    +0.048 C 
ENDBRANCH  33  34
ENDBRANCH  31  33
ENDBRANCH   2  31
BRANCH   1  36
ATOM     36  C   UNL     1      -0.472   0.051   0.297  0.00  0.00    +0.056 C 
BRANCH  36  38
ATOM     37  C   UNL     1      -1.456   1.980  -0.949  0.00  0.00    +0.004 C 
ATOM     38  C   UNL     1      -1.292   0.459  -0.929  0.00  0.00    +0.003 C 
ENDBRANCH  36  38
ENDBRANCH   1  36
TORSDOF 11
