REMARK  Name = ZINC28060642
REMARK  3 active torsions:
REMARK  status: ('A' for Active; 'I' for Inactive)
REMARK    1  A    between atoms: C_1  and  C_2
REMARK    2  A    between atoms: C_10  and  C_13
REMARK    3  A    between atoms: C_20  and  C_28
REMARK                            x       y       z     vdW  Elec       q    Type
REMARK                         _______ _______ _______ _____ _____    ______ ____
ROOT
ATOM      1  C   UNL     1      -5.518   6.420   1.522  0.00  0.00    +0.044 C 
ATOM      2  C   UNL     1      -4.974   5.153   0.912  0.00  0.00    -0.050 A 
ATOM      3  C   UNL     1      -4.814   5.062  -0.460  0.00  0.00    +0.007 A 
ATOM      4  C   UNL     1      -4.317   3.906  -1.034  0.00  0.00    +0.046 A 
ATOM      5  C   UNL     1      -3.976   2.833  -0.232  0.00  0.00    +0.131 A 
ATOM      6  C   UNL     1      -4.138   2.923   1.157  0.00  0.00    +0.038 A 
ATOM      7  C   UNL     1      -4.638   4.088   1.725  0.00  0.00    +0.016 A 
ATOM      8  C   UNL     1      -3.764   1.753   1.987  0.00  0.00    +0.050 C 
ATOM      9  C   UNL     1      -2.992   0.810   1.444  0.00  0.00    +0.026 C 
ATOM     10  C   UNL     1      -2.514   0.978   0.019  0.00  0.00    +0.234 C 
ATOM     11  O   UNL     1      -3.483   1.683  -0.756  0.00  0.00    -0.479 OA
ATOM     12  C   UNL     1      -2.576  -0.427   2.201  0.00  0.00    +0.181 C 
ATOM     13  N   UNL     1      -2.855  -0.263   3.620  0.00  0.00    -0.201 N 
ATOM     14  C   UNL     1      -3.636   0.727   4.128  0.00  0.00    +0.240 A 
ATOM     15  N   UNL     1      -3.676   0.566   5.420  0.00  0.00    -0.092 NA
ATOM     16  N   UNL     1      -2.971  -0.457   5.764  0.00  0.00    -0.021 NA
ATOM     17  N   UNL     1      -2.439  -1.010   4.721  0.00  0.00    -0.042 NA
ATOM     18  N   UNL     1      -4.222   1.676   3.308  0.00  0.00    -0.282 N 
ATOM     19  H   UNL     1      -5.016   2.354   3.655  0.00  0.00    +0.155 HD
ENDROOT
BRANCH  10  20
ATOM     20  C   UNL     1      -1.220   1.750   0.017  0.00  0.00    -0.000 A 
ATOM     21  C   UNL     1      -1.230   3.117   0.229  0.00  0.00    +0.008 A 
ATOM     22  C   UNL     1      -0.043   3.825   0.233  0.00  0.00    +0.003 A 
ATOM     23  C   UNL     1       1.155   3.169   0.021  0.00  0.00    +0.038 A 
ATOM     24  C   UNL     1       1.166   1.802  -0.197  0.00  0.00    +0.124 A 
ATOM     25  C   UNL     1      -0.024   1.093  -0.201  0.00  0.00    +0.046 A 
ATOM     26  F   UNL     1       2.336   1.160  -0.404  0.00  0.00    -0.205 F 
ENDBRANCH  10  20
BRANCH  12  27
ATOM     27  C   UNL     1      -3.339  -1.615   1.675  0.00  0.00    +0.019 A 
ATOM     28  C   UNL     1      -2.865  -2.750   1.106  0.00  0.00    +0.013 A 
ATOM     29  C   UNL     1      -3.762  -3.719   0.697  0.00  0.00    +0.008 A 
ATOM     30  C   UNL     1      -5.089  -3.501   0.867  0.00  0.00    +0.045 A 
ATOM     31  S   UNL     1      -5.103  -1.889   1.634  0.00  0.00    -0.099 S 
ENDBRANCH  12  27
TORSDOF 2
