REMARK  Name = ZINC66660509
REMARK  7 active torsions:
REMARK  status: ('A' for Active; 'I' for Inactive)
REMARK    1  A    between atoms: C_1  and  C_2
REMARK    2  A    between atoms: C_11  and  C_12
REMARK    3  A    between atoms: C_12  and  C_13
REMARK    4  A    between atoms: N_15  and  C_16
REMARK    5  A    between atoms: C_18  and  C_30
REMARK    6  A    between atoms: N_20  and  C_21
REMARK    7  A    between atoms: C_24  and  N_27
REMARK                            x       y       z     vdW  Elec       q    Type
REMARK                         _______ _______ _______ _____ _____    ______ ____
ROOT
ATOM      1  C   UNL     1       1.487  -5.626  -1.111  0.00  0.00    +0.223 C 
ATOM      2  O   UNL     1       2.399  -4.962  -0.667  0.00  0.00    -0.275 OA
ATOM      3  N   UNL     1       1.741  -6.618  -1.988  0.00  0.00    -0.270 N 
ATOM      4  H   UNL     1       1.011  -7.149  -2.344  0.00  0.00    +0.156 HD
ENDROOT
BRANCH   3   5
ATOM      5  C   UNL     1       3.052  -6.880  -2.384  0.00  0.00    +0.129 A 
ATOM      6  C   UNL     1       4.167  -6.222  -1.964  0.00  0.00    +0.068 A 
ATOM      7  C   UNL     1       5.270  -6.798  -2.600  0.00  0.00    +0.062 A 
ATOM      8  N   UNL     1       4.845  -7.763  -3.375  0.00  0.00    -0.170 NA
ATOM      9  N   UNL     1       3.452  -7.845  -3.257  0.00  0.00    -0.218 N 
ATOM     10  C   UNL     1       6.707  -6.376  -2.425  0.00  0.00    +0.067 C 
BRANCH   9  11
ATOM     11  C   UNL     1       2.618  -8.755  -3.921  0.00  0.00    +0.068 A 
ATOM     12  C   UNL     1       1.485  -9.249  -3.289  0.00  0.00    +0.030 A 
ATOM     13  C   UNL     1       0.665 -10.146  -3.946  0.00  0.00    +0.035 A 
ATOM     14  C   UNL     1       0.972 -10.551  -5.232  0.00  0.00    +0.126 A 
ATOM     15  C   UNL     1       2.101 -10.061  -5.864  0.00  0.00    +0.035 A 
ATOM     16  C   UNL     1       2.921  -9.159  -5.214  0.00  0.00    +0.030 A 
BRANCH  14  17
ATOM     17  N   UNL     1       0.092 -11.512  -5.934  0.00  0.00    +0.056 N 
ATOM     18  O   UNL     1      -0.894 -11.942  -5.382  0.00  0.00    -0.126 OA
ATOM     19  O   UNL     1       0.359 -11.868  -7.058  0.00  0.00    -0.126 OA
ENDBRANCH  14  17
ENDBRANCH   9  11
ENDBRANCH   3   5
BRANCH   1  20
ATOM     20  C   UNL     1       0.070  -5.342  -0.684  0.00  0.00    +0.133 C 
BRANCH  20  31
ATOM     21  C   UNL     1      -0.018   1.503   0.010  0.00  0.00    +0.044 C 
ATOM     22  C   UNL     1       0.002  -0.004   0.002  0.00  0.00    -0.048 A 
ATOM     23  C   UNL     1       0.006  -0.685  -1.208  0.00  0.00    +0.004 A 
ATOM     24  C   UNL     1       0.024  -2.050  -1.236  0.00  0.00    +0.010 A 
ATOM     25  C   UNL     1       0.040  -2.768  -0.038  0.00  0.00    +0.003 A 
ATOM     26  C   UNL     1       0.037  -2.083   1.190  0.00  0.00    +0.047 A 
ATOM     27  C   UNL     1       0.023  -0.692   1.195  0.00  0.00    +0.029 A 
ATOM     28  N   UNL     1       0.054  -3.035   2.186  0.00  0.00    -0.360 N 
ATOM     29  H   UNL     1       0.057  -2.846   3.137  0.00  0.00    +0.165 HD
ATOM     30  C   UNL     1       0.068  -4.286   1.632  0.00  0.00    +0.087 A 
ATOM     31  C   UNL     1       0.060  -4.195   0.293  0.00  0.00    -0.014 A 
ENDBRANCH  20  31
ENDBRANCH   1  20
TORSDOF 5
