REMARK  Name = ZINC46842386
REMARK  11 active torsions:
REMARK  status: ('A' for Active; 'I' for Inactive)
REMARK    1  A    between atoms: C_1  and  C_2
REMARK    2  A    between atoms: C_7  and  C_10
REMARK    3  A    between atoms: C_14  and  C_17
REMARK    4  A    between atoms: C_17  and  N_18
REMARK    5  A    between atoms: C_19  and  C_21
REMARK    6  A    between atoms: C_21  and  C_23
REMARK    7  A    between atoms: C_21  and  N_26
REMARK    8  A    between atoms: C_23  and  C_24
REMARK    9  A    between atoms: C_23  and  C_25
REMARK   10  A    between atoms: N_26  and  S_27
REMARK   11  A    between atoms: S_27  and  C_30
REMARK                            x       y       z     vdW  Elec       q    Type
REMARK                         _______ _______ _______ _____ _____    ______ ____
ROOT
ATOM      1  N   UNL     1       4.567   3.707  -5.853  0.00  0.00    -0.310 N 
ATOM      2  C   UNL     1       4.972   4.713  -6.653  0.00  0.00    +0.232 C 
ATOM      3  O   UNL     1       5.319   4.480  -7.792  0.00  0.00    -0.274 OA
ATOM      4  H   UNL     1       4.222   3.901  -4.967  0.00  0.00    +0.149 HD
ENDROOT
BRANCH   1   5
ATOM      5  C   UNL     1       4.647   2.321  -6.321  0.00  0.00    +0.141 C 
BRANCH   5  17
ATOM      6  C   UNL     1       1.180   0.270  -0.273  0.00  0.00    +0.039 C 
ATOM      7  C   UNL     1       1.095  -1.223  -0.597  0.00  0.00    +0.133 C 
ATOM      8  C   UNL     1       1.449  -1.448  -2.071  0.00  0.00    +0.137 C 
ATOM      9  N   UNL     1       2.874  -1.134  -2.260  0.00  0.00    -0.312 N 
ATOM     10  C   UNL     1       3.846  -1.752  -1.345  0.00  0.00    +0.137 C 
ATOM     11  C   UNL     1       3.376  -1.513   0.094  0.00  0.00    +0.133 C 
ATOM     12  O   UNL     1       2.018  -1.943   0.225  0.00  0.00    -0.371 OA
ATOM     13  C   UNL     1       4.259  -2.306   1.060  0.00  0.00    +0.039 C 
ATOM     14  C   UNL     1       3.290  -0.278  -3.273  0.00  0.00    +0.099 A 
ATOM     15  C   UNL     1       2.364   0.204  -4.192  0.00  0.00    +0.042 A 
ATOM     16  C   UNL     1       2.791   1.056  -5.195  0.00  0.00    +0.010 A 
ATOM     17  C   UNL     1       4.136   1.397  -5.245  0.00  0.00    -0.014 A 
ATOM     18  C   UNL     1       5.001   0.882  -4.301  0.00  0.00    +0.089 A 
ATOM     19  N   UNL     1       4.564   0.076  -3.352  0.00  0.00    -0.349 N 
ATOM     20  H   UNL     1       5.192  -0.269  -2.698  0.00  0.00    +0.167 HD
ENDBRANCH   5  17
ENDBRANCH   1   5
BRANCH   2  21
ATOM     21  C   UNL     1       4.995   6.127  -6.133  0.00  0.00    +0.165 C 
BRANCH  21  22
ATOM     22  C   UNL     1       3.572   6.691  -6.127  0.00  0.00    +0.010 C 
ATOM     23  C   UNL     1       3.590   8.114  -5.564  0.00  0.00    +0.009 C 
ATOM     24  C   UNL     1       3.027   6.715  -7.556  0.00  0.00    +0.009 C 
ENDBRANCH  21  22
BRANCH  21  25
ATOM     25  N   UNL     1       5.843   6.952  -6.996  0.00  0.00    -0.178 NA
ATOM     26  H   UNL     1       5.477   7.344  -7.804  0.00  0.00    +0.149 HD
BRANCH  25  27
ATOM     27  S   UNL     1       7.428   7.215  -6.593  0.00  0.00    +0.062 S 
ATOM     28  O   UNL     1       7.973   8.047  -7.607  0.00  0.00    -0.153 OA
ATOM     29  O   UNL     1       7.442   7.579  -5.219  0.00  0.00    -0.153 OA
BRANCH  27  30
ATOM     30  C   UNL     1       8.260   5.666  -6.712  0.00  0.00    +0.140 A 
ATOM     31  C   UNL     1       9.214   5.468  -7.691  0.00  0.00    +0.031 A 
ATOM     32  C   UNL     1       9.867   4.253  -7.785  0.00  0.00    +0.002 A 
ATOM     33  C   UNL     1       9.566   3.235  -6.899  0.00  0.00    +0.003 A 
ATOM     34  C   UNL     1       8.612   3.432  -5.918  0.00  0.00    +0.040 A 
ATOM     35  C   UNL     1       7.962   4.650  -5.820  0.00  0.00    +0.150 A 
ATOM     36  F   UNL     1       7.032   4.845  -4.859  0.00  0.00    -0.203 F 
ENDBRANCH  27  30
ENDBRANCH  25  27
ENDBRANCH  21  25
ENDBRANCH   2  21
TORSDOF 7
