REMARK  Name = ZINC39970009
REMARK  7 active torsions:
REMARK  status: ('A' for Active; 'I' for Inactive)
REMARK    1  A    between atoms: C_1  and  C_2
REMARK    2  A    between atoms: C_7  and  C_8
REMARK    3  A    between atoms: C_8  and  O_9
REMARK    4  A    between atoms: O_9  and  C_10
REMARK    5  A    between atoms: C_13  and  C_18
REMARK    6  A    between atoms: C_15  and  O_16
REMARK    7  A    between atoms: O_16  and  C_17
REMARK                            x       y       z     vdW  Elec       q    Type
REMARK                         _______ _______ _______ _____ _____    ______ ____
ROOT
ATOM      1  C   UNL     1       0.056  -0.377   4.845  0.00  0.00    +0.162 A 
ATOM      2  C   UNL     1       0.541   0.901   5.073  0.00  0.00    +0.050 A 
ATOM      3  C   UNL     1       0.543   1.421   6.353  0.00  0.00    +0.008 A 
ATOM      4  C   UNL     1       0.063   0.669   7.409  0.00  0.00    -0.039 A 
ATOM      5  C   UNL     1      -0.422  -0.607   7.189  0.00  0.00    +0.053 A 
ATOM      6  C   UNL     1      -0.433  -1.132   5.907  0.00  0.00    +0.162 A 
ENDROOT
BRANCH   4   7
ATOM      7  C   UNL     1       0.068   1.241   8.803  0.00  0.00    +0.047 C 
ATOM      8  C   UNL     1      -0.542   2.646   8.787  0.00  0.00    +0.105 C 
ATOM      9  C   UNL     1       0.388   3.627   8.137  0.00  0.00    +0.219 C 
ATOM     10  O   UNL     1      -0.077   4.669   7.725  0.00  0.00    -0.275 OA
ATOM     11  N   UNL     1       1.703   3.417   7.986  0.00  0.00    -0.273 N 
ATOM     12  C   UNL     1       2.271   2.232   8.359  0.00  0.00    +0.117 C 
ATOM     13  N   UNL     1       3.435   1.877   7.895  0.00  0.00    -0.205 NA
ATOM     14  C   UNL     1       3.968   0.676   8.148  0.00  0.00    +0.206 C 
ATOM     15  N   UNL     1       3.328  -0.246   8.851  0.00  0.00    -0.147 NA
ATOM     16  C   UNL     1       2.150  -0.002   9.410  0.00  0.00    +0.250 C 
ATOM     17  O   UNL     1       1.580  -0.891  10.012  0.00  0.00    -0.273 OA
ATOM     18  C   UNL     1       1.509   1.347   9.312  0.00  0.00    +0.148 C 
ATOM     19  N   UNL     1       5.215   0.391   7.664  0.00  0.00    -0.329 N 
ATOM     20  H   UNL     1       2.259   4.116   7.607  0.00  0.00    +0.156 HD
ATOM     21  H   UNL     1       5.698   1.054   7.147  0.00  0.00    +0.145 HD
ATOM     22  H   UNL     1       5.616  -0.475   7.838  0.00  0.00    +0.145 HD
ENDBRANCH   4   7
BRANCH   6  23
ATOM     23  O   UNL     1      -0.915  -2.384   5.688  0.00  0.00    -0.491 OA
ATOM     24  C   UNL     1      -1.401  -3.101   6.825  0.00  0.00    +0.277 C 
ENDBRANCH   6  23
BRANCH   1  25
ATOM     25  O   UNL     1       0.052  -0.890   3.586  0.00  0.00    -0.484 OA
BRANCH  25  26
ATOM     26  C   UNL     1       0.569  -0.059   2.545  0.00  0.00    +0.265 C 
BRANCH  26  33
ATOM     27  C   UNL     1       1.498   1.214   0.123  0.00  0.00    +0.044 C 
ATOM     28  C   UNL     1       0.929  -0.181   0.071  0.00  0.00    -0.044 A 
ATOM     29  C   UNL     1       0.857  -0.854  -1.135  0.00  0.00    +0.004 A 
ATOM     30  C   UNL     1       0.336  -2.133  -1.183  0.00  0.00    +0.000 A 
ATOM     31  C   UNL     1      -0.114  -2.740  -0.025  0.00  0.00    +0.000 A 
ATOM     32  C   UNL     1      -0.041  -2.067   1.181  0.00  0.00    +0.007 A 
ATOM     33  C   UNL     1       0.485  -0.790   1.230  0.00  0.00    -0.007 A 
ENDBRANCH  26  33
ENDBRANCH  25  26
ENDBRANCH   1  25
TORSDOF 5
