REMARK  Name = ZINC42014633
REMARK  3 active torsions:
REMARK  status: ('A' for Active; 'I' for Inactive)
REMARK    1  A    between atoms: C_4  and  N_20
REMARK    2  A    between atoms: C_6  and  C_7
REMARK    3  A    between atoms: N_11  and  C_12
REMARK                            x       y       z     vdW  Elec       q    Type
REMARK                         _______ _______ _______ _____ _____    ______ ____
ROOT
ATOM      1  C   UNL     1      -1.286  -0.747   0.138  0.00  0.00    +0.187 A 
ATOM      2  N   UNL     1      -1.416  -2.051   0.267  0.00  0.00    -0.108 NA
ATOM      3  N   UNL     1      -2.633  -2.404   0.064  0.00  0.00    -0.022 NA
ATOM      4  N   UNL     1      -3.364  -1.377  -0.206  0.00  0.00    -0.039 NA
ATOM      5  N   UNL     1      -2.521  -0.253  -0.165  0.00  0.00    -0.191 N 
ENDROOT
BRANCH   5   6
ATOM      6  C   UNL     1      -2.872   1.086  -0.389  0.00  0.00    +0.088 A 
ATOM      7  C   UNL     1      -2.233   1.816  -1.381  0.00  0.00    +0.032 A 
ATOM      8  C   UNL     1      -2.580   3.134  -1.601  0.00  0.00    +0.040 A 
ATOM      9  C   UNL     1      -3.566   3.729  -0.831  0.00  0.00    +0.125 A 
ATOM     10  C   UNL     1      -4.206   3.003   0.160  0.00  0.00    +0.060 A 
ATOM     11  C   UNL     1      -3.866   1.682   0.378  0.00  0.00    +0.069 A 
ATOM     12 CL   UNL     1      -4.673   0.770   1.615  0.00  0.00    -0.081 Cl
ATOM     13  F   UNL     1      -3.904   5.019  -1.047  0.00  0.00    -0.205 F 
ENDBRANCH   5   6
BRANCH   1  19
ATOM     14  C   UNL     1      -0.100   1.408   0.535  0.00  0.00    +0.013 A 
ATOM     15  C   UNL     1       1.064   2.135   0.684  0.00  0.00    +0.022 A 
ATOM     16  C   UNL     1       2.293   1.507   0.596  0.00  0.00    +0.062 A 
ATOM     17  C   UNL     1       2.363   0.138   0.358  0.00  0.00    +0.044 A 
ATOM     18  C   UNL     1       1.200  -0.600   0.209  0.00  0.00    +0.035 A 
ATOM     19  C   UNL     1      -0.039   0.035   0.297  0.00  0.00    +0.023 A 
ATOM     20 CL   UNL     1       3.752   2.429   0.784  0.00  0.00    -0.082 Cl
BRANCH  17  21
ATOM     21  N   UNL     1       3.607  -0.494   0.270  0.00  0.00    -0.357 N 
ATOM     22  H   UNL     1       4.422   0.023   0.374  0.00  0.00    +0.142 HD
ATOM     23  H   UNL     1       3.656  -1.448   0.104  0.00  0.00    +0.142 HD
ENDBRANCH  17  21
ENDBRANCH   1  19
TORSDOF 3
