REMARK  Name = ZINC63835322
REMARK  7 active torsions:
REMARK  status: ('A' for Active; 'I' for Inactive)
REMARK    1  A    between atoms: C_7  and  C_10
REMARK    2  A    between atoms: C_10  and  C_11
REMARK    3  A    between atoms: C_11  and  N_12
REMARK    4  A    between atoms: C_13  and  C_15
REMARK    5  A    between atoms: C_20  and  N_21
REMARK    6  A    between atoms: N_21  and  S_22
REMARK    7  A    between atoms: S_22  and  C_25
REMARK                            x       y       z     vdW  Elec       q    Type
REMARK                         _______ _______ _______ _____ _____    ______ ____
ROOT
ATOM      1  C   UNL     1      -1.819  -6.216  -2.666  0.00  0.00    +0.059 A 
ATOM      2  C   UNL     1      -2.405  -6.519  -1.435  0.00  0.00    +0.015 A 
ATOM      3  C   UNL     1      -3.320  -7.545  -1.343  0.00  0.00    +0.001 A 
ATOM      4  C   UNL     1      -3.663  -8.280  -2.467  0.00  0.00    +0.002 A 
ATOM      5  C   UNL     1      -3.093  -7.994  -3.690  0.00  0.00    +0.025 A 
ATOM      6  C   UNL     1      -2.173  -6.958  -3.804  0.00  0.00    +0.060 A 
ENDROOT
BRANCH   1   8
ATOM      7  N   UNL     1      -0.502  -4.409  -1.677  0.00  0.00    -0.311 N 
ATOM      8  C   UNL     1      -0.839  -5.120  -2.772  0.00  0.00    +0.246 C 
ATOM      9  O   UNL     1      -0.335  -4.856  -3.846  0.00  0.00    -0.270 OA
ATOM     10  H   UNL     1      -0.904  -4.620  -0.820  0.00  0.00    +0.149 HD
BRANCH   7  11
ATOM     11  C   UNL     1       0.472  -3.320  -1.781  0.00  0.00    +0.109 C 
BRANCH  11  12
ATOM     12  C   UNL     1       0.673  -2.682  -0.405  0.00  0.00    +0.052 C 
BRANCH  12  19
ATOM     13  C   UNL     1       0.208   1.846  -0.979  0.00  0.00    +0.001 A 
ATOM     14  C   UNL     1       1.428   2.535  -1.027  0.00  0.00    +0.002 A 
ATOM     15  C   UNL     1       2.621   1.914  -0.914  0.00  0.00    +0.026 A 
ATOM     16  C   UNL     1       2.684   0.504  -0.738  0.00  0.00    +0.043 A 
ATOM     17  N   UNL     1       3.699  -0.315  -0.606  0.00  0.00    -0.380 N 
ATOM     18  C   UNL     1       3.182  -1.680  -0.453  0.00  0.00    +0.144 C 
ATOM     19  C   UNL     1       1.675  -1.562  -0.513  0.00  0.00    -0.040 C 
ATOM     20  C   UNL     1       1.409  -0.246  -0.683  0.00  0.00    -0.001 A 
ATOM     21  C   UNL     1       0.155   0.505  -0.814  0.00  0.00    +0.010 A 
ATOM     22  H   UNL     1       4.635  -0.062  -0.610  0.00  0.00    +0.160 HD
ENDBRANCH  12  19
ENDBRANCH  11  12
ENDBRANCH   7  11
ENDBRANCH   1   8
BRANCH   6  23
ATOM     23  N   UNL     1      -1.602  -6.664  -5.035  0.00  0.00    -0.216 N 
ATOM     24  H   UNL     1      -0.679  -6.371  -5.084  0.00  0.00    +0.174 HD
BRANCH  23  25
ATOM     25  S   UNL     1      -2.498  -6.813  -6.420  0.00  0.00    +0.072 S 
ATOM     26  O   UNL     1      -1.691  -6.320  -7.480  0.00  0.00    -0.150 OA
ATOM     27  O   UNL     1      -3.033  -8.129  -6.418  0.00  0.00    -0.150 OA
BRANCH  25  28
ATOM     28  C   UNL     1      -3.866  -5.712  -6.276  0.00  0.00    +0.109 A 
ATOM     29  C   UNL     1      -5.046  -6.149  -5.703  0.00  0.00    +0.031 A 
ATOM     30  C   UNL     1      -6.120  -5.286  -5.589  0.00  0.00    +0.040 A 
ATOM     31  C   UNL     1      -6.014  -3.985  -6.049  0.00  0.00    +0.124 A 
ATOM     32  C   UNL     1      -4.831  -3.548  -6.622  0.00  0.00    +0.040 A 
ATOM     33  C   UNL     1      -3.757  -4.411  -6.730  0.00  0.00    +0.031 A 
ATOM     34  F   UNL     1      -7.063  -3.141  -5.938  0.00  0.00    -0.205 F 
ENDBRANCH  25  28
ENDBRANCH  23  25
ENDBRANCH   6  23
TORSDOF 7
