REMARK  Name = ZINC39688184
REMARK  6 active torsions:
REMARK  status: ('A' for Active; 'I' for Inactive)
REMARK    1  A    between atoms: C_6  and  O_7
REMARK    2  A    between atoms: O_7  and  C_8
REMARK    3  A    between atoms: C_8  and  C_9
REMARK    4  A    between atoms: C_9  and  N_10
REMARK    5  A    between atoms: C_11  and  C_13
REMARK    6  A    between atoms: C_24  and  C_26
REMARK                            x       y       z     vdW  Elec       q    Type
REMARK                         _______ _______ _______ _____ _____    ______ ____
ROOT
ATOM      1  C   UNL     1      -5.297  -2.108  -2.129  0.00  0.00    +0.100 C 
ATOM      2  C   UNL     1      -5.508  -0.630  -2.529  0.00  0.00    +0.121 C 
ATOM      3  N   UNL     1      -6.823  -0.611  -3.212  0.00  0.00    -0.296 N 
ATOM      4  C   UNL     1      -7.662  -1.544  -2.422  0.00  0.00    +0.115 C 
ATOM      5  C   UNL     1      -6.713  -2.704  -2.059  0.00  0.00    -0.004 C 
ATOM      6  C   UNL     1      -7.008  -3.203  -0.648  0.00  0.00    -0.010 C 
ATOM      7  C   UNL     1      -8.398  -3.844  -0.618  0.00  0.00    -0.082 C 
ATOM      8  N   UNL     1      -8.447  -4.958  -1.572  0.00  0.00    +0.379 N 
ATOM      9  C   UNL     1      -8.255  -4.455  -2.938  0.00  0.00    -0.082 C 
ATOM     10  C   UNL     1      -6.859  -3.840  -3.067  0.00  0.00    -0.010 C 
ATOM     11  C   UNL     1      -7.176   0.095  -4.304  0.00  0.00    +0.247 C 
ATOM     12  O   UNL     1      -6.337   0.722  -4.921  0.00  0.00    -0.270 OA
ATOM     13  H   UNL     1      -7.717  -5.619  -1.353  0.00  0.00    -0.086 HD
ATOM     14  H   UNL     1      -9.343  -5.416  -1.507  0.00  0.00    -0.086 HD
ENDROOT
BRANCH  11  15
ATOM     15  C   UNL     1      -8.585   0.106  -4.753  0.00  0.00    +0.040 A 
ATOM     16  C   UNL     1      -9.607  -0.225  -3.863  0.00  0.00    +0.033 A 
ATOM     17  C   UNL     1     -10.921  -0.212  -4.288  0.00  0.00    +0.043 A 
ATOM     18  C   UNL     1     -11.225   0.128  -5.595  0.00  0.00    +0.040 A 
ATOM     19  C   UNL     1     -10.215   0.457  -6.483  0.00  0.00    +0.043 A 
ATOM     20  C   UNL     1      -8.898   0.454  -6.068  0.00  0.00    +0.033 A 
ATOM     21 CL   UNL     1     -10.607   0.882  -8.120  0.00  0.00    -0.083 Cl
ATOM     22 CL   UNL     1     -12.193  -0.625  -3.181  0.00  0.00    -0.083 Cl
ENDBRANCH  11  15
BRANCH   1  24
ATOM     23  N   UNL     1      -3.821  -3.241  -0.499  0.00  0.00    -0.312 N 
ATOM     24  C   UNL     1      -4.624  -2.196  -0.784  0.00  0.00    +0.218 C 
ATOM     25  O   UNL     1      -4.804  -1.327   0.043  0.00  0.00    -0.275 OA
ATOM     26  H   UNL     1      -3.677  -3.936  -1.160  0.00  0.00    +0.149 HD
BRANCH  23  27
ATOM     27  C   UNL     1      -3.167  -3.327   0.808  0.00  0.00    +0.145 C 
BRANCH  27  28
ATOM     28  C   UNL     1      -2.319  -4.599   0.872  0.00  0.00    +0.247 C 
BRANCH  28  29
ATOM     29  O   UNL     1      -1.256  -4.511  -0.078  0.00  0.00    -0.490 OA
BRANCH  29  35
ATOM     30  C   UNL     1       0.651  -5.548  -1.051  0.00  0.00    +0.048 A 
ATOM     31  C   UNL     1       1.517  -6.622  -1.123  0.00  0.00    +0.042 A 
ATOM     32  C   UNL     1       1.332  -7.718  -0.297  0.00  0.00    +0.124 A 
ATOM     33  C   UNL     1       0.279  -7.739   0.602  0.00  0.00    +0.042 A 
ATOM     34  C   UNL     1      -0.588  -6.666   0.676  0.00  0.00    +0.048 A 
ATOM     35  C   UNL     1      -0.403  -5.568  -0.151  0.00  0.00    +0.121 A 
ATOM     36  F   UNL     1       2.179  -8.768  -0.369  0.00  0.00    -0.205 F 
ENDBRANCH  29  35
ENDBRANCH  28  29
ENDBRANCH  27  28
ENDBRANCH  23  27
ENDBRANCH   1  24
TORSDOF 6
