REMARK  Name = ZINC00057498
REMARK  4 active torsions:
REMARK  status: ('A' for Active; 'I' for Inactive)
REMARK    1  A    between atoms: C_3  and  C_14
REMARK    2  A    between atoms: C_7  and  C_9
REMARK    3  A    between atoms: C_9  and  C_10
REMARK    4  A    between atoms: C_10  and  C_11
REMARK                            x       y       z     vdW  Elec       q    Type
REMARK                         _______ _______ _______ _____ _____    ______ ____
ROOT
ATOM      1  C   UNL     1      -0.019   1.545   0.011  0.00  0.00    +0.021 C 
ATOM      2  C   UNL     1       1.497   1.877  -0.002  0.00  0.00    +0.035 C 
ATOM      3  C   UNL     1       2.088   0.760  -0.887  0.00  0.00    +0.189 C 
ATOM      4  N   UNL     1       1.137  -0.361  -0.869  0.00  0.00    -0.288 N 
ATOM      5  C   UNL     1       0.002  -0.004   0.002  0.00  0.00    +0.109 C 
ATOM      6  C   UNL     1       1.278  -1.523  -1.538  0.00  0.00    +0.217 C 
ATOM      7  O   UNL     1       2.257  -1.709  -2.229  0.00  0.00    -0.276 OA
ENDROOT
BRANCH   3   8
ATOM      8  C   UNL     1       3.418   0.317  -0.334  0.00  0.00    +0.376 C 
ATOM      9  O   UNL     1       3.466  -0.571   0.501  0.00  0.00    -0.244 OA
ATOM     10  O   UNL     1       4.446   0.846  -0.720  0.00  0.00    -0.244 OA
ENDBRANCH   3   8
BRANCH   6  11
ATOM     11  C   UNL     1       0.220  -2.590  -1.427  0.00  0.00    +0.107 C 
BRANCH  11  12
ATOM     12  C   UNL     1       0.622  -3.797  -2.277  0.00  0.00    +0.134 C 
BRANCH  12  13
ATOM     13  C   UNL     1      -0.436  -4.864  -2.166  0.00  0.00    +0.356 C 
ATOM     14  O   UNL     1      -1.420  -4.677  -1.471  0.00  0.00    -0.246 OA
ATOM     15  O   UNL     1      -0.308  -5.915  -2.771  0.00  0.00    -0.246 OA
ENDBRANCH  12  13
ENDBRANCH  11  12
ENDBRANCH   6  11
TORSDOF 4
