REMARK  Name = ZINC27300050
REMARK  7 active torsions:
REMARK  status: ('A' for Active; 'I' for Inactive)
REMARK    1  A    between atoms: C_1  and  C_2
REMARK    2  A    between atoms: C_5  and  N_8
REMARK    3  A    between atoms: C_9  and  C_11
REMARK    4  A    between atoms: C_11  and  N_23
REMARK    5  A    between atoms: C_18  and  C_22
REMARK    6  A    between atoms: N_23  and  C_24
REMARK    7  A    between atoms: C_27  and  C_30
REMARK                            x       y       z     vdW  Elec       q    Type
REMARK                         _______ _______ _______ _____ _____    ______ ____
ROOT
ATOM      1  C   UNL     1       2.908   4.120   0.912  0.00  0.00    +0.237 C 
ATOM      2  C   UNL     1       3.858   3.022   0.518  0.00  0.00    +0.261 C 
ATOM      3  O   UNL     1       5.049   3.252   0.561  0.00  0.00    -0.272 OA
ATOM      4  N   UNL     1       3.466   1.814   0.124  0.00  0.00    -0.282 N 
ATOM      5  C   UNL     1       2.151   1.368   0.023  0.00  0.00    +0.047 A 
ATOM      6  C   UNL     1       1.888   0.002   0.040  0.00  0.00    +0.024 A 
ATOM      7  C   UNL     1       0.590  -0.458  -0.068  0.00  0.00    +0.005 A 
ATOM      8  C   UNL     1      -0.461   0.432  -0.195  0.00  0.00    -0.049 A 
ATOM      9  C   UNL     1      -0.215   1.792  -0.212  0.00  0.00    +0.020 A 
ATOM     10  C   UNL     1       1.084   2.260  -0.102  0.00  0.00    +0.032 A 
ATOM     11  S   UNL     1       1.411   3.994  -0.114  0.00  0.00    -0.079 S 
ATOM     12  C   UNL     1      -1.873  -0.081  -0.314  0.00  0.00    +0.044 C 
ATOM     13  H   UNL     1       4.213   1.058  -0.161  0.00  0.00    +0.155 HD
ENDROOT
BRANCH   1  15
ATOM     14  N   UNL     1       4.074   5.766  -0.519  0.00  0.00    -0.283 N 
ATOM     15  C   UNL     1       3.562   5.459   0.689  0.00  0.00    +0.261 C 
ATOM     16  O   UNL     1       3.628   6.260   1.597  0.00  0.00    -0.272 OA
ATOM     17  H   UNL     1       3.950   5.070  -1.362  0.00  0.00    +0.155 HD
BRANCH  14  22
ATOM     18  C   UNL     1       6.868  10.648  -1.259  0.00  0.00    +0.044 C 
ATOM     19  C   UNL     1       6.126   9.351  -1.062  0.00  0.00    -0.050 A 
ATOM     20  C   UNL     1       6.528   8.216  -1.742  0.00  0.00    +0.005 A 
ATOM     21  C   UNL     1       5.850   7.026  -1.565  0.00  0.00    +0.023 A 
ATOM     22  C   UNL     1       4.763   6.970  -0.702  0.00  0.00    +0.034 A 
ATOM     23  C   UNL     1       4.358   8.113  -0.025  0.00  0.00    +0.023 A 
ATOM     24  C   UNL     1       5.044   9.299  -0.203  0.00  0.00    +0.005 A 
ENDBRANCH  14  22
ENDBRANCH   1  15
BRANCH   1  25
ATOM     25  N   UNL     1       2.549   3.974   2.325  0.00  0.00    -0.315 N 
ATOM     26  H   UNL     1       1.496   3.842   2.614  0.00  0.00    +0.148 HD
BRANCH  25  27
ATOM     27  C   UNL     1       3.543   4.004   3.305  0.00  0.00    +0.029 A 
ATOM     28  C   UNL     1       4.843   4.363   2.967  0.00  0.00    +0.023 A 
ATOM     29  C   UNL     1       5.823   4.396   3.940  0.00  0.00    +0.005 A 
ATOM     30  C   UNL     1       5.514   4.063   5.246  0.00  0.00    -0.050 A 
ATOM     31  C   UNL     1       4.223   3.701   5.584  0.00  0.00    +0.005 A 
ATOM     32  C   UNL     1       3.237   3.670   4.618  0.00  0.00    +0.023 A 
ATOM     33  C   UNL     1       6.588   4.095   6.303  0.00  0.00    +0.044 C 
ENDBRANCH  25  27
ENDBRANCH   1  25
TORSDOF 4
