REMARK  Name = ZINC14749801
REMARK  7 active torsions:
REMARK  status: ('A' for Active; 'I' for Inactive)
REMARK    1  A    between atoms: C_1  and  C_2
REMARK    2  A    between atoms: C_2  and  C_3
REMARK    3  A    between atoms: C_2  and  C_4
REMARK    4  A    between atoms: C_4  and  N_5
REMARK    5  A    between atoms: N_8  and  C_27
REMARK    6  A    between atoms: C_16  and  C_17
REMARK    7  A    between atoms: C_16  and  N_69
REMARK                            x       y       z     vdW  Elec       q    Type
REMARK                         _______ _______ _______ _____ _____    ______ ____
ROOT
ATOM      1  N   UNL     1       5.665   2.305  -1.981  0.00  0.00    -0.271 N 
ATOM      2  C   UNL     1       4.351   2.046  -1.833  0.00  0.00    +0.312 C 
ATOM      3  O   UNL     1       3.588   1.871  -2.763  0.00  0.00    -0.252 OA
ATOM      4  N   UNL     1       3.981   2.001  -0.547  0.00  0.00    -0.220 N 
ATOM      5  C   UNL     1       5.023   2.234   0.278  0.00  0.00    +0.247 C 
ATOM      6  O   UNL     1       5.006   2.264   1.490  0.00  0.00    -0.273 OA
ATOM      7  C   UNL     1       6.214   2.447  -0.627  0.00  0.00    +0.112 C 
ATOM      8  C   UNL     1       6.789   3.845  -0.425  0.00  0.00    +0.017 C 
ATOM      9  C   UNL     1       8.009   4.027  -1.333  0.00  0.00    -0.076 C 
ATOM     10  C   UNL     1       8.485   1.650  -1.278  0.00  0.00    -0.076 C 
ATOM     11  C   UNL     1       7.281   1.388  -0.368  0.00  0.00    +0.017 C 
ATOM     12  N   UNL     1       9.017   2.999  -0.992  0.00  0.00    +0.383 N 
ATOM     13  H   UNL     1       9.233   3.066   0.009  0.00  0.00    -0.081 HD
ENDROOT
BRANCH   4  14
ATOM     14  C   UNL     1       2.613   1.739  -0.093  0.00  0.00    +0.094 C 
ATOM     15  C   UNL     1       2.066   0.440  -0.722  0.00  0.00    +0.058 C 
ATOM     16  C   UNL     1       0.594   0.703  -0.959  0.00  0.00    -0.042 A 
ATOM     17  C   UNL     1      -0.448  -0.177  -1.198  0.00  0.00    +0.004 A 
ATOM     18  C   UNL     1      -1.729   0.300  -1.392  0.00  0.00    +0.000 A 
ATOM     19  C   UNL     1      -1.975   1.660  -1.339  0.00  0.00    +0.000 A 
ATOM     20  C   UNL     1      -0.937   2.539  -1.100  0.00  0.00    +0.004 A 
ATOM     21  C   UNL     1       0.349   2.063  -0.910  0.00  0.00    -0.042 A 
ATOM     22  C   UNL     1       1.640   2.806  -0.637  0.00  0.00    +0.058 C 
ENDBRANCH   4  14
BRANCH   1  23
ATOM     23  C   UNL     1       6.400   2.424  -3.243  0.00  0.00    +0.113 C 
BRANCH  23  25
ATOM     24  C   UNL     1       7.023   1.249  -5.358  0.00  0.00    +0.009 C 
ATOM     25  C   UNL     1       6.304   1.106  -4.014  0.00  0.00    +0.000 C 
ATOM     26  C   UNL     1       6.962  -0.010  -3.200  0.00  0.00    +0.009 C 
ENDBRANCH  23  25
ENDBRANCH   1  23
BRANCH  12  27
ATOM     27  C   UNL     1      10.253   3.229  -1.767  0.00  0.00    -0.041 C 
BRANCH  27  28
ATOM     28  C   UNL     1      10.628   4.686  -1.678  0.00  0.00    -0.039 A 
ATOM     29  C   UNL     1      10.421   5.623  -2.616  0.00  0.00    +0.085 A 
ATOM     30  N   UNL     1      10.892   6.832  -2.181  0.00  0.00    -0.360 N 
ATOM     31  H   UNL     1      10.852   7.660  -2.686  0.00  0.00    +0.165 HD
ATOM     32  C   UNL     1      11.435   6.697  -0.923  0.00  0.00    +0.047 A 
ATOM     33  C   UNL     1      11.294   5.347  -0.553  0.00  0.00    +0.001 A 
ATOM     34  C   UNL     1      11.761   4.914   0.689  0.00  0.00    +0.010 A 
ATOM     35  C   UNL     1      12.354   5.804   1.540  0.00  0.00    +0.001 A 
ATOM     36  C   UNL     1      12.495   7.136   1.179  0.00  0.00    +0.002 A 
ATOM     37  C   UNL     1      12.042   7.586  -0.042  0.00  0.00    +0.026 A 
ENDBRANCH  27  28
ENDBRANCH  12  27
TORSDOF 5
