REMARK  Name = ZINC20332006
REMARK  9 active torsions:
REMARK  status: ('A' for Active; 'I' for Inactive)
REMARK    1  A    between atoms: C_1  and  C_2
REMARK    2  A    between atoms: C_2  and  C_3
REMARK    3  A    between atoms: C_9  and  C_13
REMARK    4  A    between atoms: C_13  and  O_14
REMARK    5  A    between atoms: O_14  and  C_15
REMARK    6  A    between atoms: C_18  and  C_24
REMARK    7  A    between atoms: C_20  and  O_21
REMARK    8  A    between atoms: O_21  and  C_22
REMARK    9  A    between atoms: C_22  and  C_23
REMARK                            x       y       z     vdW  Elec       q    Type
REMARK                         _______ _______ _______ _____ _____    ______ ____
ROOT
ATOM      1  C   UNL     1      -8.351  -4.731  -1.502  0.00  0.00    +0.162 A 
ATOM      2  C   UNL     1      -9.149  -5.013  -0.400  0.00  0.00    +0.050 A 
ATOM      3  C   UNL     1     -10.266  -5.805  -0.539  0.00  0.00    +0.012 A 
ATOM      4  C   UNL     1     -10.600  -6.329  -1.796  0.00  0.00    -0.021 A 
ATOM      5  C   UNL     1      -9.793  -6.044  -2.907  0.00  0.00    +0.057 A 
ATOM      6  C   UNL     1      -8.678  -5.244  -2.757  0.00  0.00    +0.162 A 
ENDROOT
BRANCH   4   7
ATOM      7  C   UNL     1     -11.787  -7.173  -1.948  0.00  0.00    +0.024 C 
ATOM      8  C   UNL     1     -12.899  -6.945  -1.168  0.00  0.00    +0.081 C 
ATOM      9  C   UNL     1     -13.009  -5.746  -0.290  0.00  0.00    +0.152 C 
ATOM     10  N   UNL     1     -12.485  -4.587  -0.589  0.00  0.00    -0.283 NA
ATOM     11  N   UNL     1     -13.735  -5.986   0.897  0.00  0.00    -0.152 N 
ATOM     12  C   UNL     1     -14.632  -7.033   0.893  0.00  0.00    +0.180 C 
ATOM     13  N   UNL     1     -14.832  -7.909  -0.058  0.00  0.00    -0.152 NA
ATOM     14  C   UNL     1     -14.054  -7.877  -1.161  0.00  0.00    +0.273 C 
ATOM     15  O   UNL     1     -14.289  -8.593  -2.121  0.00  0.00    -0.268 OA
ATOM     16  S   UNL     1     -15.390  -6.877   2.489  0.00  0.00    -0.041 S 
ATOM     17  C   UNL     1     -14.404  -5.510   3.084  0.00  0.00    +0.179 C 
ATOM     18  N   UNL     1     -13.638  -5.256   2.062  0.00  0.00    -0.173 NA
ATOM     19  H   UNL     1     -12.586  -3.838   0.019  0.00  0.00    +0.188 HD
ENDBRANCH   4   7
BRANCH   1  20
ATOM     20  O   UNL     1      -7.250  -3.949  -1.357  0.00  0.00    -0.482 OA
BRANCH  20  21
ATOM     21  C   UNL     1      -6.972  -3.456  -0.044  0.00  0.00    +0.284 C 
BRANCH  21  28
ATOM     22  C   UNL     1      -1.104  -1.156  -0.528  0.00  0.00    +0.102 A 
ATOM     23  N   UNL     1      -2.172  -0.484  -0.224  0.00  0.00    -0.159 NA
ATOM     24  N   UNL     1      -3.421  -1.094  -0.145  0.00  0.00    -0.171 N 
ATOM     25  C   UNL     1      -4.612  -0.501   0.162  0.00  0.00    +0.275 A 
ATOM     26  O   UNL     1      -4.655   0.695   0.404  0.00  0.00    -0.266 OA
ATOM     27  C   UNL     1      -5.779  -1.264   0.197  0.00  0.00    +0.099 A 
ATOM     28  C   UNL     1      -5.723  -2.614  -0.078  0.00  0.00    +0.087 A 
ATOM     29  N   UNL     1      -4.546  -3.160  -0.373  0.00  0.00    -0.223 NA
ATOM     30  C   UNL     1      -3.455  -2.437  -0.405  0.00  0.00    +0.199 A 
ATOM     31  S   UNL     1      -1.750  -2.804  -0.757  0.00  0.00    -0.033 S 
BRANCH  22  33
ATOM     32  C   UNL     1       0.370   0.832  -0.364  0.00  0.00    +0.011 C 
ATOM     33  C   UNL     1       0.316  -0.668  -0.659  0.00  0.00    +0.061 C 
ENDBRANCH  22  33
ENDBRANCH  21  28
ENDBRANCH  20  21
ENDBRANCH   1  20
BRANCH   6  34
ATOM     34  O   UNL     1      -7.896  -4.960  -3.833  0.00  0.00    -0.489 OA
BRANCH  34  35
ATOM     35  C   UNL     1      -8.291  -5.519  -5.087  0.00  0.00    +0.226 C 
ATOM     36  C   UNL     1      -7.298  -5.093  -6.170  0.00  0.00    +0.048 C 
ENDBRANCH  34  35
ENDBRANCH   6  34
TORSDOF 7
