REMARK  Name = ZINC63297474
REMARK  7 active torsions:
REMARK  status: ('A' for Active; 'I' for Inactive)
REMARK    1  A    between atoms: C_7  and  C_26
REMARK    2  A    between atoms: N_10  and  C_11
REMARK    3  A    between atoms: C_11  and  C_12
REMARK    4  A    between atoms: N_14  and  C_15
REMARK    5  A    between atoms: C_15  and  C_16
REMARK    6  A    between atoms: C_16  and  C_17
REMARK    7  A    between atoms: C_26  and  C_28
REMARK                            x       y       z     vdW  Elec       q    Type
REMARK                         _______ _______ _______ _____ _____    ______ ____
ROOT
ATOM      1  C   UNL     1      -0.017   1.378   0.010  0.00  0.00    +0.000 A 
ATOM      2  C   UNL     1       1.174   2.082   0.002  0.00  0.00    +0.002 A 
ATOM      3  C   UNL     1       2.377   1.411  -0.013  0.00  0.00    +0.023 A 
ATOM      4  C   UNL     1       2.405   0.014  -0.021  0.00  0.00    +0.034 A 
ATOM      5  C   UNL     1       1.206  -0.682  -0.013  0.00  0.00    -0.015 A 
ATOM      6  C   UNL     1       0.002  -0.004   0.002  0.00  0.00    +0.006 A 
ATOM      7  C   UNL     1       1.510  -2.163  -0.023  0.00  0.00    +0.104 C 
ATOM      8  C   UNL     1       3.046  -2.241  -0.038  0.00  0.00    +0.121 C 
ATOM      9  N   UNL     1       3.501  -0.849  -0.036  0.00  0.00    -0.320 N 
ENDROOT
BRANCH   7  10
ATOM     10  C   UNL     1       0.936  -2.809  -1.258  0.00  0.00    +0.145 C 
ATOM     11  O   UNL     1       1.619  -2.939  -2.245  0.00  0.00    -0.296 OA
BRANCH  10  12
ATOM     12  C   UNL     1      -0.491  -3.294  -1.260  0.00  0.00    +0.056 C 
ATOM     13  C   UNL     1      -0.551  -4.705  -0.671  0.00  0.00    +0.011 C 
ATOM     14  C   UNL     1      -2.000  -5.197  -0.673  0.00  0.00    +0.001 C 
ATOM     15  C   UNL     1      -2.529  -5.220  -2.109  0.00  0.00    +0.000 C 
ATOM     16  C   UNL     1      -2.468  -3.809  -2.698  0.00  0.00    +0.001 C 
ATOM     17  C   UNL     1      -1.019  -3.317  -2.696  0.00  0.00    +0.011 C 
ENDBRANCH  10  12
ENDBRANCH   7  10
BRANCH   9  18
ATOM     18  C   UNL     1       4.903  -0.424  -0.048  0.00  0.00    +0.200 C 
BRANCH  18  19
ATOM     19  C   UNL     1       5.399  -0.285   1.368  0.00  0.00    +0.230 C 
ATOM     20  O   UNL     1       4.654  -0.518   2.297  0.00  0.00    -0.274 OA
ATOM     21  N   UNL     1       6.669   0.098   1.603  0.00  0.00    -0.314 N 
ATOM     22  H   UNL     1       7.265   0.284   0.861  0.00  0.00    +0.149 HD
BRANCH  21  23
ATOM     23  C   UNL     1       7.151   0.233   2.981  0.00  0.00    +0.108 C 
BRANCH  23  24
ATOM     24  C   UNL     1       8.615   0.676   2.968  0.00  0.00    +0.052 C 
BRANCH  24  25
ATOM     25  C   UNL     1       9.110   0.815   4.384  0.00  0.00    -0.040 C 
ATOM     26  C   UNL     1       9.779  -0.113   5.107  0.00  0.00    -0.001 A 
ATOM     27  C   UNL     1      10.227  -1.477   4.802  0.00  0.00    +0.010 A 
ATOM     28  C   UNL     1      10.889  -2.177   5.751  0.00  0.00    +0.001 A 
ATOM     29  C   UNL     1      11.156  -1.635   7.015  0.00  0.00    +0.002 A 
ATOM     30  C   UNL     1      10.776  -0.389   7.369  0.00  0.00    +0.026 A 
ATOM     31  C   UNL     1      10.074   0.437   6.449  0.00  0.00    +0.043 A 
ATOM     32  N   UNL     1       9.606   1.657   6.553  0.00  0.00    -0.380 N 
ATOM     33  C   UNL     1       8.966   2.022   5.284  0.00  0.00    +0.144 C 
ATOM     34  H   UNL     1       9.675   2.226   7.335  0.00  0.00    +0.160 HD
ENDBRANCH  24  25
ENDBRANCH  23  24
ENDBRANCH  21  23
ENDBRANCH  18  19
ENDBRANCH   9  18
TORSDOF 7
