REMARK  Name = ZINC45898127
REMARK  10 active torsions:
REMARK  status: ('A' for Active; 'I' for Inactive)
REMARK    1  A    between atoms: C_1  and  C_2
REMARK    2  A    between atoms: C_2  and  C_3
REMARK    3  A    between atoms: C_3  and  C_29
REMARK    4  A    between atoms: N_6  and  C_10
REMARK    5  A    between atoms: C_10  and  C_11
REMARK    6  A    between atoms: N_13  and  C_14
REMARK    7  A    between atoms: C_19  and  C_20
REMARK    8  A    between atoms: C_20  and  N_21
REMARK    9  A    between atoms: N_21  and  C_22
REMARK   10  A    between atoms: N_21  and  C_23
REMARK                            x       y       z     vdW  Elec       q    Type
REMARK                         _______ _______ _______ _____ _____    ______ ____
ROOT
ATOM      1  C   UNL     1      -5.175   0.337  -2.365  0.00  0.00    +0.235 C 
ATOM      2  O   UNL     1      -4.993  -0.862  -2.394  0.00  0.00    -0.274 OA
ATOM      3  N   UNL     1      -6.410   0.837  -2.564  0.00  0.00    -0.284 N 
ATOM      4  H   UNL     1      -6.568   1.790  -2.477  0.00  0.00    +0.155 HD
ENDROOT
BRANCH   3   5
ATOM      5  C   UNL     1      -7.466  -0.019  -2.898  0.00  0.00    +0.035 A 
ATOM      6  C   UNL     1      -7.516  -1.302  -2.367  0.00  0.00    +0.023 A 
ATOM      7  C   UNL     1      -8.559  -2.144  -2.698  0.00  0.00    +0.002 A 
ATOM      8  C   UNL     1      -9.553  -1.712  -3.558  0.00  0.00    +0.000 A 
ATOM      9  C   UNL     1      -9.505  -0.437  -4.089  0.00  0.00    +0.003 A 
ATOM     10  C   UNL     1      -8.468   0.413  -3.756  0.00  0.00    -0.043 A 
BRANCH  10  11
ATOM     11  C   UNL     1      -8.421   1.806  -4.330  0.00  0.00    -0.041 C 
BRANCH  11  12
ATOM     12  N   UNL     1      -7.487   1.837  -5.464  0.00  0.00    +0.382 N 
ATOM     13  C   UNL     1      -8.002   0.988  -6.546  0.00  0.00    -0.095 C 
ATOM     14  H   UNL     1      -6.586   1.493  -5.167  0.00  0.00    -0.081 HD
BRANCH  12  15
ATOM     15  C   UNL     1      -7.349   3.217  -5.947  0.00  0.00    -0.069 C 
ATOM     16  C   UNL     1      -6.377   3.250  -7.128  0.00  0.00    -0.015 C 
ATOM     17  C   UNL     1      -6.234   4.688  -7.631  0.00  0.00    -0.002 C 
ATOM     18  C   UNL     1      -5.697   5.572  -6.504  0.00  0.00    -0.000 C 
ATOM     19  C   UNL     1      -6.669   5.539  -5.323  0.00  0.00    -0.002 C 
ATOM     20  C   UNL     1      -6.812   4.101  -4.820  0.00  0.00    -0.015 C 
ENDBRANCH  12  15
ENDBRANCH  11  12
ENDBRANCH  10  11
ENDBRANCH   3   5
BRANCH   1  21
ATOM     21  C   UNL     1      -4.018   1.268  -2.106  0.00  0.00    +0.214 C 
BRANCH  21  25
ATOM     22  C   UNL     1      -0.844  -0.654  -2.273  0.00  0.00    +0.138 C 
ATOM     23  C   UNL     1      -1.960   0.138  -2.925  0.00  0.00    +0.251 C 
ATOM     24  O   UNL     1      -2.080   0.402  -4.102  0.00  0.00    -0.272 OA
ATOM     25  N   UNL     1      -2.793   0.485  -1.924  0.00  0.00    -0.215 N 
ATOM     26  C   UNL     1      -2.362   0.028  -0.742  0.00  0.00    +0.310 C 
ATOM     27  O   UNL     1      -2.946   0.214   0.308  0.00  0.00    -0.252 OA
ATOM     28  N   UNL     1      -1.212  -0.661  -0.846  0.00  0.00    -0.281 N 
ATOM     29  H   UNL     1      -0.720  -1.081  -0.123  0.00  0.00    +0.152 HD
BRANCH  22  30
ATOM     30  C   UNL     1      -0.799  -2.059  -2.816  0.00  0.00    -0.015 A 
ATOM     31  C   UNL     1       0.027  -2.361  -3.882  0.00  0.00    +0.006 A 
ATOM     32  C   UNL     1       0.068  -3.650  -4.380  0.00  0.00    +0.000 A 
ATOM     33  C   UNL     1      -0.715  -4.636  -3.811  0.00  0.00    +0.000 A 
ATOM     34  C   UNL     1      -1.540  -4.334  -2.744  0.00  0.00    +0.000 A 
ATOM     35  C   UNL     1      -1.578  -3.046  -2.243  0.00  0.00    +0.006 A 
ENDBRANCH  22  30
BRANCH  22  37
ATOM     36  C   UNL     1       0.452   1.442  -1.856  0.00  0.00    +0.007 C 
ATOM     37  C   UNL     1       0.502   0.045  -2.478  0.00  0.00    +0.037 C 
ENDBRANCH  22  37
ENDBRANCH  21  25
ENDBRANCH   1  21
TORSDOF 8
