REMARK  Name = ZINC12711029
REMARK  10 active torsions:
REMARK  status: ('A' for Active; 'I' for Inactive)
REMARK    1  A    between atoms: C_1  and  O_2
REMARK    2  A    between atoms: O_2  and  C_3
REMARK    3  A    between atoms: C_6  and  C_11
REMARK    4  A    between atoms: C_8  and  O_9
REMARK    5  A    between atoms: O_9  and  C_10
REMARK    6  A    between atoms: C_11  and  C_12
REMARK    7  A    between atoms: C_12  and  N_13
REMARK    8  A    between atoms: N_13  and  C_14
REMARK    9  A    between atoms: C_14  and  C_15
REMARK   10  A    between atoms: N_32  and  C_33
REMARK                            x       y       z     vdW  Elec       q    Type
REMARK                         _______ _______ _______ _____ _____    ______ ____
ROOT
ATOM      1  N   UNL     1      -5.777   0.840   1.228  0.00  0.00    -0.281 N 
ATOM      2  C   UNL     1      -6.621   1.794   1.668  0.00  0.00    +0.307 C 
ATOM      3  O   UNL     1      -7.276   1.609   2.676  0.00  0.00    -0.252 OA
ATOM      4  N   UNL     1      -6.741   2.952   0.990  0.00  0.00    -0.267 N 
ATOM      5  H   UNL     1      -6.183   3.120   0.215  0.00  0.00    +0.156 HD
ENDROOT
BRANCH   4   6
ATOM      6  C   UNL     1      -7.671   3.914   1.405  0.00  0.00    +0.070 A 
ATOM      7  C   UNL     1      -8.095   3.947   2.726  0.00  0.00    +0.026 A 
ATOM      8  C   UNL     1      -9.009   4.899   3.134  0.00  0.00    +0.002 A 
ATOM      9  C   UNL     1      -9.510   5.814   2.226  0.00  0.00    +0.003 A 
ATOM     10  C   UNL     1      -9.095   5.782   0.907  0.00  0.00    +0.040 A 
ATOM     11  C   UNL     1      -8.176   4.834   0.493  0.00  0.00    +0.145 A 
ATOM     12  F   UNL     1      -7.771   4.802  -0.795  0.00  0.00    -0.204 F 
ENDBRANCH   4   6
BRANCH   1  13
ATOM     13  C   UNL     1      -5.762  -0.477   1.870  0.00  0.00    +0.114 C 
BRANCH  13  14
ATOM     14  C   UNL     1      -4.752  -0.473   3.019  0.00  0.00    +0.054 C 
BRANCH  14  18
ATOM     15  C   UNL     1      -4.712  -4.316   4.895  0.00  0.00    +0.161 A 
ATOM     16  C   UNL     1      -5.578  -3.332   5.343  0.00  0.00    +0.049 A 
ATOM     17  C   UNL     1      -5.585  -2.089   4.738  0.00  0.00    +0.007 A 
ATOM     18  C   UNL     1      -4.736  -1.828   3.679  0.00  0.00    -0.042 A 
ATOM     19  C   UNL     1      -3.869  -2.805   3.227  0.00  0.00    +0.053 A 
ATOM     20  C   UNL     1      -3.853  -4.052   3.832  0.00  0.00    +0.162 A 
BRANCH  15  22
ATOM     21  C   UNL     1      -5.608  -5.738   6.577  0.00  0.00    +0.277 C 
ATOM     22  O   UNL     1      -4.700  -5.538   5.492  0.00  0.00    -0.491 OA
ENDBRANCH  15  22
BRANCH  20  23
ATOM     23  O   UNL     1      -3.002  -5.014   3.388  0.00  0.00    -0.491 OA
ATOM     24  C   UNL     1      -2.150  -4.672   2.293  0.00  0.00    +0.277 C 
ENDBRANCH  20  23
ENDBRANCH  14  18
ENDBRANCH  13  14
ENDBRANCH   1  13
BRANCH   1  25
ATOM     25  C   UNL     1      -4.874   1.120   0.109  0.00  0.00    +0.150 C 
BRANCH  25  26
ATOM     26  C   UNL     1      -5.500   0.638  -1.174  0.00  0.00    +0.035 A 
ATOM     27  C   UNL     1      -6.184   1.508  -1.961  0.00  0.00    +0.020 A 
ATOM     28  C   UNL     1      -6.777   1.011  -3.202  0.00  0.00    +0.003 A 
ATOM     29  C   UNL     1      -7.498   1.862  -4.049  0.00  0.00    +0.059 A 
ATOM     30  C   UNL     1      -8.049   1.364  -5.209  0.00  0.00    +0.167 A 
ATOM     31  C   UNL     1      -7.893   0.012  -5.541  0.00  0.00    +0.168 A 
ATOM     32  C   UNL     1      -7.187  -0.836  -4.708  0.00  0.00    +0.075 A 
ATOM     33  C   UNL     1      -6.626  -0.349  -3.534  0.00  0.00    +0.053 A 
ATOM     34  N   UNL     1      -5.918  -1.181  -2.690  0.00  0.00    -0.322 N 
ATOM     35  H   UNL     1      -5.811  -2.118  -2.921  0.00  0.00    +0.169 HD
ATOM     36  C   UNL     1      -5.374  -0.713  -1.553  0.00  0.00    +0.254 A 
ATOM     37  O   UNL     1      -4.756  -1.477  -0.832  0.00  0.00    -0.268 OA
ATOM     38  O   UNL     1      -8.527  -0.218  -6.727  0.00  0.00    -0.453 OA
ATOM     39  C   UNL     1      -9.417   0.898  -6.912  0.00  0.00    +0.466 C 
ATOM     40  O   UNL     1      -8.781   1.970  -6.191  0.00  0.00    -0.453 OA
ENDBRANCH  25  26
ENDBRANCH   1  25
TORSDOF 8
