REMARK  Name = ZINC03505324
REMARK  6 active torsions:
REMARK  status: ('A' for Active; 'I' for Inactive)
REMARK    1  A    between atoms: C_1  and  C_2
REMARK    2  A    between atoms: C_4  and  C_24
REMARK    3  A    between atoms: C_5  and  C_9
REMARK    4  A    between atoms: C_7  and  C_8
REMARK    5  A    between atoms: C_9  and  C_11
REMARK    6  A    between atoms: C_11  and  N_12
REMARK                            x       y       z     vdW  Elec       q    Type
REMARK                         _______ _______ _______ _____ _____    ______ ____
ROOT
ATOM      1  N   UNL     1       0.961  -6.288   1.299  0.00  0.00    -0.217 N 
ATOM      2  C   UNL     1      -0.007  -7.226   1.242  0.00  0.00    +0.247 C 
ATOM      3  O   UNL     1      -1.203  -7.052   1.335  0.00  0.00    -0.273 OA
ATOM      4  C   UNL     1       0.714  -8.538   1.038  0.00  0.00    +0.113 C 
ATOM      5  C   UNL     1       0.293  -9.176  -0.282  0.00  0.00    +0.035 C 
ATOM      6  C   UNL     1       1.057 -10.488  -0.484  0.00  0.00    +0.003 C 
ATOM      7  C   UNL     1       0.756 -11.436   0.679  0.00  0.00    +0.000 C 
ATOM      8  C   UNL     1       1.205 -10.792   1.993  0.00  0.00    +0.003 C 
ATOM      9  C   UNL     1       0.442  -9.482   2.204  0.00  0.00    +0.035 C 
ATOM     10  N   UNL     1       2.133  -8.164   0.999  0.00  0.00    -0.285 N 
ATOM     11  C   UNL     1       2.178  -6.827   1.155  0.00  0.00    +0.310 C 
ATOM     12  O   UNL     1       3.208  -6.182   1.167  0.00  0.00    -0.252 OA
ATOM     13  H   UNL     1       2.889  -8.760   0.880  0.00  0.00    +0.151 HD
ENDROOT
BRANCH   1  14
ATOM     14  C   UNL     1       0.711  -4.857   1.490  0.00  0.00    +0.197 C 
BRANCH  14  15
ATOM     15  C   UNL     1       0.535  -4.195   0.147  0.00  0.00    +0.181 C 
ATOM     16  O   UNL     1       0.611  -4.854  -0.868  0.00  0.00    -0.290 OA
BRANCH  15  21
ATOM     17  C   UNL     1      -0.497   1.452  -0.159  0.00  0.00    +0.044 C 
ATOM     18  C   UNL     1      -0.227  -0.028  -0.079  0.00  0.00    -0.047 A 
ATOM     19  C   UNL     1      -0.264  -0.798  -1.228  0.00  0.00    +0.007 A 
ATOM     20  C   UNL     1      -0.018  -2.153  -1.163  0.00  0.00    -0.040 A 
ATOM     21  C   UNL     1       0.271  -2.749   0.069  0.00  0.00    +0.022 A 
ATOM     22  C   UNL     1       0.307  -1.965   1.226  0.00  0.00    +0.015 A 
ATOM     23  C   UNL     1       0.064  -0.610   1.143  0.00  0.00    -0.047 A 
ATOM     24  C   UNL     1       0.109   0.239   2.387  0.00  0.00    +0.044 C 
ATOM     25  C   UNL     1      -0.060  -2.990  -2.416  0.00  0.00    +0.044 C 
ENDBRANCH  15  21
ENDBRANCH  14  15
ENDBRANCH   1  14
TORSDOF 3
