REMARK  Name = ZINC56086939
REMARK  9 active torsions:
REMARK  status: ('A' for Active; 'I' for Inactive)
REMARK    1  A    between atoms: C_1  and  C_2
REMARK    2  A    between atoms: C_2  and  O_3
REMARK    3  A    between atoms: O_3  and  C_4
REMARK    4  A    between atoms: C_9  and  C_14
REMARK    5  A    between atoms: N_16  and  N_17
REMARK    6  A    between atoms: N_17  and  C_18
REMARK    7  A    between atoms: C_18  and  N_20
REMARK    8  A    between atoms: N_20  and  C_21
REMARK    9  A    between atoms: C_24  and  C_27
REMARK                            x       y       z     vdW  Elec       q    Type
REMARK                         _______ _______ _______ _____ _____    ______ ____
ROOT
ATOM      1  C   UNL     1       2.471  -7.093   3.926  0.00  0.00    +0.276 C 
ATOM      2  O   UNL     1       2.569  -8.166   3.362  0.00  0.00    -0.267 OA
ATOM      3  N   UNL     1       3.123  -6.880   5.087  0.00  0.00    -0.230 N 
ATOM      4  H   UNL     1       3.045  -6.024   5.537  0.00  0.00    +0.173 HD
ENDROOT
BRANCH   1  10
ATOM      5  C   UNL     1      -0.739  -2.316   2.117  0.00  0.00    +0.122 A 
ATOM      6  C   UNL     1      -1.069  -3.145   1.046  0.00  0.00    +0.046 A 
ATOM      7  C   UNL     1      -0.573  -4.412   0.971  0.00  0.00    +0.013 A 
ATOM      8  C   UNL     1       0.278  -4.890   1.978  0.00  0.00    +0.001 A 
ATOM      9  C   UNL     1       0.939  -6.124   2.183  0.00  0.00    +0.041 A 
ATOM     10  C   UNL     1       1.642  -6.029   3.343  0.00  0.00    +0.104 A 
ATOM     11  N   UNL     1       1.451  -4.772   3.887  0.00  0.00    -0.350 N 
ATOM     12  H   UNL     1       1.842  -4.449   4.713  0.00  0.00    +0.166 HD
ATOM     13  C   UNL     1       0.615  -4.056   3.062  0.00  0.00    +0.050 A 
ATOM     14  C   UNL     1       0.103  -2.764   3.118  0.00  0.00    +0.071 A 
BRANCH   5  15
ATOM     15  O   UNL     1      -1.243  -1.056   2.175  0.00  0.00    -0.492 OA
BRANCH  15  17
ATOM     16  C   UNL     1      -2.571   0.785   1.346  0.00  0.00    +0.048 C 
ATOM     17  C   UNL     1      -2.106  -0.653   1.109  0.00  0.00    +0.225 C 
ENDBRANCH  15  17
ENDBRANCH   5  15
ENDBRANCH   1  10
BRANCH   3  18
ATOM     18  N   UNL     1       3.913  -7.894   5.643  0.00  0.00    -0.245 N 
ATOM     19  H   UNL     1       3.992  -8.749   5.193  0.00  0.00    +0.172 HD
BRANCH  18  20
ATOM     20  C   UNL     1       4.565  -7.680   6.803  0.00  0.00    +0.151 C 
ATOM     21  S   UNL     1       5.531  -8.919   7.482  0.00  0.00    -0.017 S 
BRANCH  20  22
ATOM     22  N   UNL     1       4.456  -6.491   7.428  0.00  0.00    -0.296 N 
ATOM     23  H   UNL     1       3.960  -5.769   7.013  0.00  0.00    +0.154 HD
BRANCH  22  24
ATOM     24  C   UNL     1       5.059  -6.299   8.676  0.00  0.00    +0.033 A 
ATOM     25  C   UNL     1       6.364  -6.722   8.891  0.00  0.00    +0.023 A 
ATOM     26  C   UNL     1       6.957  -6.531  10.124  0.00  0.00    +0.005 A 
ATOM     27  C   UNL     1       6.251  -5.919  11.144  0.00  0.00    -0.050 A 
ATOM     28  C   UNL     1       4.951  -5.497  10.933  0.00  0.00    +0.005 A 
ATOM     29  C   UNL     1       4.355  -5.681   9.701  0.00  0.00    +0.023 A 
ATOM     30  C   UNL     1       6.900  -5.713  12.488  0.00  0.00    +0.044 C 
ENDBRANCH  22  24
ENDBRANCH  20  22
ENDBRANCH  18  20
ENDBRANCH   3  18
TORSDOF 7
