REMARK  Name = ZINC66382399
REMARK  9 active torsions:
REMARK  status: ('A' for Active; 'I' for Inactive)
REMARK    1  A    between atoms: C_1  and  C_2
REMARK    2  A    between atoms: C_2  and  C_3
REMARK    3  A    between atoms: C_3  and  C_5
REMARK    4  A    between atoms: C_3  and  N_8
REMARK    5  A    between atoms: C_5  and  C_6
REMARK    6  A    between atoms: C_5  and  C_7
REMARK    7  A    between atoms: C_14  and  C_17
REMARK    8  A    between atoms: N_19  and  C_20
REMARK    9  A    between atoms: C_25  and  O_26
REMARK                            x       y       z     vdW  Elec       q    Type
REMARK                         _______ _______ _______ _____ _____    ______ ____
ROOT
ATOM      1  N   UNL     1      -4.188  -0.333  -0.141  0.00  0.00    -0.296 N 
ATOM      2  C   UNL     1      -3.461  -0.079  -1.246  0.00  0.00    +0.302 C 
ATOM      3  O   UNL     1      -2.246  -0.088  -1.191  0.00  0.00    -0.253 OA
ATOM      4  N   UNL     1      -4.080   0.186  -2.414  0.00  0.00    -0.286 N 
ATOM      5  C   UNL     1      -3.305   0.351  -3.651  0.00  0.00    +0.110 C 
ATOM      6  C   UNL     1      -3.865  -0.599  -4.715  0.00  0.00    +0.032 C 
ATOM      7  C   UNL     1      -5.367  -0.350  -4.875  0.00  0.00    +0.078 C 
ATOM      8  C   UNL     1      -6.077  -0.634  -3.550  0.00  0.00    +0.032 C 
ATOM      9  C   UNL     1      -5.543   0.309  -2.475  0.00  0.00    +0.110 C 
ATOM     10  H   UNL     1      -5.155  -0.255  -0.167  0.00  0.00    +0.151 HD
ENDROOT
BRANCH   7  11
ATOM     11  C   UNL     1      -5.915  -1.259  -5.945  0.00  0.00    +0.220 C 
ATOM     12  O   UNL     1      -5.177  -2.030  -6.521  0.00  0.00    -0.275 OA
ATOM     13  N   UNL     1      -7.224  -1.215  -6.260  0.00  0.00    -0.282 N 
ATOM     14  H   UNL     1      -7.798  -0.545  -5.857  0.00  0.00    +0.155 HD
BRANCH  13  15
ATOM     15  C   UNL     1      -7.757  -2.139  -7.170  0.00  0.00    +0.077 A 
ATOM     16  C   UNL     1      -7.140  -3.367  -7.356  0.00  0.00    +0.047 A 
ATOM     17  C   UNL     1      -7.668  -4.277  -8.254  0.00  0.00    +0.043 A 
ATOM     18  C   UNL     1      -8.811  -3.964  -8.968  0.00  0.00    +0.023 A 
ATOM     19  C   UNL     1      -9.430  -2.741  -8.788  0.00  0.00    +0.049 A 
ATOM     20  C   UNL     1      -8.911  -1.827  -7.885  0.00  0.00    +0.138 A 
ATOM     21 CL   UNL     1      -6.895  -5.813  -8.485  0.00  0.00    -0.083 Cl
BRANCH  20  22
ATOM     22  O   UNL     1      -9.523  -0.627  -7.703  0.00  0.00    -0.505 OA
ATOM     23  H   UNL     1      -9.206   0.070  -8.294  0.00  0.00    +0.292 HD
ENDBRANCH  20  22
ENDBRANCH  13  15
ENDBRANCH   7  11
BRANCH   1  24
ATOM     24  C   UNL     1      -3.519  -0.729   1.101  0.00  0.00    +0.077 C 
BRANCH  24  25
ATOM     25  C   UNL     1      -3.073   0.521   1.861  0.00  0.00    +0.003 C 
ATOM     26  C   UNL     1      -4.303   1.317   2.300  0.00  0.00    +0.009 C 
ATOM     27  C   UNL     1      -2.266   0.108   3.094  0.00  0.00    +0.009 C 
ENDBRANCH  24  25
BRANCH  24  29
ATOM     28  C   UNL     1      -4.838  -2.845   1.261  0.00  0.00    +0.006 C 
ATOM     29  C   UNL     1      -4.489  -1.534   1.968  0.00  0.00    +0.019 C 
ENDBRANCH  24  29
ENDBRANCH   1  24
TORSDOF 6
