REMARK  Name = ZINC06476760
REMARK  5 active torsions:
REMARK  status: ('A' for Active; 'I' for Inactive)
REMARK    1  A    between atoms: C_1  and  C_2
REMARK    2  A    between atoms: C_4  and  C_19
REMARK    3  A    between atoms: C_6  and  N_8
REMARK    4  A    between atoms: N_9  and  C_10
REMARK    5  A    between atoms: C_15  and  O_16
REMARK                            x       y       z     vdW  Elec       q    Type
REMARK                         _______ _______ _______ _____ _____    ______ ____
ROOT
ATOM      1  N   UNL     1       0.052  -2.791   2.361  0.00  0.00    -0.149 NA
ATOM      2  N   UNL     1       0.049  -2.157   3.485  0.00  0.00    -0.146 NA
ENDROOT
BRANCH   1   8
ATOM      3  C   UNL     1      -0.018   1.503   0.010  0.00  0.00    +0.044 C 
ATOM      4  C   UNL     1       0.002  -0.004   0.002  0.00  0.00    -0.048 A 
ATOM      5  C   UNL     1       0.006  -0.688  -1.201  0.00  0.00    +0.006 A 
ATOM      6  C   UNL     1       0.025  -2.071  -1.219  0.00  0.00    -0.048 A 
ATOM      7  C   UNL     1       0.041  -2.779  -0.035  0.00  0.00    +0.033 A 
ATOM      8  C   UNL     1       0.037  -2.096   1.184  0.00  0.00    +0.087 A 
ATOM      9  C   UNL     1       0.023  -0.698   1.194  0.00  0.00    +0.033 A 
ATOM     10  C   UNL     1       0.028  -2.807  -2.534  0.00  0.00    +0.044 C 
ENDBRANCH   1   8
BRANCH   2  11
ATOM     11  C   UNL     1       0.064  -2.850   4.660  0.00  0.00    +0.130 A 
ATOM     12  C   UNL     1       0.089  -4.248   4.651  0.00  0.00    +0.048 A 
ATOM     13  C   UNL     1       0.105  -4.943   5.841  0.00  0.00    +0.022 A 
ATOM     14  C   UNL     1       0.096  -4.262   7.048  0.00  0.00    +0.039 A 
ATOM     15  C   UNL     1       0.071  -2.880   7.071  0.00  0.00    +0.086 A 
ATOM     16  C   UNL     1       0.061  -2.165   5.883  0.00  0.00    +0.162 A 
ATOM     17 CL   UNL     1       0.060  -2.038   8.590  0.00  0.00    -0.080 Cl
ATOM     18 BR   UNL     1       0.139  -6.834   5.827  0.00  0.00    -0.050 Br
BRANCH  16  19
ATOM     19  O   UNL     1       0.041  -0.807   5.904  0.00  0.00    -0.503 OA
ATOM     20  H   UNL     1      -0.848  -0.427   5.915  0.00  0.00    +0.292 HD
ENDBRANCH  16  19
ENDBRANCH   2  11
TORSDOF 3
