REMARK  Name = ZINC09378516
REMARK  8 active torsions:
REMARK  status: ('A' for Active; 'I' for Inactive)
REMARK    1  A    between atoms: C_3  and  C_6
REMARK    2  A    between atoms: C_6  and  C_8
REMARK    3  A    between atoms: C_6  and  N_62
REMARK    4  A    between atoms: C_8  and  N_9
REMARK    5  A    between atoms: C_10  and  C_12
REMARK    6  A    between atoms: C_15  and  N_18
REMARK    7  A    between atoms: N_18  and  S_19
REMARK    8  A    between atoms: S_19  and  C_22
REMARK                            x       y       z     vdW  Elec       q    Type
REMARK                         _______ _______ _______ _____ _____    ______ ____
ROOT
ATOM      1  C   UNL     1       4.986   2.013  -4.156  0.00  0.00    +0.037 A 
ATOM      2  C   UNL     1       5.686   0.807  -4.253  0.00  0.00    +0.015 A 
ATOM      3  C   UNL     1       5.527  -0.158  -3.285  0.00  0.00    +0.025 A 
ATOM      4  C   UNL     1       4.672   0.066  -2.210  0.00  0.00    +0.048 A 
ATOM      5  C   UNL     1       3.969   1.263  -2.114  0.00  0.00    +0.025 A 
ATOM      6  C   UNL     1       4.127   2.235  -3.075  0.00  0.00    +0.015 A 
ENDROOT
BRANCH   1   8
ATOM      7  N   UNL     1       4.477   4.213  -5.097  0.00  0.00    -0.312 N 
ATOM      8  C   UNL     1       5.153   3.050  -5.192  0.00  0.00    +0.244 C 
ATOM      9  O   UNL     1       5.901   2.857  -6.131  0.00  0.00    -0.270 OA
ATOM     10  H   UNL     1       3.881   4.367  -4.348  0.00  0.00    +0.149 HD
BRANCH   7  11
ATOM     11  C   UNL     1       4.644   5.243  -6.125  0.00  0.00    +0.097 C 
BRANCH  11  12
ATOM     12  C   UNL     1       3.686   6.403  -5.845  0.00  0.00    +0.016 C 
BRANCH  12  17
ATOM     13  C   UNL     1       3.417   6.760  -8.238  0.00  0.00    -0.078 C 
ATOM     14  C   UNL     1       3.048   7.977  -9.124  0.00  0.00    -0.020 C 
ATOM     15  C   UNL     1       2.319   8.915  -8.135  0.00  0.00    -0.020 C 
ATOM     16  C   UNL     1       2.802   8.482  -6.738  0.00  0.00    -0.078 C 
ATOM     17  N   UNL     1       3.760   7.398  -6.957  0.00  0.00    +0.387 N 
ATOM     18  H   UNL     1       4.712   7.780  -7.004  0.00  0.00    -0.081 HD
ENDBRANCH  12  17
BRANCH  12  21
ATOM     19  C   UNL     1       4.141   7.682  -2.419  0.00  0.00    +0.041 A 
ATOM     20  C   UNL     1       3.469   6.866  -3.357  0.00  0.00    +0.043 A 
ATOM     21  C   UNL     1       4.067   7.065  -4.545  0.00  0.00    +0.093 A 
ATOM     22  O   UNL     1       5.063   7.949  -4.377  0.00  0.00    -0.469 OA
ATOM     23  C   UNL     1       5.109   8.332  -3.090  0.00  0.00    +0.195 A 
ENDBRANCH  12  21
ENDBRANCH  11  12
ENDBRANCH   7  11
ENDBRANCH   1   8
BRANCH   4  24
ATOM     24  N   UNL     1       4.514  -0.912  -1.234  0.00  0.00    -0.216 N 
ATOM     25  H   UNL     1       3.698  -1.435  -1.198  0.00  0.00    +0.174 HD
BRANCH  24  26
ATOM     26  S   UNL     1       5.720  -1.182  -0.131  0.00  0.00    +0.072 S 
ATOM     27  O   UNL     1       6.921  -1.341  -0.873  0.00  0.00    -0.150 OA
ATOM     28  O   UNL     1       5.238  -2.178   0.761  0.00  0.00    -0.150 OA
BRANCH  26  29
ATOM     29  C   UNL     1       5.902   0.294   0.814  0.00  0.00    +0.112 A 
ATOM     30  C   UNL     1       5.087   0.518   1.908  0.00  0.00    +0.032 A 
ATOM     31  C   UNL     1       5.226   1.675   2.650  0.00  0.00    +0.051 A 
ATOM     32  C   UNL     1       6.184   2.615   2.300  0.00  0.00    +0.162 A 
ATOM     33  C   UNL     1       7.005   2.388   1.202  0.00  0.00    +0.164 A 
ATOM     34  C   UNL     1       6.860   1.225   0.460  0.00  0.00    +0.078 A 
ATOM     35  O   UNL     1       7.957   3.293   0.845  0.00  0.00    -0.485 OA
ATOM     36  C   UNL     1       7.824   4.613   1.383  0.00  0.00    +0.270 C 
ATOM     37  C   UNL     1       7.521   4.493   2.883  0.00  0.00    +0.270 C 
ATOM     38  O   UNL     1       6.304   3.754   3.036  0.00  0.00    -0.485 OA
ENDBRANCH  26  29
ENDBRANCH  24  26
ENDBRANCH   4  24
TORSDOF 8
