REMARK  Name = ZINC39324397
REMARK  6 active torsions:
REMARK  status: ('A' for Active; 'I' for Inactive)
REMARK    1  A    between atoms: C_1  and  C_2
REMARK    2  A    between atoms: C_2  and  C_3
REMARK    3  A    between atoms: C_7  and  C_8
REMARK    4  A    between atoms: C_16  and  C_24
REMARK    5  A    between atoms: C_18  and  C_22
REMARK    6  A    between atoms: C_19  and  N_21
REMARK                            x       y       z     vdW  Elec       q    Type
REMARK                         _______ _______ _______ _____ _____    ______ ____
ROOT
ATOM      1  C   UNL     1      -0.056  -1.054  -1.523  0.00  0.00    -0.003 C 
ATOM      2  C   UNL     1      -0.573  -0.416  -2.820  0.00  0.00    +0.042 C 
ATOM      3  C   UNL     1       0.440  -0.729  -3.899  0.00  0.00    -0.004 C 
ATOM      4  C   UNL     1       0.799   0.205  -4.804  0.00  0.00    +0.022 C 
ATOM      5  C   UNL     1       1.023  -2.083  -3.937  0.00  0.00    +0.133 C 
ATOM      6  C   UNL     1       0.834  -2.932  -2.926  0.00  0.00    -0.014 C 
ATOM      7  C   UNL     1       0.020  -2.565  -1.711  0.00  0.00    +0.039 C 
ATOM      8  C   UNL     1       1.446  -4.314  -2.968  0.00  0.00    +0.101 C 
ATOM      9  C   UNL     1       1.815  -4.682  -4.377  0.00  0.00    +0.098 C 
ATOM     10  C   UNL     1       1.949  -3.723  -5.327  0.00  0.00    +0.199 C 
ATOM     11  O   UNL     1       1.754  -2.428  -5.028  0.00  0.00    -0.441 OA
ENDROOT
BRANCH   4  12
ATOM     12  C   UNL     1       0.063   1.468  -4.884  0.00  0.00    +0.013 A 
ATOM     13  C   UNL     1       0.349   2.600  -5.630  0.00  0.00    +0.015 A 
ATOM     14  C   UNL     1      -0.503   3.675  -5.538  0.00  0.00    +0.008 A 
ATOM     15  C   UNL     1      -1.590   3.595  -4.726  0.00  0.00    +0.046 A 
ATOM     16  S   UNL     1      -1.442   1.949  -4.052  0.00  0.00    -0.097 S 
ENDBRANCH   4  12
BRANCH   8  17
ATOM     17  C   UNL     1       2.684  -4.338  -2.110  0.00  0.00    +0.002 A 
ATOM     18  C   UNL     1       2.959  -5.107  -1.029  0.00  0.00    +0.012 A 
ATOM     19  C   UNL     1       4.176  -4.956  -0.390  0.00  0.00    +0.008 A 
ATOM     20  C   UNL     1       5.058  -4.044  -0.865  0.00  0.00    +0.045 A 
ATOM     21  S   UNL     1       4.174  -3.366  -2.260  0.00  0.00    -0.101 S 
ENDBRANCH   8  17
BRANCH  10  22
ATOM     22  N   UNL     1       2.287  -4.080  -6.609  0.00  0.00    -0.328 N 
ATOM     23  H   UNL     1       2.429  -5.014  -6.831  0.00  0.00    +0.145 HD
ATOM     24  H   UNL     1       2.384  -3.399  -7.293  0.00  0.00    +0.145 HD
ENDBRANCH  10  22
BRANCH   1  26
ATOM     25  C   UNL     1      -0.997   0.780  -0.110  0.00  0.00    +0.004 C 
ATOM     26  C   UNL     1      -1.012  -0.727  -0.374  0.00  0.00    +0.001 C 
ENDBRANCH   1  26
BRANCH   9  27
ATOM     27  C   UNL     1       2.028  -6.056  -4.719  0.00  0.00    +0.101 C 
ATOM     28  N   UNL     1       2.197  -7.146  -4.991  0.00  0.00    -0.191 NA
ENDBRANCH   9  27
TORSDOF 5
