REMARK  Name = ZINC41607262
REMARK  5 active torsions:
REMARK  status: ('A' for Active; 'I' for Inactive)
REMARK    1  A    between atoms: C_1  and  C_2
REMARK    2  A    between atoms: C_5  and  C_15
REMARK    3  A    between atoms: N_8  and  C_9
REMARK    4  A    between atoms: C_9  and  C_11
REMARK    5  A    between atoms: C_9  and  C_12
REMARK                            x       y       z     vdW  Elec       q    Type
REMARK                         _______ _______ _______ _____ _____    ______ ____
ROOT
ATOM      1  C   UNL     1      -0.447   1.464   0.072  0.00  0.00    +0.063 C 
ATOM      2  C   UNL     1      -0.203  -0.023   0.031  0.00  0.00    +0.020 A 
ATOM      3  C   UNL     1      -0.310  -0.684  -1.151  0.00  0.00    +0.022 A 
ATOM      4  C   UNL     1      -0.087  -2.058  -1.207  0.00  0.00    +0.022 A 
ATOM      5  C   UNL     1       0.246  -2.737  -0.034  0.00  0.00    +0.127 A 
ATOM      6  C   UNL     1       0.346  -2.001   1.177  0.00  0.00    +0.266 A 
ATOM      7  O   UNL     1       0.636  -2.569   2.216  0.00  0.00    -0.267 OA
ATOM      8  N   UNL     1       0.125  -0.673   1.173  0.00  0.00    -0.298 N 
ENDROOT
BRANCH   5   9
ATOM      9  C   UNL     1       0.488  -4.183  -0.051  0.00  0.00    +0.392 C 
ATOM     10  O   UNL     1       0.399  -4.806  -1.100  0.00  0.00    -0.240 OA
ATOM     11  O   UNL     1       0.780  -4.767   0.985  0.00  0.00    -0.240 OA
ENDBRANCH   5   9
BRANCH   8  12
ATOM     12  C   UNL     1       0.235   0.081   2.424  0.00  0.00    +0.200 C 
ATOM     13  C   UNL     1       1.613  -0.161   3.045  0.00  0.00    +0.043 C 
BRANCH  12  14
ATOM     14  C   UNL     1      -0.835  -0.377   3.382  0.00  0.00    +0.378 C 
ATOM     15  O   UNL     1      -1.498  -1.368   3.127  0.00  0.00    -0.244 OA
ATOM     16  O   UNL     1      -1.037   0.244   4.411  0.00  0.00    -0.244 OA
ENDBRANCH  12  14
ENDBRANCH   8  12
TORSDOF 3
