REMARK  Name = ZINC02213752
REMARK  14 active torsions:
REMARK  status: ('A' for Active; 'I' for Inactive)
REMARK    1  A    between atoms: C_1  and  C_2
REMARK    2  A    between atoms: C_2  and  O_3
REMARK    3  A    between atoms: O_3  and  C_4
REMARK    4  A    between atoms: C_4  and  C_6
REMARK    5  A    between atoms: C_7  and  N_37
REMARK    6  A    between atoms: C_9  and  C_36
REMARK    7  A    between atoms: C_10  and  C_32
REMARK    8  A    between atoms: N_18  and  C_21
REMARK    9  A    between atoms: C_21  and  C_22
REMARK   10  A    between atoms: C_22  and  O_24
REMARK   11  A    between atoms: O_24  and  C_25
REMARK   12  A    between atoms: C_25  and  C_26
REMARK   13  A    between atoms: C_32  and  O_34
REMARK   14  A    between atoms: O_34  and  C_35
REMARK                            x       y       z     vdW  Elec       q    Type
REMARK                         _______ _______ _______ _____ _____    ______ ____
ROOT
ATOM      1  C   UNL     1       2.633   2.048   0.468  0.00  0.00    +0.117 C 
ATOM      2  C   UNL     1       1.683   2.932   0.060  0.00  0.00    +0.195 C 
ATOM      3  O   UNL     1       0.425   2.542  -0.204  0.00  0.00    -0.446 OA
ATOM      4  C   UNL     1       0.165   1.248  -0.438  0.00  0.00    +0.116 C 
ATOM      5  C   UNL     1       1.006   0.272  -0.067  0.00  0.00    +0.098 C 
ATOM      6  C   UNL     1       2.295   0.594   0.633  0.00  0.00    +0.145 C 
ATOM      7  C   UNL     1       2.204   0.236   2.095  0.00  0.00    -0.002 A 
ATOM      8  C   UNL     1       1.394   0.670   3.120  0.00  0.00    +0.007 A 
ATOM      9  C   UNL     1       1.548   0.146   4.392  0.00  0.00    +0.000 A 
ATOM     10  C   UNL     1       2.516  -0.813   4.628  0.00  0.00    +0.002 A 
ATOM     11  C   UNL     1       3.329  -1.250   3.603  0.00  0.00    +0.024 A 
ATOM     12  C   UNL     1       3.181  -0.727   2.320  0.00  0.00    +0.042 A 
ATOM     13  N   UNL     1       3.869  -1.001   1.137  0.00  0.00    -0.259 N 
ATOM     14  C   UNL     1       3.414  -0.271   0.103  0.00  0.00    +0.240 C 
ATOM     15  O   UNL     1       3.824  -0.301  -1.038  0.00  0.00    -0.274 OA
ATOM     16  C   UNL     1      -1.115   0.877  -1.141  0.00  0.00    +0.087 C 
ENDROOT
BRANCH   2  17
ATOM     17  N   UNL     1       2.018   4.252  -0.085  0.00  0.00    -0.329 N 
ATOM     18  H   UNL     1       1.334   4.904  -0.301  0.00  0.00    +0.145 HD
ATOM     19  H   UNL     1       2.940   4.533   0.028  0.00  0.00    +0.145 HD
ENDBRANCH   2  17
BRANCH   1  20
ATOM     20  C   UNL     1       3.935   2.497   0.737  0.00  0.00    +0.342 C 
ATOM     21  O   UNL     1       4.292   2.675   1.888  0.00  0.00    -0.245 OA
BRANCH  20  22
ATOM     22  O   UNL     1       4.793   2.730  -0.280  0.00  0.00    -0.462 OA
BRANCH  22  24
ATOM     23  C   UNL     1       6.924   3.393  -1.207  0.00  0.00    +0.048 C 
ATOM     24  C   UNL     1       6.102   3.185   0.067  0.00  0.00    +0.229 C 
ENDBRANCH  22  24
ENDBRANCH  20  22
ENDBRANCH   1  20
BRANCH   5  25
ATOM     25  C   UNL     1       0.675  -1.078  -0.339  0.00  0.00    +0.340 C 
ATOM     26  O   UNL     1       1.463  -1.964  -0.066  0.00  0.00    -0.245 OA
BRANCH  25  27
ATOM     27  O   UNL     1      -0.514  -1.382  -0.900  0.00  0.00    -0.465 OA
ATOM     28  C   UNL     1      -0.820  -2.768  -1.062  0.00  0.00    +0.280 C 
ENDBRANCH  25  27
ENDBRANCH   5  25
BRANCH  13  29
ATOM     29  C   UNL     1       4.961  -1.971   1.033  0.00  0.00    +0.234 C 
BRANCH  29  30
ATOM     30  C   UNL     1       4.389  -3.353   0.847  0.00  0.00    +0.325 C 
ATOM     31  O   UNL     1       3.193  -3.509   0.786  0.00  0.00    -0.249 OA
BRANCH  30  32
ATOM     32  O   UNL     1       5.209  -4.411   0.748  0.00  0.00    -0.459 OA
BRANCH  32  33
ATOM     33  C   UNL     1       4.589  -5.712   0.570  0.00  0.00    +0.267 C 
BRANCH  33  34
ATOM     34  C   UNL     1       5.658  -6.770   0.480  0.00  0.00    -0.010 A 
ATOM     35  C   UNL     1       6.185  -7.117  -0.750  0.00  0.00    +0.007 A 
ATOM     36  C   UNL     1       7.169  -8.085  -0.832  0.00  0.00    +0.000 A 
ATOM     37  C   UNL     1       7.618  -8.713   0.315  0.00  0.00    +0.000 A 
ATOM     38  C   UNL     1       7.087  -8.370   1.544  0.00  0.00    +0.000 A 
ATOM     39  C   UNL     1       6.106  -7.399   1.626  0.00  0.00    +0.007 A 
ENDBRANCH  33  34
ENDBRANCH  32  33
ENDBRANCH  30  32
ENDBRANCH  29  30
ENDBRANCH  13  29
TORSDOF 11
