REMARK  Name = ZINC29033512
REMARK  13 active torsions:
REMARK  status: ('A' for Active; 'I' for Inactive)
REMARK    1  A    between atoms: C_1  and  C_2
REMARK    2  A    between atoms: C_2  and  N_3
REMARK    3  A    between atoms: C_7  and  S_28
REMARK    4  A    between atoms: C_11  and  C_12
REMARK    5  A    between atoms: C_12  and  O_13
REMARK    6  A    between atoms: O_13  and  C_14
REMARK    7  A    between atoms: C_14  and  C_16
REMARK    8  A    between atoms: C_17  and  N_27
REMARK    9  A    between atoms: C_19  and  C_26
REMARK   10  A    between atoms: C_21  and  C_25
REMARK   11  A    between atoms: S_28  and  N_31
REMARK   12  A    between atoms: N_31  and  C_32
REMARK   13  A    between atoms: N_31  and  C_33
REMARK                            x       y       z     vdW  Elec       q    Type
REMARK                         _______ _______ _______ _____ _____    ______ ____
ROOT
ATOM      1  C   UNL     1       2.632   8.507   0.217  0.00  0.00    +0.306 C 
ENDROOT
BRANCH   1  10
ATOM      2  N   UNL     1       5.042   8.951   0.897  0.00  0.00    -0.325 N 
ATOM      3  C   UNL     1       6.253   9.094   0.249  0.00  0.00    +0.069 A 
ATOM      4  C   UNL     1       7.553   9.334   0.671  0.00  0.00    +0.030 A 
ATOM      5  C   UNL     1       8.566   9.431  -0.259  0.00  0.00    +0.030 A 
ATOM      6  C   UNL     1       8.294   9.291  -1.612  0.00  0.00    +0.108 A 
ATOM      7  C   UNL     1       7.021   9.054  -2.046  0.00  0.00    +0.058 A 
ATOM      8  C   UNL     1       5.978   8.952  -1.122  0.00  0.00    +0.091 A 
ATOM      9  N   UNL     1       4.644   8.728  -1.236  0.00  0.00    -0.229 NA
ATOM     10  C   UNL     1       4.098   8.724  -0.055  0.00  0.00    +0.149 A 
BRANCH   6  11
ATOM     11  S   UNL     1       9.605   9.419  -2.783  0.00  0.00    +0.060 S 
ATOM     12  O   UNL     1       9.011   9.795  -4.018  0.00  0.00    -0.153 OA
ATOM     13  O   UNL     1      10.628  10.188  -2.165  0.00  0.00    -0.153 OA
BRANCH  11  14
ATOM     14  N   UNL     1      10.221   7.897  -2.998  0.00  0.00    -0.183 NA
ATOM     15  C   UNL     1       9.669   7.024  -4.037  0.00  0.00    +0.131 C 
ATOM     16  C   UNL     1      11.317   7.424  -2.149  0.00  0.00    +0.131 C 
ENDBRANCH  11  14
ENDBRANCH   6  11
BRANCH   2  18
ATOM     17  C   UNL     1       4.970   7.631   2.955  0.00  0.00    +0.027 C 
ATOM     18  C   UNL     1       4.817   9.025   2.343  0.00  0.00    +0.120 C 
ENDBRANCH   2  18
ENDBRANCH   1  10
BRANCH   1  19
ATOM     19  O   UNL     1       2.382   7.112   0.399  0.00  0.00    -0.453 OA
BRANCH  19  20
ATOM     20  C   UNL     1       1.109   6.745   0.654  0.00  0.00    +0.348 C 
ATOM     21  O   UNL     1       0.234   7.588   0.720  0.00  0.00    -0.244 OA
BRANCH  20  22
ATOM     22  C   UNL     1       0.790   5.379   0.844  0.00  0.00    +0.119 A 
ATOM     23  C   UNL     1      -0.440   4.818   1.111  0.00  0.00    +0.055 A 
ATOM     24  C   UNL     1      -0.520   3.374   1.268  0.00  0.00    +0.030 A 
ATOM     25  C   UNL     1      -1.658   2.575   1.543  0.00  0.00    -0.037 A 
ATOM     26  C   UNL     1      -1.506   1.213   1.648  0.00  0.00    +0.025 A 
ATOM     27  C   UNL     1      -0.256   0.632   1.497  0.00  0.00    +0.014 A 
ATOM     28  N   UNL     1       0.801   1.378   1.241  0.00  0.00    -0.353 N 
ATOM     29  C   UNL     1       0.707   2.686   1.126  0.00  0.00    +0.088 A 
ATOM     30  S   UNL     1       1.884   3.973   0.797  0.00  0.00    -0.062 S 
ATOM     31  C   UNL     1      -0.104  -0.862   1.620  0.00  0.00    +0.063 C 
ATOM     32  C   UNL     1      -3.014   3.209   1.712  0.00  0.00    +0.044 C 
ATOM     33  H   UNL     1       1.789   0.909   1.119  0.00  0.00    +0.166 HD
BRANCH  23  34
ATOM     34  N   UNL     1      -1.573   5.609   1.226  0.00  0.00    -0.356 N 
ATOM     35  H   UNL     1      -2.548   5.146   1.440  0.00  0.00    +0.142 HD
ATOM     36  H   UNL     1      -1.497   6.700   1.105  0.00  0.00    +0.142 HD
ENDBRANCH  23  34
ENDBRANCH  20  22
ENDBRANCH  19  20
ENDBRANCH   1  19
TORSDOF 8
