REMARK  Name = ZINC06240124
REMARK  12 active torsions:
REMARK  status: ('A' for Active; 'I' for Inactive)
REMARK    1  A    between atoms: C_1  and  O_2
REMARK    2  A    between atoms: O_2  and  C_3
REMARK    3  A    between atoms: C_6  and  C_11
REMARK    4  A    between atoms: C_8  and  O_9
REMARK    5  A    between atoms: O_9  and  C_10
REMARK    6  A    between atoms: C_11  and  C_12
REMARK    7  A    between atoms: C_12  and  N_13
REMARK    8  A    between atoms: N_13  and  C_14
REMARK    9  A    between atoms: C_14  and  N_16
REMARK   10  A    between atoms: N_16  and  C_17
REMARK   11  A    between atoms: N_16  and  C_33
REMARK   12  A    between atoms: C_17  and  C_18
REMARK                            x       y       z     vdW  Elec       q    Type
REMARK                         _______ _______ _______ _____ _____    ______ ____
ROOT
ATOM      1  N   UNL     1       1.088   2.437   0.142  0.00  0.00    -0.305 N 
ENDROOT
BRANCH   1   2
ATOM      2  C   UNL     1       1.151   3.895   0.015  0.00  0.00    +0.075 C 
ATOM      3  C   UNL     1       0.619   4.543   1.294  0.00  0.00    +0.022 C 
ATOM      4  C   UNL     1       0.685   6.065   1.161  0.00  0.00    +0.002 C 
ATOM      5  C   UNL     1      -0.168   6.511  -0.029  0.00  0.00    +0.000 C 
ATOM      6  C   UNL     1       0.364   5.863  -1.308  0.00  0.00    +0.002 C 
ATOM      7  C   UNL     1       0.298   4.340  -1.175  0.00  0.00    +0.022 C 
ENDBRANCH   1   2
BRANCH   1   8
ATOM      8  C   UNL     1      -0.103   1.825   0.295  0.00  0.00    +0.133 C 
ATOM      9  S   UNL     1      -1.527   2.757   0.482  0.00  0.00    -0.019 S 
BRANCH   8  10
ATOM     10  N   UNL     1      -0.173   0.479   0.306  0.00  0.00    -0.326 N 
ATOM     11  H   UNL     1       0.639  -0.049   0.256  0.00  0.00    +0.148 HD
BRANCH  10  12
ATOM     12  C   UNL     1      -1.475  -0.186   0.395  0.00  0.00    +0.108 C 
BRANCH  12  13
ATOM     13  C   UNL     1      -1.274  -1.703   0.390  0.00  0.00    +0.054 C 
BRANCH  13  17
ATOM     14  C   UNL     1      -5.075  -3.646   0.655  0.00  0.00    +0.161 A 
ATOM     15  C   UNL     1      -4.377  -3.323   1.807  0.00  0.00    +0.049 A 
ATOM     16  C   UNL     1      -3.146  -2.700   1.718  0.00  0.00    +0.007 A 
ATOM     17  C   UNL     1      -2.614  -2.388   0.481  0.00  0.00    -0.042 A 
ATOM     18  C   UNL     1      -3.305  -2.707  -0.673  0.00  0.00    +0.053 A 
ATOM     19  C   UNL     1      -4.537  -3.337  -0.591  0.00  0.00    +0.162 A 
BRANCH  14  21
ATOM     20  C   UNL     1      -6.774  -4.550   2.052  0.00  0.00    +0.277 C 
ATOM     21  O   UNL     1      -6.283  -4.263   0.741  0.00  0.00    -0.491 OA
ENDBRANCH  14  21
BRANCH  19  22
ATOM     22  O   UNL     1      -5.218  -3.651  -1.725  0.00  0.00    -0.491 OA
ATOM     23  C   UNL     1      -4.605  -3.303  -2.968  0.00  0.00    +0.277 C 
ENDBRANCH  19  22
ENDBRANCH  13  17
ENDBRANCH  12  13
ENDBRANCH  10  12
ENDBRANCH   8  10
ENDBRANCH   1   8
BRANCH   1  24
ATOM     24  C   UNL     1       2.319   1.644   0.104  0.00  0.00    +0.147 C 
BRANCH  24  25
ATOM     25  C   UNL     1       2.711   1.393  -1.329  0.00  0.00    +0.035 A 
ATOM     26  C   UNL     1       3.598   2.217  -1.942  0.00  0.00    +0.020 A 
ATOM     27  C   UNL     1       3.962   1.944  -3.332  0.00  0.00    +0.003 A 
ATOM     28  C   UNL     1       4.875   2.759  -4.013  0.00  0.00    +0.059 A 
ATOM     29  C   UNL     1       5.197   2.478  -5.322  0.00  0.00    +0.167 A 
ATOM     30  C   UNL     1       4.613   1.383  -5.973  0.00  0.00    +0.168 A 
ATOM     31  C   UNL     1       3.709   0.575  -5.309  0.00  0.00    +0.075 A 
ATOM     32  C   UNL     1       3.375   0.845  -3.988  0.00  0.00    +0.053 A 
ATOM     33  N   UNL     1       2.474   0.049  -3.309  0.00  0.00    -0.322 N 
ATOM     34  H   UNL     1       2.069  -0.708  -3.762  0.00  0.00    +0.169 HD
ATOM     35  C   UNL     1       2.150   0.307  -2.030  0.00  0.00    +0.254 A 
ATOM     36  O   UNL     1       1.350  -0.418  -1.463  0.00  0.00    -0.268 OA
ATOM     37  O   UNL     1       5.098   1.329  -7.247  0.00  0.00    -0.453 OA
ATOM     38  C   UNL     1       6.284   2.145  -7.244  0.00  0.00    +0.466 C 
ATOM     39  O   UNL     1       6.042   3.102  -6.196  0.00  0.00    -0.453 OA
ENDBRANCH  24  25
ENDBRANCH   1  24
TORSDOF 10
