REMARK  Name = ZINC33635237
REMARK  11 active torsions:
REMARK  status: ('A' for Active; 'I' for Inactive)
REMARK    1  A    between atoms: C_1  and  C_2
REMARK    2  A    between atoms: N_8  and  C_9
REMARK    3  A    between atoms: C_9  and  C_10
REMARK    4  A    between atoms: C_10  and  C_11
REMARK    5  A    between atoms: C_11  and  N_12
REMARK    6  A    between atoms: C_18  and  C_27
REMARK    7  A    between atoms: N_23  and  C_24
REMARK    8  A    between atoms: C_24  and  C_25
REMARK    9  A    between atoms: C_30  and  C_33
REMARK   10  A    between atoms: C_33  and  C_34
REMARK   11  A    between atoms: C_33  and  C_35
REMARK                            x       y       z     vdW  Elec       q    Type
REMARK                         _______ _______ _______ _____ _____    ______ ____
ROOT
ATOM      1  N   UNL     1       1.078  -0.333   1.137  0.00  0.00    -0.292 N 
ATOM      2  C   UNL     1       1.251  -1.426   0.170  0.00  0.00    +0.159 C 
ATOM      3  C   UNL     1       1.540  -2.649   1.012  0.00  0.00    +0.043 C 
ATOM      4  C   UNL     1       1.512  -2.239   2.297  0.00  0.00    +0.058 C 
ATOM      5  C   UNL     1       1.236  -0.858   2.365  0.00  0.00    +0.247 C 
ATOM      6  O   UNL     1       1.153  -0.224   3.401  0.00  0.00    -0.270 OA
ATOM      7  C   UNL     1       1.766  -3.276   3.372  0.00  0.00    +0.142 C 
ATOM      8  N   UNL     1       2.026  -4.654   2.922  0.00  0.00    -0.288 N 
ATOM      9  C   UNL     1       2.021  -4.909   1.598  0.00  0.00    +0.307 C 
ATOM     10  O   UNL     1       2.233  -6.043   1.217  0.00  0.00    -0.252 OA
ATOM     11  N   UNL     1       1.789  -3.952   0.690  0.00  0.00    -0.253 N 
ATOM     12  H   UNL     1       2.218  -5.447   3.659  0.00  0.00    +0.151 HD
ENDROOT
BRANCH   7  13
ATOM     13  C   UNL     1       2.952  -2.823   4.184  0.00  0.00    -0.023 A 
ATOM     14  C   UNL     1       4.234  -3.030   3.710  0.00  0.00    +0.006 A 
ATOM     15  C   UNL     1       5.322  -2.610   4.452  0.00  0.00    +0.004 A 
ATOM     16  C   UNL     1       5.128  -1.992   5.673  0.00  0.00    -0.045 A 
ATOM     17  C   UNL     1       3.847  -1.789   6.149  0.00  0.00    +0.004 A 
ATOM     18  C   UNL     1       2.759  -2.204   5.405  0.00  0.00    +0.006 A 
BRANCH  16  19
ATOM     19  C   UNL     1       6.314  -1.539   6.485  0.00  0.00    +0.013 C 
ATOM     20  C   UNL     1       7.196  -2.745   6.817  0.00  0.00    +0.012 C 
ATOM     21  C   UNL     1       7.125  -0.521   5.680  0.00  0.00    +0.012 C 
ENDBRANCH  16  19
ENDBRANCH   7  13
BRANCH   1  22
ATOM     22  C   UNL     1       0.782   1.067   0.823  0.00  0.00    +0.106 C 
BRANCH  22  23
ATOM     23  C   UNL     1       2.092   1.839   0.652  0.00  0.00    +0.000 C 
BRANCH  23  24
ATOM     24  C   UNL     1       1.783   3.301   0.324  0.00  0.00    -0.077 C 
BRANCH  24  31
ATOM     25  C   UNL     1       2.009   5.902   1.376  0.00  0.00    -0.013 C 
ATOM     26  C   UNL     1       2.797   5.491   0.130  0.00  0.00    -0.072 C 
ATOM     27  C   UNL     1       4.135   6.234   0.106  0.00  0.00    -0.016 C 
ATOM     28  C   UNL     1       4.929   5.804  -1.131  0.00  0.00    -0.003 C 
ATOM     29  C   UNL     1       5.127   4.286  -1.100  0.00  0.00    -0.019 C 
ATOM     30  C   UNL     1       3.760   3.600  -1.041  0.00  0.00    -0.078 C 
ATOM     31  N   UNL     1       3.040   4.043   0.160  0.00  0.00    +0.381 N 
ATOM     32  H   UNL     1       3.677   3.828   1.031  0.00  0.00    -0.081 HD
ENDBRANCH  24  31
ENDBRANCH  23  24
ENDBRANCH  22  23
ENDBRANCH   1  22
BRANCH  11  33
ATOM     33  C   UNL     1       1.804  -4.324  -0.727  0.00  0.00    +0.141 C 
BRANCH  33  34
ATOM     34  C   UNL     1       3.201  -4.171  -1.272  0.00  0.00    -0.015 C 
ATOM     35  C   UNL     1       3.789  -5.183  -1.860  0.00  0.00    +0.005 C 
ENDBRANCH  33  34
ENDBRANCH  11  33
TORSDOF 8
