REMARK  Name = ZINC20682614
REMARK  10 active torsions:
REMARK  status: ('A' for Active; 'I' for Inactive)
REMARK    1  A    between atoms: C_1  and  O_2
REMARK    2  A    between atoms: O_2  and  C_3
REMARK    3  A    between atoms: C_5  and  C_13
REMARK    4  A    between atoms: C_7  and  O_11
REMARK    5  A    between atoms: C_8  and  O_9
REMARK    6  A    between atoms: O_9  and  C_10
REMARK    7  A    between atoms: O_11  and  C_12
REMARK    8  A    between atoms: C_24  and  S_29
REMARK    9  A    between atoms: S_29  and  N_32
REMARK   10  A    between atoms: N_32  and  C_33
REMARK                            x       y       z     vdW  Elec       q    Type
REMARK                         _______ _______ _______ _____ _____    ______ ____
ROOT
ATOM      1  C   UNL     1      -3.768  -5.381   2.538  0.00  0.00    +0.105 C 
ATOM      2  C   UNL     1      -2.343  -5.712   2.131  0.00  0.00    +0.029 C 
ATOM      3  C   UNL     1      -1.895  -7.172   2.274  0.00  0.00    +0.033 C 
ATOM      4  C   UNL     1      -0.394  -7.010   2.525  0.00  0.00    -0.030 C 
ATOM      5  C   UNL     1      -0.150  -5.822   3.065  0.00  0.00    -0.023 C 
ATOM      6  C   UNL     1      -1.442  -5.111   3.251  0.00  0.00    +0.049 C 
ATOM      7  C   UNL     1      -1.541  -3.638   3.172  0.00  0.00    -0.018 A 
ATOM      8  C   UNL     1      -0.479  -2.808   3.461  0.00  0.00    +0.034 A 
ATOM      9  C   UNL     1      -0.626  -1.436   3.389  0.00  0.00    +0.106 A 
ATOM     10  C   UNL     1      -1.847  -0.889   3.037  0.00  0.00    +0.030 A 
ATOM     11  C   UNL     1      -2.914  -1.711   2.740  0.00  0.00    +0.025 A 
ATOM     12  C   UNL     1      -2.774  -3.092   2.800  0.00  0.00    +0.031 A 
ATOM     13  N   UNL     1      -3.867  -3.906   2.476  0.00  0.00    -0.336 N 
ATOM     14  H   UNL     1      -4.811  -3.430   2.172  0.00  0.00    +0.147 HD
ENDROOT
BRANCH   1  17
ATOM     15  C   UNL     1      -4.063  -5.457   6.305  0.00  0.00    +0.165 A 
ATOM     16  C   UNL     1      -3.818  -5.017   5.012  0.00  0.00    +0.055 A 
ATOM     17  C   UNL     1      -4.035  -5.862   3.940  0.00  0.00    -0.020 A 
ATOM     18  C   UNL     1      -4.501  -7.147   4.151  0.00  0.00    +0.055 A 
ATOM     19  C   UNL     1      -4.742  -7.596   5.441  0.00  0.00    +0.165 A 
ATOM     20  C   UNL     1      -4.526  -6.749   6.521  0.00  0.00    +0.204 A 
BRANCH  15  22
ATOM     21  C   UNL     1      -3.373  -3.310   7.061  0.00  0.00    +0.277 C 
ATOM     22  O   UNL     1      -3.850  -4.624   7.359  0.00  0.00    -0.491 OA
ENDBRANCH  15  22
BRANCH  20  23
ATOM     23  O   UNL     1      -4.768  -7.184   7.788  0.00  0.00    -0.488 OA
ATOM     24  C   UNL     1      -6.083  -6.975   8.306  0.00  0.00    +0.277 C 
ENDBRANCH  20  23
BRANCH  19  25
ATOM     25  O   UNL     1      -5.195  -8.861   5.647  0.00  0.00    -0.491 OA
ATOM     26  C   UNL     1      -5.395  -9.676   4.491  0.00  0.00    +0.277 C 
ENDBRANCH  19  25
ENDBRANCH   1  17
BRANCH   9  27
ATOM     27  S   UNL     1       0.739  -0.383   3.755  0.00  0.00    +0.059 S 
ATOM     28  O   UNL     1       1.613  -1.127   4.592  0.00  0.00    -0.153 OA
ATOM     29  O   UNL     1       0.192   0.870   4.145  0.00  0.00    -0.153 OA
BRANCH  27  30
ATOM     30  N   UNL     1       1.550  -0.122   2.335  0.00  0.00    -0.187 NA
ATOM     31  H   UNL     1       2.507  -0.637   2.160  0.00  0.00    +0.148 HD
BRANCH  30  32
ATOM     32  C   UNL     1       0.899   0.605   1.242  0.00  0.00    +0.077 C 
ATOM     33  C   UNL     1       1.350   0.021  -0.099  0.00  0.00    +0.020 C 
ATOM     34  C   UNL     1       0.670   0.780  -1.240  0.00  0.00    +0.002 C 
ATOM     35  C   UNL     1       1.059   2.258  -1.171  0.00  0.00    +0.000 C 
ATOM     36  C   UNL     1       0.609   2.843   0.169  0.00  0.00    +0.002 C 
ATOM     37  C   UNL     1       1.288   2.083   1.310  0.00  0.00    +0.020 C 
ENDBRANCH  30  32
ENDBRANCH  27  30
ENDBRANCH   9  27
TORSDOF 7
