REMARK  Name = ZINC64538569
REMARK  9 active torsions:
REMARK  status: ('A' for Active; 'I' for Inactive)
REMARK    1  A    between atoms: C_1  and  C_2
REMARK    2  A    between atoms: C_8  and  C_11
REMARK    3  A    between atoms: C_11  and  C_12
REMARK    4  A    between atoms: C_12  and  N_13
REMARK    5  A    between atoms: C_14  and  C_16
REMARK    6  A    between atoms: C_16  and  C_17
REMARK    7  A    between atoms: C_17  and  N_18
REMARK    8  A    between atoms: C_27  and  C_31
REMARK    9  A    between atoms: C_28  and  C_30
REMARK                            x       y       z     vdW  Elec       q    Type
REMARK                         _______ _______ _______ _____ _____    ______ ____
ROOT
ATOM      1  N   UNL     1      -1.377  -2.600   5.613  0.00  0.00    -0.315 N 
ATOM      2  C   UNL     1      -2.537  -2.599   6.299  0.00  0.00    +0.215 C 
ATOM      3  O   UNL     1      -3.583  -2.808   5.722  0.00  0.00    -0.276 OA
ATOM      4  H   UNL     1      -0.540  -2.433   6.075  0.00  0.00    +0.149 HD
ENDROOT
BRANCH   1   5
ATOM      5  C   UNL     1      -1.379  -2.854   4.170  0.00  0.00    +0.108 C 
BRANCH   5   6
ATOM      6  C   UNL     1       0.055  -2.799   3.641  0.00  0.00    +0.052 C 
BRANCH   6  14
ATOM      7  C   UNL     1      -0.018   1.503   0.010  0.00  0.00    +0.044 C 
ATOM      8  C   UNL     1       0.002  -0.004   0.002  0.00  0.00    -0.050 A 
ATOM      9  C   UNL     1       0.005  -0.680  -1.226  0.00  0.00    +0.005 A 
ATOM     10  C   UNL     1       0.023  -2.026  -1.317  0.00  0.00    +0.026 A 
ATOM     11  C   UNL     1       0.039  -2.826  -0.141  0.00  0.00    +0.043 A 
ATOM     12  N   UNL     1       0.057  -4.126   0.030  0.00  0.00    -0.380 N 
ATOM     13  C   UNL     1       0.067  -4.408   1.470  0.00  0.00    +0.144 C 
ATOM     14  C   UNL     1       0.052  -3.060   2.156  0.00  0.00    -0.040 C 
ATOM     15  C   UNL     1       0.036  -2.137   1.168  0.00  0.00    -0.001 A 
ATOM     16  C   UNL     1       0.022  -0.669   1.180  0.00  0.00    +0.013 A 
ATOM     17  H   UNL     1       0.062  -4.790  -0.677  0.00  0.00    +0.160 HD
ENDBRANCH   6  14
ENDBRANCH   5   6
ENDBRANCH   1   5
BRANCH   2  18
ATOM     18  C   UNL     1      -2.534  -2.338   7.783  0.00  0.00    +0.115 C 
BRANCH  18  19
ATOM     19  C   UNL     1      -3.969  -2.393   8.313  0.00  0.00    +0.118 C 
BRANCH  19  20
ATOM     20  N   UNL     1      -3.966  -2.139   9.756  0.00  0.00    -0.287 N 
ATOM     21  C   UNL     1      -3.831  -3.266  10.667  0.00  0.00    +0.195 C 
ATOM     22  N   UNL     1      -3.061  -2.991  11.888  0.00  0.00    -0.265 NA
ATOM     23  C   UNL     1      -2.612  -1.620  11.927  0.00  0.00    +0.259 C 
ATOM     24  C   UNL     1      -3.877  -0.728  11.686  0.00  0.00    +0.160 C 
ATOM     25  C   UNL     1      -4.086  -0.852  10.200  0.00  0.00    +0.229 C 
ATOM     26  O   UNL     1      -4.336   0.088   9.476  0.00  0.00    -0.275 OA
ATOM     27  C   UNL     1      -3.344   0.591  12.173  0.00  0.00    -0.019 C 
ATOM     28  C   UNL     1      -2.360   0.298  13.020  0.00  0.00    +0.097 C 
ATOM     29  O   UNL     1      -2.147  -1.051  13.140  0.00  0.00    -0.477 OA
ATOM     30  C   UNL     1      -1.562   1.338  13.764  0.00  0.00    +0.085 C 
ATOM     31  C   UNL     1      -3.826   1.964  11.782  0.00  0.00    +0.043 C 
ATOM     32  H   UNL     1      -3.597  -3.219  12.712  0.00  0.00    +0.127 HD
ENDBRANCH  19  20
ENDBRANCH  18  19
ENDBRANCH   2  18
TORSDOF 6
