REMARK  Name = ZINC35486473
REMARK  16 active torsions:
REMARK  status: ('A' for Active; 'I' for Inactive)
REMARK    1  A    between atoms: C_1  and  C_2
REMARK    2  A    between atoms: C_2  and  N_3
REMARK    3  A    between atoms: N_3  and  C_4
REMARK    4  A    between atoms: N_3  and  C_6
REMARK    5  A    between atoms: C_4  and  C_5
REMARK    6  A    between atoms: C_6  and  C_7
REMARK    7  A    between atoms: C_7  and  N_8
REMARK    8  A    between atoms: C_9  and  C_25
REMARK    9  A    between atoms: C_28  and  O_33
REMARK   10  A    between atoms: C_29  and  O_31
REMARK   11  A    between atoms: O_31  and  C_32
REMARK   12  A    between atoms: O_33  and  C_34
REMARK   13  A    between atoms: C_34  and  C_35
REMARK   14  A    between atoms: C_35  and  C_36
REMARK   15  A    between atoms: C_36  and  C_37
REMARK   16  A    between atoms: C_36  and  C_38
REMARK                            x       y       z     vdW  Elec       q    Type
REMARK                         _______ _______ _______ _____ _____    ______ ____
ROOT
ATOM      1  N   UNL     1       2.010  -3.380  -2.845  0.00  0.00    -0.285 N 
ATOM      2  C   UNL     1       3.001  -4.264  -2.209  0.00  0.00    +0.145 C 
ATOM      3  C   UNL     1       2.692  -5.641  -2.698  0.00  0.00    +0.072 A 
ATOM      4  C   UNL     1       3.335  -6.930  -2.424  0.00  0.00    +0.199 A 
ATOM      5  O   UNL     1       4.181  -7.084  -1.560  0.00  0.00    -0.287 OA
ATOM      6  C   UNL     1       2.857  -8.031  -3.298  0.00  0.00    +0.066 A 
ATOM      7  C   UNL     1       3.507  -9.265  -3.299  0.00  0.00    +0.035 A 
ATOM      8  C   UNL     1       3.052 -10.273  -4.122  0.00  0.00    +0.042 A 
ATOM      9  C   UNL     1       1.953 -10.058  -4.944  0.00  0.00    +0.023 A 
ATOM     10  C   UNL     1       1.304  -8.845  -4.949  0.00  0.00    +0.048 A 
ATOM     11  C   UNL     1       1.742  -7.809  -4.124  0.00  0.00    +0.140 A 
ATOM     12  O   UNL     1       1.079  -6.630  -4.142  0.00  0.00    -0.450 OA
ATOM     13  C   UNL     1       1.616  -5.554  -3.535  0.00  0.00    +0.199 A 
ATOM     14  C   UNL     1       1.204  -4.142  -3.612  0.00  0.00    +0.283 C 
ATOM     15  O   UNL     1       0.275  -3.724  -4.274  0.00  0.00    -0.267 OA
ATOM     16 CL   UNL     1       3.854 -11.813  -4.130  0.00  0.00    -0.084 Cl
ENDROOT
BRANCH   2  17
ATOM     17  C   UNL     1       2.867  -4.201  -0.709  0.00  0.00    -0.019 A 
ATOM     18  C   UNL     1       1.612  -4.158  -0.130  0.00  0.00    +0.009 A 
ATOM     19  C   UNL     1       1.484  -4.100   1.245  0.00  0.00    +0.050 A 
ATOM     20  C   UNL     1       2.615  -4.085   2.046  0.00  0.00    +0.162 A 
ATOM     21  C   UNL     1       3.877  -4.129   1.464  0.00  0.00    +0.162 A 
ATOM     22  C   UNL     1       3.999  -4.191   0.085  0.00  0.00    +0.055 A 
BRANCH  21  23
ATOM     23  O   UNL     1       4.990  -4.114   2.245  0.00  0.00    -0.491 OA
ATOM     24  C   UNL     1       6.253  -4.161   1.578  0.00  0.00    +0.277 C 
ENDBRANCH  21  23
BRANCH  20  25
ATOM     25  O   UNL     1       2.490  -4.028   3.400  0.00  0.00    -0.488 OA
BRANCH  25  26
ATOM     26  C   UNL     1       1.163  -3.985   3.928  0.00  0.00    +0.229 C 
BRANCH  26  27
ATOM     27  C   UNL     1       1.224  -3.923   5.455  0.00  0.00    +0.044 C 
BRANCH  27  28
ATOM     28  C   UNL     1      -0.196  -3.877   6.021  0.00  0.00    -0.014 C 
ATOM     29  C   UNL     1      -0.139  -3.941   7.549  0.00  0.00    +0.007 C 
ATOM     30  C   UNL     1      -0.875  -2.575   5.590  0.00  0.00    +0.007 C 
ENDBRANCH  27  28
ENDBRANCH  26  27
ENDBRANCH  25  26
ENDBRANCH  20  25
ENDBRANCH   2  17
BRANCH   1  31
ATOM     31  C   UNL     1       1.912  -1.929  -2.669  0.00  0.00    +0.090 C 
BRANCH  31  32
ATOM     32  C   UNL     1       0.993  -1.619  -1.486  0.00  0.00    -0.060 C 
BRANCH  32  33
ATOM     33  N   UNL     1       0.788  -0.168  -1.393  0.00  0.00    +0.380 N 
ATOM     34  H   UNL     1       1.683   0.296  -1.351  0.00  0.00    -0.082 HD
BRANCH  33  36
ATOM     35  C   UNL     1      -0.056   1.825  -2.538  0.00  0.00    -0.017 C 
ATOM     36  C   UNL     1       0.049   0.300  -2.573  0.00  0.00    -0.082 C 
ENDBRANCH  33  36
BRANCH  33  37
ATOM     37  C   UNL     1       0.019   0.141  -0.180  0.00  0.00    -0.082 C 
ATOM     38  C   UNL     1       0.851  -0.210   1.055  0.00  0.00    -0.017 C 
ENDBRANCH  33  37
ENDBRANCH  32  33
ENDBRANCH  31  32
ENDBRANCH   1  31
TORSDOF 11
