REMARK  Name = ZINC13978618
REMARK  11 active torsions:
REMARK  status: ('A' for Active; 'I' for Inactive)
REMARK    1  A    between atoms: C_1  and  C_2
REMARK    2  A    between atoms: C_2  and  C_3
REMARK    3  A    between atoms: C_6  and  O_10
REMARK    4  A    between atoms: O_10  and  C_11
REMARK    5  A    between atoms: C_11  and  C_12
REMARK    6  A    between atoms: N_14  and  C_15
REMARK    7  A    between atoms: C_15  and  N_17
REMARK    8  A    between atoms: N_17  and  N_18
REMARK    9  A    between atoms: C_19  and  C_21
REMARK   10  A    between atoms: C_21  and  O_22
REMARK   11  A    between atoms: O_22  and  C_23
REMARK                            x       y       z     vdW  Elec       q    Type
REMARK                         _______ _______ _______ _____ _____    ______ ____
ROOT
ATOM      1  N   UNL     1       5.360  -4.022  -0.074  0.00  0.00    -0.245 N 
ATOM      2  H   UNL     1       6.261  -4.379  -0.085  0.00  0.00    +0.172 HD
ENDROOT
BRANCH   1   3
ATOM      3  N   UNL     1       4.262  -4.892  -0.068  0.00  0.00    -0.232 N 
ATOM      4  C   UNL     1       4.458  -6.225  -0.078  0.00  0.00    +0.267 C 
ATOM      5  O   UNL     1       5.586  -6.672  -0.091  0.00  0.00    -0.271 OA
ATOM      6  H   UNL     1       3.360  -4.534  -0.057  0.00  0.00    +0.173 HD
BRANCH   4   7
ATOM      7  C   UNL     1       3.277  -7.161  -0.071  0.00  0.00    +0.326 C 
BRANCH   7   8
ATOM      8  O   UNL     1       3.740  -8.513  -0.084  0.00  0.00    -0.482 OA
BRANCH   8   9
ATOM      9  C   UNL     1       2.796  -9.488  -0.080  0.00  0.00    +0.129 A 
ATOM     10  C   UNL     1       1.469  -9.161  -0.065  0.00  0.00    +0.046 A 
ATOM     11  C   UNL     1       0.488 -10.149  -0.061  0.00  0.00    +0.004 A 
ATOM     12  C   UNL     1       0.821 -11.469  -0.072  0.00  0.00    +0.009 A 
ATOM     13  C   UNL     1       2.175 -11.847  -0.087  0.00  0.00    -0.014 A 
ATOM     14  C   UNL     1       3.176 -10.845  -0.097  0.00  0.00    +0.024 A 
ATOM     15  C   UNL     1       4.529 -11.223  -0.108  0.00  0.00    +0.012 A 
ATOM     16  C   UNL     1       4.859 -12.543  -0.118  0.00  0.00    +0.001 A 
ATOM     17  C   UNL     1       3.875 -13.530  -0.114  0.00  0.00    +0.001 A 
ATOM     18  C   UNL     1       2.554 -13.201  -0.099  0.00  0.00    +0.008 A 
ENDBRANCH   8   9
ENDBRANCH   7   8
ENDBRANCH   4   7
ENDBRANCH   1   3
BRANCH   1  19
ATOM     19  C   UNL     1       5.163  -2.688  -0.064  0.00  0.00    +0.153 C 
ATOM     20  S   UNL     1       6.505  -1.625  -0.071  0.00  0.00    -0.017 S 
BRANCH  19  23
ATOM     21  C   UNL     1       3.714  -0.859  -0.040  0.00  0.00    +0.256 C 
ATOM     22  O   UNL     1       4.664  -0.106  -0.044  0.00  0.00    -0.272 OA
ATOM     23  N   UNL     1       3.910  -2.192  -0.049  0.00  0.00    -0.264 N 
ATOM     24  H   UNL     1       3.150  -2.794  -0.045  0.00  0.00    +0.157 HD
BRANCH  21  25
ATOM     25  C   UNL     1       2.313  -0.304  -0.023  0.00  0.00    +0.325 C 
BRANCH  25  26
ATOM     26  O   UNL     1       2.366   1.124  -0.015  0.00  0.00    -0.482 OA
BRANCH  26  30
ATOM     27  C   UNL     1      -1.238   3.133   0.030  0.00  0.00    -0.046 A 
ATOM     28  C   UNL     1      -1.218   1.751   0.017  0.00  0.00    +0.007 A 
ATOM     29  C   UNL     1      -0.013   1.076   0.008  0.00  0.00    +0.047 A 
ATOM     30  C   UNL     1       1.179   1.786   0.000  0.00  0.00    +0.135 A 
ATOM     31  C   UNL     1       1.157   3.174   0.008  0.00  0.00    +0.060 A 
ATOM     32  C   UNL     1      -0.052   3.844   0.023  0.00  0.00    +0.022 A 
ATOM     33 BR   UNL     1       2.778   4.147  -0.003  0.00  0.00    -0.047 Br
BRANCH  27  35
ATOM     34  C   UNL     1      -3.013   4.122  -1.391  0.00  0.00    +0.009 C 
ATOM     35  C   UNL     1      -2.554   3.866   0.046  0.00  0.00    +0.032 C 
ENDBRANCH  27  35
ENDBRANCH  26  30
ENDBRANCH  25  26
ENDBRANCH  21  25
ENDBRANCH  19  23
ENDBRANCH   1  19
TORSDOF 10
