REMARK  Name = ZINC15674144
REMARK  7 active torsions:
REMARK  status: ('A' for Active; 'I' for Inactive)
REMARK    1  A    between atoms: C_3  and  C_9
REMARK    2  A    between atoms: C_5  and  C_7
REMARK    3  A    between atoms: C_9  and  N_47
REMARK    4  A    between atoms: C_11  and  O_31
REMARK    5  A    between atoms: C_14  and  C_16
REMARK    6  A    between atoms: C_18  and  C_21
REMARK    7  A    between atoms: C_24  and  C_27
REMARK                            x       y       z     vdW  Elec       q    Type
REMARK                         _______ _______ _______ _____ _____    ______ ____
ROOT
ATOM      1  C   UNL     1       0.713  -0.538   1.264  0.00  0.00    -0.046 C 
ATOM      2  C   UNL     1       0.002  -0.004   0.002  0.00  0.00    +0.097 C 
ATOM      3  C   UNL     1      -1.435  -0.560   0.086  0.00  0.00    +0.023 C 
ATOM      4  C   UNL     1      -1.470  -1.383   1.392  0.00  0.00    +0.025 C 
ATOM      5  N   UNL     1      -0.069  -1.727   1.620  0.00  0.00    +0.392 N 
ATOM      6  H   UNL     1       0.200  -2.517   1.021  0.00  0.00    -0.080 HD
ENDROOT
BRANCH   4   7
ATOM      7  C   UNL     1      -2.314  -2.619   1.214  0.00  0.00    +0.214 A 
ATOM      8  N   UNL     1      -3.485  -2.846   1.756  0.00  0.00    -0.193 NA
ATOM      9  C   UNL     1      -3.856  -4.070   1.317  0.00  0.00    +0.202 A 
ATOM     10  N   UNL     1      -2.899  -4.509   0.542  0.00  0.00    -0.056 NA
ATOM     11  O   UNL     1      -2.010  -3.687   0.470  0.00  0.00    -0.339 OA
BRANCH   9  12
ATOM     12  C   UNL     1      -5.115  -4.781   1.651  0.00  0.00    +0.022 A 
ATOM     13  C   UNL     1      -6.048  -4.189   2.500  0.00  0.00    +0.012 A 
ATOM     14  C   UNL     1      -7.220  -4.853   2.804  0.00  0.00    +0.013 A 
ATOM     15  C   UNL     1      -7.463  -6.108   2.276  0.00  0.00    +0.055 A 
ATOM     16  C   UNL     1      -6.538  -6.702   1.438  0.00  0.00    +0.013 A 
ATOM     17  C   UNL     1      -5.366  -6.045   1.123  0.00  0.00    +0.012 A 
BRANCH  15  18
ATOM     18  C   UNL     1      -8.741  -6.831   2.617  0.00  0.00    +0.417 C 
ATOM     19  F   UNL     1      -8.546  -7.607   3.765  0.00  0.00    -0.166 F 
ATOM     20  F   UNL     1      -9.756  -5.897   2.852  0.00  0.00    -0.166 F 
ATOM     21  F   UNL     1      -9.107  -7.659   1.551  0.00  0.00    -0.166 F 
ENDBRANCH  15  18
ENDBRANCH   9  12
ENDBRANCH   4   7
BRANCH   2  22
ATOM     22  O   UNL     1      -0.017   1.425   0.010  0.00  0.00    -0.394 OA
ATOM     23  H   UNL     1       0.861   1.830   0.004  0.00  0.00    +0.210 HD
ENDBRANCH   2  22
BRANCH   5  24
ATOM     24  C   UNL     1       0.162  -2.096   3.052  0.00  0.00    -0.042 C 
BRANCH  24  27
ATOM     25  C   UNL     1       3.882  -2.140   3.716  0.00  0.00    +0.001 A 
ATOM     26  C   UNL     1       2.583  -1.694   3.542  0.00  0.00    +0.002 A 
ATOM     27  C   UNL     1       1.573  -2.590   3.240  0.00  0.00    -0.063 A 
ATOM     28  C   UNL     1       1.853  -3.935   3.115  0.00  0.00    +0.020 A 
ATOM     29  C   UNL     1       3.162  -4.390   3.285  0.00  0.00    +0.052 A 
ATOM     30  C   UNL     1       4.177  -3.481   3.590  0.00  0.00    +0.019 A 
BRANCH  29  31
ATOM     31  C   UNL     1       3.462  -5.784   3.152  0.00  0.00    +0.099 C 
ATOM     32  N   UNL     1       3.699  -6.890   3.046  0.00  0.00    -0.191 NA
ENDBRANCH  29  31
ENDBRANCH  24  27
ENDBRANCH   5  24
TORSDOF 7
