REMARK  Name = ZINC21081845
REMARK  9 active torsions:
REMARK  status: ('A' for Active; 'I' for Inactive)
REMARK    1  A    between atoms: C_1  and  C_2
REMARK    2  A    between atoms: C_5  and  N_8
REMARK    3  A    between atoms: C_9  and  C_11
REMARK    4  A    between atoms: C_11  and  C_12
REMARK    5  A    between atoms: C_12  and  S_13
REMARK    6  A    between atoms: S_13  and  C_14
REMARK    7  A    between atoms: N_19  and  N_20
REMARK    8  A    between atoms: C_21  and  C_22
REMARK    9  A    between atoms: C_21  and  C_23
REMARK                            x       y       z     vdW  Elec       q    Type
REMARK                         _______ _______ _______ _____ _____    ______ ____
ROOT
ATOM      1  C   UNL     1       5.601  -6.931  -0.647  0.00  0.00    +0.210 A 
ATOM      2  N   UNL     1       6.125  -8.186  -0.776  0.00  0.00    -0.186 NA
ATOM      3  C   UNL     1       7.486  -8.071  -0.842  0.00  0.00    +0.232 A 
ATOM      4  N   UNL     1       7.789  -6.799  -0.757  0.00  0.00    -0.245 N 
ATOM      5  N   UNL     1       6.595  -6.076  -0.639  0.00  0.00    -0.144 NA
ATOM      6  N   UNL     1       8.387  -9.117  -0.976  0.00  0.00    -0.205 N 
ATOM      7  H   UNL     1       8.022 -10.153  -1.039  0.00  0.00    +0.177 HD
ATOM      8  H   UNL     1       8.842  -6.481  -0.785  0.00  0.00    +0.192 HD
ENDROOT
BRANCH   6   9
ATOM      9  N   UNL     1       9.762  -8.855  -1.030  0.00  0.00    -0.184 NA
ATOM     10  C   UNL     1      10.606  -9.834  -1.155  0.00  0.00    +0.063 C 
ATOM     11  C   UNL     1      10.105 -11.253  -1.242  0.00  0.00    +0.068 C 
BRANCH  10  12
ATOM     12  C   UNL     1      12.053  -9.558  -1.212  0.00  0.00    -0.002 A 
ATOM     13  C   UNL     1      12.963 -10.610  -1.341  0.00  0.00    +0.011 A 
ATOM     14  C   UNL     1      14.315 -10.344  -1.401  0.00  0.00    +0.016 A 
ATOM     15  C   UNL     1      14.771  -9.039  -1.321  0.00  0.00    +0.018 A 
ATOM     16  C   UNL     1      13.875  -7.992  -1.187  0.00  0.00    +0.016 A 
ATOM     17  C   UNL     1      12.520  -8.244  -1.133  0.00  0.00    +0.011 A 
ATOM     18 BR   UNL     1      16.627  -8.685  -1.395  0.00  0.00    -0.050 Br
ENDBRANCH  10  12
ENDBRANCH   6   9
BRANCH   1  19
ATOM     19  S   UNL     1       3.889  -6.531  -0.522  0.00  0.00    -0.084 S 
BRANCH  19  20
ATOM     20  C   UNL     1       3.871  -4.723  -0.376  0.00  0.00    +0.086 C 
BRANCH  20  21
ATOM     21  C   UNL     1       2.425  -4.236  -0.258  0.00  0.00    +0.107 C 
BRANCH  21  23
ATOM     22  N   UNL     1       1.237  -2.079  -0.020  0.00  0.00    -0.285 N 
ATOM     23  C   UNL     1       2.410  -2.734  -0.137  0.00  0.00    +0.218 C 
ATOM     24  O   UNL     1       3.452  -2.114  -0.144  0.00  0.00    -0.275 OA
ATOM     25  H   UNL     1       0.298  -2.645   0.073  0.00  0.00    +0.155 HD
BRANCH  22  30
ATOM     26  C   UNL     1       1.143   3.593  -0.015  0.00  0.00    +0.044 C 
ATOM     27  C   UNL     1       1.168   2.086  -0.017  0.00  0.00    -0.050 A 
ATOM     28  C   UNL     1       2.111   1.412  -0.771  0.00  0.00    +0.005 A 
ATOM     29  C   UNL     1       2.137   0.031  -0.774  0.00  0.00    +0.023 A 
ATOM     30  C   UNL     1       1.214  -0.680  -0.019  0.00  0.00    +0.033 A 
ATOM     31  C   UNL     1       0.268  -0.001   0.737  0.00  0.00    +0.023 A 
ATOM     32  C   UNL     1       0.248   1.380   0.736  0.00  0.00    +0.005 A 
ENDBRANCH  22  30
ENDBRANCH  21  23
ENDBRANCH  20  21
ENDBRANCH  19  20
ENDBRANCH   1  19
TORSDOF 7
