REMARK  Name = ZINC43091816
REMARK  11 active torsions:
REMARK  status: ('A' for Active; 'I' for Inactive)
REMARK    1  A    between atoms: C_1  and  C_2
REMARK    2  A    between atoms: C_2  and  C_3
REMARK    3  A    between atoms: C_3  and  C_5
REMARK    4  A    between atoms: C_3  and  N_22
REMARK    5  A    between atoms: C_5  and  C_7
REMARK    6  A    between atoms: C_5  and  N_14
REMARK    7  A    between atoms: N_14  and  C_15
REMARK    8  A    between atoms: N_14  and  C_17
REMARK    9  A    between atoms: C_15  and  C_16
REMARK   10  A    between atoms: C_17  and  C_18
REMARK   11  A    between atoms: N_20  and  C_21
REMARK                            x       y       z     vdW  Elec       q    Type
REMARK                         _______ _______ _______ _____ _____    ______ ____
ROOT
ATOM      1  C   UNL     1      -0.961  -1.348   0.158  0.00  0.00    -0.051 C 
ENDROOT
BRANCH   1   2
ATOM      2  C   UNL     1      -0.110  -1.374  -1.086  0.00  0.00    -0.048 A 
ATOM      3  C   UNL     1       1.201  -0.937  -1.036  0.00  0.00    +0.003 A 
ATOM      4  C   UNL     1       1.981  -0.961  -2.177  0.00  0.00    +0.000 A 
ATOM      5  C   UNL     1       1.451  -1.422  -3.368  0.00  0.00    +0.001 A 
ATOM      6  C   UNL     1       0.141  -1.859  -3.418  0.00  0.00    +0.015 A 
ATOM      7  C   UNL     1      -0.639  -1.840  -2.276  0.00  0.00    +0.019 A 
ATOM      8 BR   UNL     1      -2.429  -2.445  -2.342  0.00  0.00    -0.050 Br
ENDBRANCH   1   2
BRANCH   1   9
ATOM      9  N   UNL     1      -0.156  -1.774   1.311  0.00  0.00    +0.389 N 
ATOM     10  H   UNL     1       0.700  -1.241   1.339  0.00  0.00    -0.080 HD
BRANCH   9  11
ATOM     11  C   UNL     1       0.161  -3.203   1.185  0.00  0.00    -0.081 C 
ATOM     12  C   UNL     1       1.120  -3.411   0.011  0.00  0.00    -0.017 C 
ENDBRANCH   9  11
BRANCH   9  13
ATOM     13  C   UNL     1      -0.914  -1.548   2.548  0.00  0.00    +0.019 C 
BRANCH  13  14
ATOM     14  C   UNL     1      -0.045  -1.870   3.736  0.00  0.00    +0.196 C 
ATOM     15  O   UNL     1       1.094  -2.250   3.569  0.00  0.00    -0.278 OA
ATOM     16  N   UNL     1      -0.534  -1.735   4.985  0.00  0.00    -0.320 N 
ATOM     17  C   UNL     1       0.311  -2.048   6.140  0.00  0.00    +0.128 C 
ATOM     18  H   UNL     1      -1.445  -1.431   5.119  0.00  0.00    +0.148 HD
ENDBRANCH  13  14
ENDBRANCH   9  13
ENDBRANCH   1   9
BRANCH   1  19
ATOM     19  C   UNL     1      -1.476   0.074   0.394  0.00  0.00    -0.085 C 
BRANCH  19  20
ATOM     20  N   UNL     1      -2.143   0.561  -0.821  0.00  0.00    +0.379 N 
ATOM     21  H   UNL     1      -1.502   0.511  -1.599  0.00  0.00    -0.090 HD
ATOM     22  H   UNL     1      -2.951  -0.012  -1.014  0.00  0.00    -0.090 HD
ATOM     23  H   UNL     1      -2.433   1.517  -0.685  0.00  0.00    -0.090 HD
ENDBRANCH  19  20
BRANCH  19  25
ATOM     24  C   UNL     1      -0.818   2.408   0.994  0.00  0.00    +0.002 C 
ATOM     25  C   UNL     1      -0.300   0.992   0.733  0.00  0.00    -0.021 C 
ENDBRANCH  19  25
ENDBRANCH   1  19
TORSDOF 8
