REMARK  Name = ZINC66434394
REMARK  11 active torsions:
REMARK  status: ('A' for Active; 'I' for Inactive)
REMARK    1  A    between atoms: C_1  and  C_2
REMARK    2  A    between atoms: C_2  and  N_3
REMARK    3  A    between atoms: N_3  and  C_4
REMARK    4  A    between atoms: N_3  and  C_20
REMARK    5  A    between atoms: C_4  and  C_5
REMARK    6  A    between atoms: N_7  and  C_8
REMARK    7  A    between atoms: C_8  and  C_10
REMARK    8  A    between atoms: C_8  and  C_16
REMARK    9  A    between atoms: N_18  and  C_19
REMARK   10  A    between atoms: C_20  and  C_22
REMARK   11  A    between atoms: C_20  and  C_23
REMARK                            x       y       z     vdW  Elec       q    Type
REMARK                         _______ _______ _______ _____ _____    ______ ____
ROOT
ATOM      1  C   UNL     1       2.166   0.016  -1.033  0.00  0.00    +0.020 C 
ENDROOT
BRANCH   1   2
ATOM      2  C   UNL     1       2.246   1.508  -0.836  0.00  0.00    +0.197 C 
ATOM      3  O   UNL     1       1.244   2.186  -0.923  0.00  0.00    -0.278 OA
ATOM      4  N   UNL     1       3.431   2.089  -0.563  0.00  0.00    -0.302 N 
ATOM      5  H   UNL     1       4.233   1.547  -0.493  0.00  0.00    +0.150 HD
BRANCH   4   6
ATOM      6  C   UNL     1       3.509   3.539  -0.371  0.00  0.00    +0.189 C 
BRANCH   6   7
ATOM      7  C   UNL     1       4.704   3.869   0.486  0.00  0.00    -0.018 A 
ATOM      8  C   UNL     1       5.895   3.193   0.302  0.00  0.00    +0.006 A 
ATOM      9  C   UNL     1       6.991   3.495   1.089  0.00  0.00    +0.000 A 
ATOM     10  C   UNL     1       6.895   4.475   2.059  0.00  0.00    +0.000 A 
ATOM     11  C   UNL     1       5.704   5.153   2.243  0.00  0.00    +0.000 A 
ATOM     12  C   UNL     1       4.610   4.853   1.453  0.00  0.00    +0.006 A 
ENDBRANCH   6   7
BRANCH   6  13
ATOM     13  C   UNL     1       3.650   4.216  -1.710  0.00  0.00    +0.238 C 
ATOM     14  O   UNL     1       3.682   3.552  -2.725  0.00  0.00    -0.273 OA
ATOM     15  N   UNL     1       3.740   5.559  -1.781  0.00  0.00    -0.317 N 
ATOM     16  C   UNL     1       3.877   6.217  -3.083  0.00  0.00    +0.128 C 
ATOM     17  H   UNL     1       3.715   6.090  -0.969  0.00  0.00    +0.148 HD
ENDBRANCH   6  13
ENDBRANCH   4   6
ENDBRANCH   1   2
BRANCH   1  18
ATOM     18  N   UNL     1       0.759  -0.385  -1.167  0.00  0.00    +0.392 N 
ATOM     19  H   UNL     1       0.319   0.166  -1.888  0.00  0.00    -0.080 HD
BRANCH  18  21
ATOM     20  C   UNL     1       0.642  -1.103   1.172  0.00  0.00    -0.017 C 
ATOM     21  C   UNL     1       0.064  -0.166   0.109  0.00  0.00    -0.081 C 
ENDBRANCH  18  21
BRANCH  18  22
ATOM     22  C   UNL     1       0.688  -1.808  -1.526  0.00  0.00    -0.003 C 
ATOM     23  C   UNL     1      -0.777  -2.226  -1.665  0.00  0.00    -0.005 C 
BRANCH  22  24
ATOM     24  C   UNL     1       1.401  -2.032  -2.834  0.00  0.00    +0.093 A 
ATOM     25  C   UNL     1       2.178  -3.087  -3.113  0.00  0.00    +0.051 A 
ATOM     26  C   UNL     1       2.657  -2.890  -4.487  0.00  0.00    +0.020 A 
ATOM     27  C   UNL     1       3.483  -3.616  -5.344  0.00  0.00    +0.011 A 
ATOM     28  C   UNL     1       3.739  -3.141  -6.601  0.00  0.00    +0.001 A 
ATOM     29  C   UNL     1       3.183  -1.943  -7.026  0.00  0.00    +0.004 A 
ATOM     30  C   UNL     1       2.364  -1.213  -6.192  0.00  0.00    +0.047 A 
ATOM     31  C   UNL     1       2.090  -1.677  -4.912  0.00  0.00    +0.135 A 
ATOM     32  O   UNL     1       1.345  -1.205  -3.893  0.00  0.00    -0.461 OA
ENDBRANCH  22  24
ENDBRANCH  18  22
ENDBRANCH   1  18
TORSDOF 8
