REMARK  Name = ZINC09762926
REMARK  10 active torsions:
REMARK  status: ('A' for Active; 'I' for Inactive)
REMARK    1  A    between atoms: C_1  and  C_2
REMARK    2  A    between atoms: C_2  and  C_3
REMARK    3  A    between atoms: C_3  and  C_4
REMARK    4  A    between atoms: C_3  and  C_5
REMARK    5  A    between atoms: C_3  and  C_6
REMARK    6  A    between atoms: C_13  and  N_17
REMARK    7  A    between atoms: C_14  and  C_15
REMARK    8  A    between atoms: N_17  and  C_18
REMARK    9  A    between atoms: C_18  and  N_20
REMARK   10  A    between atoms: C_21  and  C_23
REMARK                            x       y       z     vdW  Elec       q    Type
REMARK                         _______ _______ _______ _____ _____    ______ ____
ROOT
ATOM      1  C   UNL     1       0.739  -2.027  -1.265  0.00  0.00    -0.000 C 
ATOM      2  C   UNL     1       1.455  -2.524  -2.524  0.00  0.00    +0.009 C 
ATOM      3  C   UNL     1       1.267  -4.035  -2.668  0.00  0.00    +0.037 C 
ATOM      4  C   UNL     1       1.677  -4.707  -1.363  0.00  0.00    -0.018 A 
ATOM      5  C   UNL     1       1.766  -4.000  -0.215  0.00  0.00    -0.004 A 
ATOM      6  S   UNL     1       2.266  -5.181   1.005  0.00  0.00    -0.077 S 
ATOM      7  C   UNL     1       2.355  -6.595   0.006  0.00  0.00    +0.089 A 
ATOM      8  C   UNL     1       1.996  -6.119  -1.247  0.00  0.00    +0.084 A 
ATOM      9  C   UNL     1       1.496  -2.539  -0.031  0.00  0.00    +0.047 C 
ENDROOT
BRANCH   1  10
ATOM     10  C   UNL     1       0.718  -0.497  -1.257  0.00  0.00    -0.032 C 
ATOM     11  C   UNL     1      -0.022   0.009  -2.496  0.00  0.00    +0.011 C 
ATOM     12  C   UNL     1       2.154   0.032  -1.268  0.00  0.00    +0.011 C 
BRANCH  10  14
ATOM     13  C   UNL     1      -0.019   1.526   0.010  0.00  0.00    +0.004 C 
ATOM     14  C   UNL     1       0.002  -0.004   0.002  0.00  0.00    +0.003 C 
ENDBRANCH  10  14
ENDBRANCH   1  10
BRANCH   8  15
ATOM     15  C   UNL     1       1.942  -6.989  -2.383  0.00  0.00    +0.102 C 
ATOM     16  N   UNL     1       1.900  -7.679  -3.284  0.00  0.00    -0.191 NA
ENDBRANCH   8  15
BRANCH   7  17
ATOM     17  N   UNL     1       2.701  -7.887   0.371  0.00  0.00    -0.290 N 
ATOM     18  H   UNL     1       2.711  -8.593  -0.294  0.00  0.00    +0.154 HD
BRANCH  17  19
ATOM     19  C   UNL     1       3.023  -8.163   1.650  0.00  0.00    +0.141 C 
ATOM     20  S   UNL     1       3.005  -6.918   2.825  0.00  0.00    -0.018 S 
BRANCH  19  21
ATOM     21  N   UNL     1       3.359  -9.419   2.005  0.00  0.00    -0.264 N 
ATOM     22  C   UNL     1       3.681  -9.695   3.284  0.00  0.00    +0.250 C 
ATOM     23  O   UNL     1       3.669  -8.811   4.118  0.00  0.00    -0.270 OA
ATOM     24  H   UNL     1       3.369 -10.125   1.339  0.00  0.00    +0.157 HD
BRANCH  22  25
ATOM     25  C   UNL     1       4.049 -11.071   3.672  0.00  0.00    +0.037 A 
ATOM     26  C   UNL     1       4.059 -12.090   2.717  0.00  0.00    +0.016 A 
ATOM     27  C   UNL     1       4.410 -13.372   3.084  0.00  0.00    +0.039 A 
ATOM     28  C   UNL     1       4.741 -13.653   4.401  0.00  0.00    +0.123 A 
ATOM     29  C   UNL     1       4.727 -12.646   5.354  0.00  0.00    +0.039 A 
ATOM     30  C   UNL     1       4.384 -11.360   4.998  0.00  0.00    +0.016 A 
ATOM     31  F   UNL     1       5.079 -14.912   4.756  0.00  0.00    -0.205 F 
ENDBRANCH  22  25
ENDBRANCH  19  21
ENDBRANCH  17  19
ENDBRANCH   7  17
TORSDOF 7
