REMARK  Name = ZINC02915237
REMARK  4 active torsions:
REMARK  status: ('A' for Active; 'I' for Inactive)
REMARK    1  A    between atoms: C_1  and  O_2
REMARK    2  A    between atoms: O_2  and  C_3
REMARK    3  A    between atoms: C_7  and  C_9
REMARK    4  A    between atoms: C_20  and  C_22
REMARK                            x       y       z     vdW  Elec       q    Type
REMARK                         _______ _______ _______ _____ _____    ______ ____
ROOT
ATOM      1  C   UNL     1      -2.315  -4.068  -0.061  0.00  0.00    +0.159 C 
ATOM      2  C   UNL     1      -2.520  -4.568   1.352  0.00  0.00    +0.027 C 
ATOM      3  C   UNL     1      -3.636  -5.279   1.617  0.00  0.00    +0.083 C 
ATOM      4  C   UNL     1      -3.819  -5.772   3.006  0.00  0.00    +0.042 A 
ATOM      5  C   UNL     1      -5.051  -6.225   3.457  0.00  0.00    +0.013 A 
ATOM      6  C   UNL     1      -5.178  -6.675   4.758  0.00  0.00    +0.001 A 
ATOM      7  C   UNL     1      -4.084  -6.673   5.605  0.00  0.00    +0.004 A 
ATOM      8  C   UNL     1      -2.853  -6.224   5.163  0.00  0.00    +0.046 A 
ATOM      9  C   UNL     1      -2.711  -5.772   3.862  0.00  0.00    +0.131 A 
ATOM     10  O   UNL     1      -1.513  -5.333   3.400  0.00  0.00    -0.479 OA
ATOM     11  C   UNL     1      -1.522  -4.279   2.435  0.00  0.00    +0.234 C 
ATOM     12  N   UNL     1      -4.557  -5.538   0.656  0.00  0.00    -0.213 NA
ATOM     13  C   UNL     1      -4.457  -5.141  -0.591  0.00  0.00    +0.237 C 
ATOM     14  N   UNL     1      -3.373  -4.407  -1.019  0.00  0.00    -0.208 N 
ATOM     15  N   UNL     1      -3.577  -4.153  -2.377  0.00  0.00    -0.251 N 
ATOM     16  C   UNL     1      -4.765  -4.734  -2.704  0.00  0.00    +0.203 C 
ATOM     17  N   UNL     1      -5.268  -5.310  -1.659  0.00  0.00    -0.205 NA
ATOM     18  H   UNL     1      -2.990  -3.659  -2.971  0.00  0.00    +0.171 HD
ENDROOT
BRANCH  11  19
ATOM     19  C   UNL     1      -1.886  -2.984   3.115  0.00  0.00    -0.003 A 
ATOM     20  C   UNL     1      -2.998  -2.923   3.934  0.00  0.00    +0.010 A 
ATOM     21  C   UNL     1      -3.333  -1.737   4.559  0.00  0.00    +0.039 A 
ATOM     22  C   UNL     1      -2.554  -0.609   4.364  0.00  0.00    +0.123 A 
ATOM     23  C   UNL     1      -1.440  -0.671   3.543  0.00  0.00    +0.039 A 
ATOM     24  C   UNL     1      -1.105  -1.860   2.924  0.00  0.00    +0.010 A 
ATOM     25  F   UNL     1      -2.880   0.552   4.973  0.00  0.00    -0.205 F 
ENDBRANCH  11  19
BRANCH   1  30
ATOM     26  C   UNL     1      -0.823  -0.596  -0.061  0.00  0.00    +0.120 A 
ATOM     27  C   UNL     1      -1.958   0.191   0.074  0.00  0.00    +0.045 A 
ATOM     28  C   UNL     1      -3.201  -0.404   0.164  0.00  0.00    +0.004 A 
ATOM     29  C   UNL     1      -3.316  -1.781   0.120  0.00  0.00    +0.006 A 
ATOM     30  C   UNL     1      -2.186  -2.567  -0.014  0.00  0.00    -0.018 A 
ATOM     31  C   UNL     1      -0.941  -1.977  -0.110  0.00  0.00    +0.051 A 
BRANCH  26  33
ATOM     32  C   UNL     1       0.448   1.413  -0.093  0.00  0.00    +0.277 C 
ATOM     33  O   UNL     1       0.402  -0.014  -0.151  0.00  0.00    -0.495 OA
ENDBRANCH  26  33
ENDBRANCH   1  30
TORSDOF 3
