REMARK  Name = ZINC36146623
REMARK  11 active torsions:
REMARK  status: ('A' for Active; 'I' for Inactive)
REMARK    1  A    between atoms: C_4  and  O_7
REMARK    2  A    between atoms: O_7  and  C_8
REMARK    3  A    between atoms: C_8  and  C_9
REMARK    4  A    between atoms: C_9  and  C_11
REMARK    5  A    between atoms: C_9  and  O_37
REMARK    6  A    between atoms: C_11  and  N_12
REMARK    7  A    between atoms: N_12  and  C_13
REMARK    8  A    between atoms: N_12  and  C_21
REMARK    9  A    between atoms: C_13  and  C_14
REMARK   10  A    between atoms: C_21  and  C_22
REMARK   11  A    between atoms: C_25  and  C_28
REMARK                            x       y       z     vdW  Elec       q    Type
REMARK                         _______ _______ _______ _____ _____    ______ ____
ROOT
ATOM      1  N   UNL     1       6.448  -4.622  -0.049  0.00  0.00    +0.387 N 
ATOM      2  H   UNL     1       7.042  -4.441   0.747  0.00  0.00    -0.081 HD
ENDROOT
BRANCH   1   3
ATOM      3  C   UNL     1       5.078  -4.187   0.254  0.00  0.00    -0.043 C 
BRANCH   3   4
ATOM      4  C   UNL     1       4.623  -4.816   1.573  0.00  0.00    +0.135 C 
BRANCH   4   5
ATOM      5  O   UNL     1       4.471  -6.227   1.400  0.00  0.00    -0.390 OA
ATOM      6  H   UNL     1       3.821  -6.473   0.728  0.00  0.00    +0.210 HD
ENDBRANCH   4   5
BRANCH   4   7
ATOM      7  C   UNL     1       3.285  -4.206   1.994  0.00  0.00    +0.258 C 
BRANCH   7   8
ATOM      8  O   UNL     1       2.917  -4.707   3.281  0.00  0.00    -0.489 OA
BRANCH   8  12
ATOM      9  C   UNL     1      -0.640  -3.353   4.871  0.00  0.00    +0.000 A 
ATOM     10  C   UNL     1       0.135  -4.251   5.580  0.00  0.00    +0.004 A 
ATOM     11  C   UNL     1       1.327  -4.706   5.050  0.00  0.00    +0.045 A 
ATOM     12  C   UNL     1       1.745  -4.261   3.804  0.00  0.00    +0.121 A 
ATOM     13  C   UNL     1       0.965  -3.360   3.095  0.00  0.00    +0.045 A 
ATOM     14  C   UNL     1      -0.225  -2.908   3.630  0.00  0.00    +0.004 A 
ENDBRANCH   8  12
ENDBRANCH   7   8
ENDBRANCH   4   7
ENDBRANCH   3   4
ENDBRANCH   1   3
BRANCH   1  15
ATOM     15  C   UNL     1       6.951  -3.881  -1.214  0.00  0.00    -0.041 C 
BRANCH  15  16
ATOM     16  C   UNL     1       7.063  -2.418  -0.868  0.00  0.00    -0.046 A 
ATOM     17  C   UNL     1       6.102  -1.528  -1.308  0.00  0.00    +0.003 A 
ATOM     18  C   UNL     1       6.205  -0.186  -0.991  0.00  0.00    +0.000 A 
ATOM     19  C   UNL     1       7.270   0.266  -0.234  0.00  0.00    +0.001 A 
ATOM     20  C   UNL     1       8.232  -0.623   0.207  0.00  0.00    +0.020 A 
ATOM     21  C   UNL     1       8.126  -1.967  -0.105  0.00  0.00    +0.042 A 
ATOM     22 CL   UNL     1       9.330  -3.086   0.453  0.00  0.00    -0.083 Cl
ENDBRANCH  15  16
ENDBRANCH   1  15
BRANCH   1  23
ATOM     23  C   UNL     1       6.452  -6.060  -0.345  0.00  0.00    -0.030 C 
BRANCH  23  24
ATOM     24  C   UNL     1       7.887  -6.526  -0.598  0.00  0.00    +0.194 C 
ATOM     25  C   UNL     1       7.926  -8.029  -0.961  0.00  0.00    +0.104 C 
ATOM     26  C   UNL     1       9.188  -8.504  -0.264  0.00  0.00    +0.091 C 
ATOM     27  N   UNL     1       9.539  -7.605   0.594  0.00  0.00    -0.089 NA
ATOM     28  O   UNL     1       8.661  -6.496   0.619  0.00  0.00    -0.392 OA
BRANCH  26  29
ATOM     29  C   UNL     1       9.891  -9.775  -0.522  0.00  0.00    +0.003 A 
ATOM     30  C   UNL     1       9.406 -10.661  -1.486  0.00  0.00    +0.013 A 
ATOM     31  C   UNL     1      10.065 -11.848  -1.725  0.00  0.00    +0.050 A 
ATOM     32  C   UNL     1      11.211 -12.166  -1.011  0.00  0.00    +0.166 A 
ATOM     33  C   UNL     1      11.702 -11.286  -0.047  0.00  0.00    +0.167 A 
ATOM     34  C   UNL     1      11.048 -10.092   0.194  0.00  0.00    +0.059 A 
ATOM     35  O   UNL     1      12.827 -11.827   0.506  0.00  0.00    -0.453 OA
ATOM     36  C   UNL     1      12.789 -13.225   0.163  0.00  0.00    +0.466 C 
ATOM     37  O   UNL     1      12.030 -13.257  -1.060  0.00  0.00    -0.453 OA
ENDBRANCH  26  29
ENDBRANCH  23  24
ENDBRANCH   1  23
TORSDOF 11
