REMARK  Name = ZINC37309246
REMARK  9 active torsions:
REMARK  status: ('A' for Active; 'I' for Inactive)
REMARK    1  A    between atoms: C_1  and  C_2
REMARK    2  A    between atoms: C_2  and  C_3
REMARK    3  A    between atoms: C_3  and  C_4
REMARK    4  A    between atoms: C_4  and  C_6
REMARK    5  A    between atoms: C_4  and  N_7
REMARK    6  A    between atoms: N_7  and  C_8
REMARK    7  A    between atoms: C_11  and  S_17
REMARK    8  A    between atoms: C_13  and  C_14
REMARK    9  A    between atoms: S_17  and  N_20
REMARK                            x       y       z     vdW  Elec       q    Type
REMARK                         _______ _______ _______ _____ _____    ______ ____
ROOT
ATOM      1  C   UNL     1      -0.919  -3.818   0.900  0.00  0.00    +0.042 A 
ATOM      2  C   UNL     1       0.026  -4.561   0.204  0.00  0.00    +0.025 A 
ATOM      3  C   UNL     1      -0.303  -5.804  -0.297  0.00  0.00    +0.030 A 
ATOM      4  C   UNL     1      -1.577  -6.321  -0.111  0.00  0.00    +0.106 A 
ATOM      5  C   UNL     1      -2.528  -5.601   0.576  0.00  0.00    +0.045 A 
ATOM      6  C   UNL     1      -2.209  -4.342   1.095  0.00  0.00    +0.086 A 
ENDROOT
BRANCH   6   7
ATOM      7  C   UNL     1      -3.217  -3.569   1.835  0.00  0.00    +0.388 C 
ATOM      8  O   UNL     1      -4.303  -4.071   2.095  0.00  0.00    -0.241 OA
ATOM      9  O   UNL     1      -2.972  -2.424   2.190  0.00  0.00    -0.241 OA
ENDBRANCH   6   7
BRANCH   4  10
ATOM     10  S   UNL     1      -1.979  -7.910  -0.759  0.00  0.00    +0.056 S 
ATOM     11  O   UNL     1      -3.390  -7.934  -0.925  0.00  0.00    -0.153 OA
ATOM     12  O   UNL     1      -1.081  -8.149  -1.834  0.00  0.00    -0.153 OA
BRANCH  10  13
ATOM     13  N   UNL     1      -1.621  -9.022   0.414  0.00  0.00    -0.204 NA
ATOM     14  H   UNL     1      -1.259  -8.730   1.265  0.00  0.00    +0.144 HD
ATOM     15  H   UNL     1      -1.774  -9.966   0.250  0.00  0.00    +0.144 HD
ENDBRANCH  10  13
ENDBRANCH   4  10
BRANCH   1  16
ATOM     16  N   UNL     1      -0.590  -2.569   1.405  0.00  0.00    -0.341 N 
ATOM     17  H   UNL     1      -1.272  -2.019   1.823  0.00  0.00    +0.146 HD
BRANCH  16  18
ATOM     18  C   UNL     1       0.787  -2.078   1.307  0.00  0.00    +0.067 C 
ATOM     19  C   UNL     1       1.602  -2.608   2.488  0.00  0.00    +0.028 C 
BRANCH  18  20
ATOM     20  C   UNL     1       0.787  -0.549   1.333  0.00  0.00    +0.021 C 
BRANCH  20  22
ATOM     21  C   UNL     1       0.078   1.512   0.110  0.00  0.00    +0.004 C 
ATOM     22  C   UNL     1       0.078  -0.018   0.085  0.00  0.00    -0.002 C 
ENDBRANCH  20  22
ENDBRANCH  18  20
ENDBRANCH  16  18
ENDBRANCH   1  16
TORSDOF 7
