REMARK  Name = ZINC09325642
REMARK  10 active torsions:
REMARK  status: ('A' for Active; 'I' for Inactive)
REMARK    1  A    between atoms: C_1  and  C_2
REMARK    2  A    between atoms: C_2  and  O_3
REMARK    3  A    between atoms: O_3  and  C_4
REMARK    4  A    between atoms: C_7  and  C_9
REMARK    5  A    between atoms: C_13  and  N_14
REMARK    6  A    between atoms: C_15  and  C_17
REMARK    7  A    between atoms: C_22  and  S_23
REMARK    8  A    between atoms: S_23  and  C_24
REMARK    9  A    between atoms: C_29  and  O_31
REMARK   10  A    between atoms: O_31  and  C_32
REMARK                            x       y       z     vdW  Elec       q    Type
REMARK                         _______ _______ _______ _____ _____    ______ ____
ROOT
ATOM      1  C   UNL     1       3.636   1.754  -0.023  0.00  0.00    +0.069 A 
ATOM      2  C   UNL     1       4.749   0.817  -0.041  0.00  0.00    -0.020 A 
ATOM      3  C   UNL     1       4.399  -0.487  -0.041  0.00  0.00    +0.013 A 
ATOM      4  S   UNL     1       2.629  -0.485  -0.018  0.00  0.00    -0.076 S 
ATOM      5  C   UNL     1       2.352   1.226  -0.014  0.00  0.00    +0.085 A 
ATOM      6  C   UNL     1       5.324  -1.666  -0.052  0.00  0.00    +0.153 C 
ATOM      7  N   UNL     1       6.685  -1.149  -0.299  0.00  0.00    -0.262 N 
ATOM      8  C   UNL     1       7.083   0.079   0.406  0.00  0.00    +0.116 C 
ATOM      9  C   UNL     1       6.211   1.245  -0.063  0.00  0.00    +0.056 C 
ATOM     10  C   UNL     1       7.530  -1.778  -1.140  0.00  0.00    +0.403 C 
ATOM     11  O   UNL     1       8.645  -1.332  -1.327  0.00  0.00    -0.226 OA
ENDROOT
BRANCH   1  15
ATOM     12  C   UNL     1       4.163   5.206  -1.172  0.00  0.00    +0.407 C 
ATOM     13  O   UNL     1       4.267   5.799  -0.117  0.00  0.00    -0.226 OA
ATOM     14  N   UNL     1       3.955   3.875  -1.179  0.00  0.00    -0.217 N 
ATOM     15  C   UNL     1       3.862   3.201  -0.016  0.00  0.00    +0.255 C 
ATOM     16  O   UNL     1       3.966   3.795   1.041  0.00  0.00    -0.270 OA
ATOM     17  H   UNL     1       3.872   3.401  -2.022  0.00  0.00    +0.161 HD
BRANCH  12  18
ATOM     18  O   UNL     1       4.255   5.879  -2.334  0.00  0.00    -0.450 OA
BRANCH  18  20
ATOM     19  C   UNL     1       4.556   7.899  -3.662  0.00  0.00    +0.048 C 
ATOM     20  C   UNL     1       4.480   7.311  -2.251  0.00  0.00    +0.230 C 
ENDBRANCH  18  20
ENDBRANCH  12  18
ENDBRANCH   1  15
BRANCH   5  21
ATOM     21  N   UNL     1       1.143   1.902   0.001  0.00  0.00    -0.275 N 
ATOM     22  C   UNL     1      -0.014   1.212   0.009  0.00  0.00    +0.250 C 
ATOM     23  O   UNL     1       0.002  -0.004   0.002  0.00  0.00    -0.270 OA
ATOM     24  H   UNL     1       1.130   2.872   0.007  0.00  0.00    +0.156 HD
BRANCH  22  25
ATOM     25  C   UNL     1      -1.300   1.931   0.019  0.00  0.00    +0.050 A 
ATOM     26  C   UNL     1      -1.324   3.329   0.032  0.00  0.00    +0.014 A 
ATOM     27  C   UNL     1      -2.530   3.995   0.037  0.00  0.00    +0.001 A 
ATOM     28  C   UNL     1      -3.722   3.287   0.038  0.00  0.00    +0.001 A 
ATOM     29  C   UNL     1      -3.716   1.908   0.030  0.00  0.00    +0.015 A 
ATOM     30  C   UNL     1      -2.510   1.217   0.021  0.00  0.00    +0.020 A 
BRANCH  30  31
ATOM     31  S   UNL     1      -2.498  -0.545   0.012  0.00  0.00    -0.128 S 
ATOM     32  C   UNL     1      -4.255  -0.995   0.017  0.00  0.00    +0.090 C 
ENDBRANCH  30  31
ENDBRANCH  22  25
ENDBRANCH   5  21
BRANCH  10  33
ATOM     33  O   UNL     1       7.138  -2.900  -1.773  0.00  0.00    -0.454 OA
ATOM     34  C   UNL     1       8.101  -3.524  -2.664  0.00  0.00    +0.282 C 
ENDBRANCH  10  33
TORSDOF 7
