REMARK  Name = ZINC14646010
REMARK  12 active torsions:
REMARK  status: ('A' for Active; 'I' for Inactive)
REMARK    1  A    between atoms: C_1  and  C_2
REMARK    2  A    between atoms: C_2  and  C_3
REMARK    3  A    between atoms: C_2  and  C_4
REMARK    4  A    between atoms: C_4  and  C_5
REMARK    5  A    between atoms: C_5  and  O_6
REMARK    6  A    between atoms: O_6  and  C_7
REMARK    7  A    between atoms: C_10  and  C_14
REMARK    8  A    between atoms: N_16  and  C_17
REMARK    9  A    between atoms: C_17  and  N_19
REMARK   10  A    between atoms: N_19  and  N_20
REMARK   11  A    between atoms: C_21  and  C_23
REMARK   12  A    between atoms: C_27  and  N_29
REMARK                            x       y       z     vdW  Elec       q    Type
REMARK                         _______ _______ _______ _____ _____    ______ ____
ROOT
ATOM      1  C   UNL     1      -2.519   3.867   0.044  0.00  0.00    +0.250 C 
ATOM      2  O   UNL     1      -2.533   5.083   0.049  0.00  0.00    -0.270 OA
ATOM      3  N   UNL     1      -3.678   3.180   0.051  0.00  0.00    -0.263 N 
ATOM      4  H   UNL     1      -3.667   2.210   0.047  0.00  0.00    +0.157 HD
ENDROOT
BRANCH   1   8
ATOM      5  C   UNL     1       1.182   1.786   0.000  0.00  0.00    +0.134 A 
ATOM      6  C   UNL     1      -0.013   1.076   0.008  0.00  0.00    +0.047 A 
ATOM      7  C   UNL     1      -1.215   1.747   0.017  0.00  0.00    +0.017 A 
ATOM      8  C   UNL     1      -1.233   3.145   0.029  0.00  0.00    +0.038 A 
ATOM      9  C   UNL     1      -0.030   3.856   0.022  0.00  0.00    +0.032 A 
ATOM     10  C   UNL     1       1.169   3.177   0.007  0.00  0.00    +0.060 A 
ATOM     11 BR   UNL     1       2.798   4.137  -0.003  0.00  0.00    -0.046 Br
BRANCH   5  12
ATOM     12  O   UNL     1       2.365   1.121  -0.015  0.00  0.00    -0.491 OA
BRANCH  12  13
ATOM     13  C   UNL     1       2.306  -0.307  -0.022  0.00  0.00    +0.229 C 
BRANCH  13  14
ATOM     14  C   UNL     1       3.726  -0.876  -0.038  0.00  0.00    +0.044 C 
BRANCH  14  16
ATOM     15  C   UNL     1       5.077  -2.973  -0.188  0.00  0.00    +0.007 C 
ATOM     16  C   UNL     1       3.663  -2.405  -0.046  0.00  0.00    -0.014 C 
ATOM     17  C   UNL     1       3.046  -2.896   1.265  0.00  0.00    +0.007 C 
ENDBRANCH  14  16
ENDBRANCH  13  14
ENDBRANCH  12  13
ENDBRANCH   5  12
ENDBRANCH   1   8
BRANCH   3  18
ATOM     18  C   UNL     1      -4.853   3.840   0.065  0.00  0.00    +0.153 C 
ATOM     19  S   UNL     1      -4.873   5.552   0.072  0.00  0.00    -0.017 S 
BRANCH  18  20
ATOM     20  N   UNL     1      -6.013   3.153   0.072  0.00  0.00    -0.245 N 
ATOM     21  H   UNL     1      -6.858   3.628   0.082  0.00  0.00    +0.172 HD
BRANCH  20  22
ATOM     22  N   UNL     1      -5.996   1.752   0.066  0.00  0.00    -0.231 N 
ATOM     23  C   UNL     1      -7.155   1.064   0.073  0.00  0.00    +0.260 C 
ATOM     24  O   UNL     1      -8.215   1.660   0.085  0.00  0.00    -0.269 OA
ATOM     25  H   UNL     1      -5.151   1.277   0.056  0.00  0.00    +0.173 HD
BRANCH  23  26
ATOM     26  C   UNL     1      -7.138  -0.414   0.067  0.00  0.00    +0.040 A 
ATOM     27  C   UNL     1      -5.923  -1.101   0.047  0.00  0.00    +0.013 A 
ATOM     28  C   UNL     1      -5.914  -2.480   0.046  0.00  0.00    +0.003 A 
ATOM     29  C   UNL     1      -7.106  -3.183   0.054  0.00  0.00    +0.033 A 
ATOM     30  C   UNL     1      -8.314  -2.508   0.068  0.00  0.00    +0.127 A 
ATOM     31  C   UNL     1      -8.337  -1.129   0.074  0.00  0.00    +0.045 A 
BRANCH  30  32
ATOM     32  N   UNL     1      -9.584  -3.268   0.076  0.00  0.00    +0.056 N 
ATOM     33  O   UNL     1     -10.648  -2.676   0.088  0.00  0.00    -0.126 OA
ATOM     34  O   UNL     1      -9.565  -4.486   0.071  0.00  0.00    -0.126 OA
ENDBRANCH  30  32
ENDBRANCH  23  26
ENDBRANCH  20  22
ENDBRANCH  18  20
ENDBRANCH   3  18
TORSDOF 10
