REMARK  Name = ZINC10132668
REMARK  10 active torsions:
REMARK  status: ('A' for Active; 'I' for Inactive)
REMARK    1  A    between atoms: C_1  and  C_2
REMARK    2  A    between atoms: C_2  and  C_3
REMARK    3  A    between atoms: N_11  and  C_15
REMARK    4  A    between atoms: C_15  and  C_16
REMARK    5  A    between atoms: C_16  and  O_18
REMARK    6  A    between atoms: O_18  and  C_19
REMARK    7  A    between atoms: C_19  and  C_21
REMARK    8  A    between atoms: C_19  and  C_27
REMARK    9  A    between atoms: N_29  and  C_30
REMARK   10  A    between atoms: C_33  and  C_36
REMARK                            x       y       z     vdW  Elec       q    Type
REMARK                         _______ _______ _______ _____ _____    ______ ____
ROOT
ATOM      1  O   UNL     1      -2.754   3.143   1.699  0.00  0.00    -0.446 OA
ENDROOT
BRANCH   1   2
ATOM      2  C   UNL     1      -1.657   2.412   1.447  0.00  0.00    +0.326 C 
ATOM      3  O   UNL     1      -1.004   1.968   2.361  0.00  0.00    -0.249 OA
BRANCH   2   4
ATOM      4  C   UNL     1      -1.242   2.143   0.024  0.00  0.00    +0.238 C 
BRANCH   4  13
ATOM      5  C   UNL     1       1.354  -3.330  -0.027  0.00  0.00    -0.011 C 
ATOM      6  C   UNL     1       1.000  -2.534   1.231  0.00  0.00    +0.006 C 
ATOM      7  C   UNL     1       1.788  -1.221   1.241  0.00  0.00    +0.035 C 
ATOM      8  C   UNL     1       1.446  -0.413  -0.006  0.00  0.00    +0.113 C 
ATOM      9  C   UNL     1       1.774  -1.202  -1.268  0.00  0.00    +0.035 C 
ATOM     10  C   UNL     1       0.986  -2.515  -1.269  0.00  0.00    +0.006 C 
ATOM     11  C   UNL     1      -0.014  -0.020   0.006  0.00  0.00    +0.247 C 
ATOM     12  O   UNL     1      -0.973  -0.761   0.006  0.00  0.00    -0.273 OA
ATOM     13  N   UNL     1      -0.024   1.329   0.016  0.00  0.00    -0.213 N 
ATOM     14  C   UNL     1       1.217   1.831   0.013  0.00  0.00    +0.310 C 
ATOM     15  O   UNL     1       1.465   3.021   0.020  0.00  0.00    -0.252 OA
ATOM     16  N   UNL     1       2.160   0.870  -0.000  0.00  0.00    -0.285 N 
ATOM     17  H   UNL     1       3.122   0.999  -0.005  0.00  0.00    +0.151 HD
BRANCH   5  19
ATOM     18  C   UNL     1       1.020  -5.498  -1.224  0.00  0.00    +0.004 C 
ATOM     19  C   UNL     1       0.575  -4.647  -0.033  0.00  0.00    -0.000 C 
ENDBRANCH   5  19
ENDBRANCH   4  13
ENDBRANCH   2   4
ENDBRANCH   1   2
BRANCH   1  20
ATOM     20  C   UNL     1      -3.095   3.362   3.094  0.00  0.00    +0.292 C 
BRANCH  20  21
ATOM     21  C   UNL     1      -4.002   2.256   3.568  0.00  0.00    +0.002 A 
ATOM     22  C   UNL     1      -4.935   1.710   2.706  0.00  0.00    +0.008 A 
ATOM     23  C   UNL     1      -5.764   0.693   3.140  0.00  0.00    +0.000 A 
ATOM     24  C   UNL     1      -5.668   0.229   4.439  0.00  0.00    +0.000 A 
ATOM     25  C   UNL     1      -4.739   0.778   5.302  0.00  0.00    +0.000 A 
ATOM     26  C   UNL     1      -3.906   1.792   4.867  0.00  0.00    +0.008 A 
ENDBRANCH  20  21
BRANCH  20  27
ATOM     27  C   UNL     1      -3.799   4.686   3.238  0.00  0.00    +0.263 C 
ATOM     28  O   UNL     1      -4.075   5.336   2.252  0.00  0.00    -0.271 OA
ATOM     29  N   UNL     1      -4.121   5.149   4.462  0.00  0.00    -0.282 N 
ATOM     30  H   UNL     1      -3.961   4.600   5.245  0.00  0.00    +0.155 HD
BRANCH  29  31
ATOM     31  C   UNL     1      -4.687   6.420   4.603  0.00  0.00    +0.034 A 
ATOM     32  C   UNL     1      -4.384   7.198   5.713  0.00  0.00    +0.023 A 
ATOM     33  C   UNL     1      -4.940   8.455   5.846  0.00  0.00    +0.005 A 
ATOM     34  C   UNL     1      -5.807   8.935   4.881  0.00  0.00    -0.050 A 
ATOM     35  C   UNL     1      -6.115   8.162   3.778  0.00  0.00    +0.005 A 
ATOM     36  C   UNL     1      -5.558   6.906   3.636  0.00  0.00    +0.023 A 
ATOM     37  C   UNL     1      -6.417  10.305   5.033  0.00  0.00    +0.044 C 
ENDBRANCH  29  31
ENDBRANCH  20  27
ENDBRANCH   1  20
TORSDOF 8
