REMARK  Name = ZINC09373123
REMARK  5 active torsions:
REMARK  status: ('A' for Active; 'I' for Inactive)
REMARK    1  A    between atoms: C_3  and  N_17
REMARK    2  A    between atoms: C_5  and  S_7
REMARK    3  A    between atoms: S_7  and  N_10
REMARK    4  A    between atoms: C_18  and  C_20
REMARK    5  A    between atoms: C_20  and  N_21
REMARK                            x       y       z     vdW  Elec       q    Type
REMARK                         _______ _______ _______ _____ _____    ______ ____
ROOT
ATOM      1  N   UNL     1      -0.011   0.966   0.007  0.00  0.00    -0.284 N 
ATOM      2  C   UNL     1       0.924   1.561  -0.759  0.00  0.00    +0.235 C 
ATOM      3  O   UNL     1       0.631   2.523  -1.437  0.00  0.00    -0.274 OA
ATOM      4  H   UNL     1       0.203   0.151   0.489  0.00  0.00    +0.155 HD
ENDROOT
BRANCH   1   7
ATOM      5  C   UNL     1      -2.727   3.441   0.146  0.00  0.00    +0.004 A 
ATOM      6  C   UNL     1      -1.460   2.897   0.055  0.00  0.00    +0.023 A 
ATOM      7  C   UNL     1      -1.292   1.520   0.104  0.00  0.00    +0.035 A 
ATOM      8  C   UNL     1      -2.398   0.694   0.254  0.00  0.00    +0.051 A 
ATOM      9  C   UNL     1      -3.662   1.244   0.350  0.00  0.00    +0.107 A 
ATOM     10  C   UNL     1      -3.826   2.616   0.296  0.00  0.00    +0.028 A 
BRANCH   9  11
ATOM     11  S   UNL     1      -5.065   0.196   0.541  0.00  0.00    +0.061 S 
ATOM     12  O   UNL     1      -6.185   0.926   0.059  0.00  0.00    -0.153 OA
ATOM     13  O   UNL     1      -4.700  -1.073   0.015  0.00  0.00    -0.153 OA
BRANCH  11  14
ATOM     14  N   UNL     1      -5.302  -0.015   2.166  0.00  0.00    -0.177 NA
ATOM     15  C   UNL     1      -4.649  -1.125   2.823  0.00  0.00    +0.109 C 
ATOM     16  C   UNL     1      -5.552  -2.374   2.767  0.00  0.00    +0.017 C 
ATOM     17  C   UNL     1      -6.708  -2.208   3.661  0.00  0.00    +0.001 C 
ATOM     18  C   UNL     1      -7.633  -1.054   3.285  0.00  0.00    +0.001 C 
ATOM     19  C   UNL     1      -7.104   0.226   3.885  0.00  0.00    +0.017 C 
ATOM     20  C   UNL     1      -6.175   0.935   2.883  0.00  0.00    +0.109 C 
ENDBRANCH  11  14
ENDBRANCH   9  11
ENDBRANCH   1   7
BRANCH   2  21
ATOM     21  C   UNL     1       2.335   1.031  -0.773  0.00  0.00    +0.214 C 
BRANCH  21  22
ATOM     22  N   UNL     1       3.153   1.844  -1.677  0.00  0.00    -0.215 N 
ATOM     23  C   UNL     1       3.839   2.942  -1.298  0.00  0.00    +0.247 C 
ATOM     24  O   UNL     1       3.895   3.425  -0.187  0.00  0.00    -0.273 OA
ATOM     25  C   UNL     1       4.524   3.442  -2.549  0.00  0.00    +0.113 C 
ATOM     26  C   UNL     1       6.038   3.419  -2.371  0.00  0.00    +0.035 C 
ATOM     27  C   UNL     1       6.714   3.901  -3.657  0.00  0.00    +0.003 C 
ATOM     28  C   UNL     1       6.243   5.322  -3.977  0.00  0.00    +0.000 C 
ATOM     29  C   UNL     1       4.726   5.324  -4.176  0.00  0.00    +0.003 C 
ATOM     30  C   UNL     1       4.042   4.847  -2.893  0.00  0.00    +0.035 C 
ATOM     31  N   UNL     1       4.113   2.488  -3.586  0.00  0.00    -0.285 N 
ATOM     32  C   UNL     1       3.317   1.586  -2.980  0.00  0.00    +0.310 C 
ATOM     33  O   UNL     1       2.802   0.646  -3.553  0.00  0.00    -0.252 OA
ATOM     34  H   UNL     1       4.367   2.502  -4.522  0.00  0.00    +0.151 HD
ENDBRANCH  21  22
ENDBRANCH   2  21
TORSDOF 5
