REMARK  Name = ZINC51367130
REMARK  7 active torsions:
REMARK  status: ('A' for Active; 'I' for Inactive)
REMARK    1  A    between atoms: C_1  and  C_2
REMARK    2  A    between atoms: C_2  and  O_3
REMARK    3  A    between atoms: O_3  and  C_4
REMARK    4  A    between atoms: C_9  and  C_10
REMARK    5  A    between atoms: C_12  and  C_30
REMARK    6  A    between atoms: C_13  and  N_29
REMARK    7  A    between atoms: C_20  and  C_23
REMARK                            x       y       z     vdW  Elec       q    Type
REMARK                         _______ _______ _______ _____ _____    ______ ____
ROOT
ATOM      1  C   UNL     1       1.990  -1.397  -3.491  0.00  0.00    +0.104 C 
ATOM      2  C   UNL     1       3.470  -1.631  -3.602  0.00  0.00    +0.098 C 
ATOM      3  C   UNL     1       3.978  -2.348  -4.634  0.00  0.00    +0.198 C 
ATOM      4  O   UNL     1       3.176  -2.867  -5.579  0.00  0.00    -0.445 OA
ATOM      5  C   UNL     1       1.944  -2.359  -5.778  0.00  0.00    +0.115 C 
ATOM      6  C   UNL     1       1.322  -1.654  -4.820  0.00  0.00    +0.046 C 
ATOM      7  C   UNL     1       0.029  -1.135  -5.024  0.00  0.00    +0.164 C 
ATOM      8  O   UNL     1      -0.501  -0.490  -4.142  0.00  0.00    -0.292 OA
ATOM      9  C   UNL     1      -0.709  -1.366  -6.315  0.00  0.00    +0.088 C 
ATOM     10  C   UNL     1      -0.227  -2.683  -6.933  0.00  0.00    +0.034 C 
ATOM     11  C   UNL     1       1.282  -2.602  -7.114  0.00  0.00    +0.083 C 
ENDROOT
BRANCH   1  17
ATOM     12  C   UNL     1       0.777  -1.810  -1.336  0.00  0.00    +0.125 A 
ATOM     13  C   UNL     1       0.243  -2.669  -0.386  0.00  0.00    +0.046 A 
ATOM     14  C   UNL     1       0.351  -4.036  -0.554  0.00  0.00    +0.004 A 
ATOM     15  C   UNL     1       0.991  -4.548  -1.667  0.00  0.00    +0.001 A 
ATOM     16  C   UNL     1       1.525  -3.695  -2.615  0.00  0.00    +0.008 A 
ATOM     17  C   UNL     1       1.414  -2.327  -2.455  0.00  0.00    +0.007 A 
BRANCH  12  18
ATOM     18  O   UNL     1       0.671  -0.465  -1.174  0.00  0.00    -0.492 OA
BRANCH  18  20
ATOM     19  C   UNL     1      -0.019   1.526   0.010  0.00  0.00    +0.048 C 
ATOM     20  C   UNL     1       0.002  -0.004   0.002  0.00  0.00    +0.225 C 
ENDBRANCH  18  20
ENDBRANCH  12  18
ENDBRANCH   1  17
BRANCH  10  21
ATOM     21  C   UNL     1      -0.890  -2.887  -8.270  0.00  0.00    -0.043 A 
ATOM     22  C   UNL     1      -0.705  -1.964  -9.282  0.00  0.00    +0.004 A 
ATOM     23  C   UNL     1      -1.314  -2.151 -10.509  0.00  0.00    +0.000 A 
ATOM     24  C   UNL     1      -2.108  -3.262 -10.724  0.00  0.00    +0.000 A 
ATOM     25  C   UNL     1      -2.293  -4.186  -9.713  0.00  0.00    +0.000 A 
ATOM     26  C   UNL     1      -1.680  -4.001  -8.487  0.00  0.00    +0.004 A 
ENDBRANCH  10  21
BRANCH   3  27
ATOM     27  N   UNL     1       5.334  -2.549  -4.715  0.00  0.00    -0.328 N 
ATOM     28  H   UNL     1       5.920  -2.178  -4.037  0.00  0.00    +0.145 HD
ATOM     29  H   UNL     1       5.705  -3.061  -5.451  0.00  0.00    +0.145 HD
ENDBRANCH   3  27
BRANCH   2  30
ATOM     30  C   UNL     1       4.351  -1.093  -2.610  0.00  0.00    +0.101 C 
ATOM     31  N   UNL     1       5.050  -0.665  -1.823  0.00  0.00    -0.191 NA
ENDBRANCH   2  30
TORSDOF 6
