REMARK  Name = ZINC20731199
REMARK  9 active torsions:
REMARK  status: ('A' for Active; 'I' for Inactive)
REMARK    1  A    between atoms: C_1  and  C_2
REMARK    2  A    between atoms: C_2  and  C_3
REMARK    3  A    between atoms: C_2  and  C_4
REMARK    4  A    between atoms: C_4  and  C_5
REMARK    5  A    between atoms: C_5  and  C_7
REMARK    6  A    between atoms: C_5  and  N_11
REMARK    7  A    between atoms: C_7  and  O_9
REMARK    8  A    between atoms: O_9  and  C_10
REMARK    9  A    between atoms: C_23  and  C_25
REMARK                            x       y       z     vdW  Elec       q    Type
REMARK                         _______ _______ _______ _____ _____    ______ ____
ROOT
ATOM      1  N   UNL     1      -2.066   1.490  -1.150  0.00  0.00    -0.286 N 
ATOM      2  C   UNL     1      -0.954   2.078  -1.635  0.00  0.00    +0.304 C 
ATOM      3  O   UNL     1      -0.065   1.399  -2.109  0.00  0.00    -0.253 OA
ATOM      4  N   UNL     1      -0.829   3.420  -1.595  0.00  0.00    -0.273 N 
ATOM      5  C   UNL     1      -1.839   4.252  -0.923  0.00  0.00    +0.116 C 
ATOM      6  C   UNL     1      -1.194   4.957   0.276  0.00  0.00    +0.076 C 
ATOM      7  C   UNL     1       0.136   5.526  -0.151  0.00  0.00    +0.066 A 
ATOM      8  C   UNL     1       0.811   5.140  -1.256  0.00  0.00    +0.064 A 
ATOM      9  N   UNL     1       1.959   5.869  -1.302  0.00  0.00    -0.346 N 
ATOM     10  H   UNL     1       2.651   5.814  -1.980  0.00  0.00    +0.167 HD
ATOM     11  C   UNL     1       1.952   6.686  -0.223  0.00  0.00    +0.197 A 
ATOM     12  N   UNL     1       0.857   6.473   0.458  0.00  0.00    -0.240 NA
ATOM     13  C   UNL     1       0.327   4.090  -2.218  0.00  0.00    +0.156 C 
ATOM     14  H   UNL     1      -2.806   2.035  -0.838  0.00  0.00    +0.151 HD
ENDROOT
BRANCH  13  15
ATOM     15  C   UNL     1      -0.093   4.740  -3.511  0.00  0.00    -0.020 A 
ATOM     16  C   UNL     1      -1.012   5.773  -3.499  0.00  0.00    +0.006 A 
ATOM     17  C   UNL     1      -1.398   6.369  -4.685  0.00  0.00    +0.002 A 
ATOM     18  C   UNL     1      -0.864   5.934  -5.884  0.00  0.00    +0.020 A 
ATOM     19  C   UNL     1       0.056   4.901  -5.896  0.00  0.00    +0.041 A 
ATOM     20  C   UNL     1       0.446   4.308  -4.708  0.00  0.00    +0.025 A 
ATOM     21 CL   UNL     1       0.726   4.353  -7.401  0.00  0.00    -0.084 Cl
ENDBRANCH  13  15
BRANCH   1  22
ATOM     22  C   UNL     1      -2.156   0.029  -1.093  0.00  0.00    +0.183 C 
BRANCH  22  23
ATOM     23  C   UNL     1      -3.604  -0.382  -1.014  0.00  0.00    +0.327 C 
ATOM     24  O   UNL     1      -4.471   0.460  -1.007  0.00  0.00    -0.249 OA
BRANCH  23  25
ATOM     25  O   UNL     1      -3.930  -1.682  -0.952  0.00  0.00    -0.467 OA
ATOM     26  C   UNL     1      -5.322  -1.999  -0.880  0.00  0.00    +0.280 C 
ENDBRANCH  23  25
ENDBRANCH  22  23
BRANCH  22  27
ATOM     27  C   UNL     1      -1.414  -0.479   0.145  0.00  0.00    +0.036 C 
BRANCH  27  29
ATOM     28  C   UNL     1      -0.515  -2.462  -1.082  0.00  0.00    +0.007 C 
ATOM     29  C   UNL     1      -1.357  -2.008   0.113  0.00  0.00    -0.015 C 
ATOM     30  C   UNL     1      -0.724  -2.522   1.407  0.00  0.00    +0.007 C 
ENDBRANCH  27  29
ENDBRANCH  22  27
ENDBRANCH   1  22
TORSDOF 6
