REMARK  Name = ZINC41585046
REMARK  7 active torsions:
REMARK  status: ('A' for Active; 'I' for Inactive)
REMARK    1  A    between atoms: C_6  and  C_7
REMARK    2  A    between atoms: C_7  and  C_8
REMARK    3  A    between atoms: C_12  and  O_34
REMARK    4  A    between atoms: C_13  and  C_17
REMARK    5  A    between atoms: C_17  and  N_18
REMARK    6  A    between atoms: N_21  and  C_24
REMARK    7  A    between atoms: C_24  and  C_25
REMARK                            x       y       z     vdW  Elec       q    Type
REMARK                         _______ _______ _______ _____ _____    ______ ____
ROOT
ATOM      1  C   UNL     1      -1.738  -1.024  -1.407  0.00  0.00    +0.096 A 
ATOM      2  C   UNL     1      -2.594  -0.150  -2.213  0.00  0.00    +0.045 A 
ATOM      3  C   UNL     1      -3.221   1.075  -1.972  0.00  0.00    +0.017 A 
ATOM      4  C   UNL     1      -3.976   1.657  -2.950  0.00  0.00    +0.046 A 
ATOM      5  C   UNL     1      -4.126   1.037  -4.188  0.00  0.00    +0.125 A 
ATOM      6  C   UNL     1      -3.513  -0.176  -4.445  0.00  0.00    +0.053 A 
ATOM      7  C   UNL     1      -2.742  -0.780  -3.461  0.00  0.00    +0.175 A 
ATOM      8  O   UNL     1      -2.039  -1.930  -3.410  0.00  0.00    -0.354 OA
ATOM      9  N   UNL     1      -1.430  -2.050  -2.140  0.00  0.00    -0.082 NA
ENDROOT
BRANCH   5  10
ATOM     10  O   UNL     1      -4.880   1.628  -5.151  0.00  0.00    -0.506 OA
ATOM     11  H   UNL     1      -4.384   2.224  -5.729  0.00  0.00    +0.292 HD
ENDBRANCH   5  10
BRANCH   1  12
ATOM     12  C   UNL     1      -1.293  -0.775   0.011  0.00  0.00    +0.094 C 
BRANCH  12  18
ATOM     13  C   UNL     1      -0.017   1.378   0.010  0.00  0.00    +0.005 A 
ATOM     14  C   UNL     1       1.171   2.086   0.002  0.00  0.00    +0.020 A 
ATOM     15  C   UNL     1       2.378   1.410  -0.013  0.00  0.00    +0.041 A 
ATOM     16  C   UNL     1       2.396   0.027  -0.021  0.00  0.00    +0.020 A 
ATOM     17  C   UNL     1       1.208  -0.679  -0.013  0.00  0.00    +0.005 A 
ATOM     18  C   UNL     1       0.002  -0.004   0.002  0.00  0.00    -0.041 A 
ATOM     19 CL   UNL     1       3.870   2.298  -0.023  0.00  0.00    -0.084 Cl
ENDBRANCH  12  18
ENDBRANCH   1  12
BRANCH   6  20
ATOM     20  C   UNL     1      -3.681  -0.840  -5.787  0.00  0.00    +0.127 C 
BRANCH  20  21
ATOM     21  N   UNL     1      -2.616  -0.391  -6.693  0.00  0.00    -0.301 NA
ATOM     22  C   UNL     1      -1.302  -0.865  -6.237  0.00  0.00    +0.066 C 
ATOM     23  C   UNL     1      -0.216  -0.327  -7.171  0.00  0.00    -0.063 C 
ATOM     24  N   UNL     1      -0.474  -0.791  -8.541  0.00  0.00    +0.384 N 
ATOM     25  C   UNL     1      -1.779  -0.289  -8.991  0.00  0.00    -0.063 C 
ATOM     26  C   UNL     1      -2.878  -0.826  -8.072  0.00  0.00    +0.066 C 
ATOM     27  H   UNL     1      -0.478  -1.800  -8.559  0.00  0.00    -0.081 HD
BRANCH  24  28
ATOM     28  C   UNL     1       0.578  -0.289  -9.434  0.00  0.00    -0.043 C 
BRANCH  28  29
ATOM     29  C   UNL     1       0.382  -0.864 -10.813  0.00  0.00    -0.060 A 
ATOM     30  C   UNL     1       0.980  -2.064 -11.152  0.00  0.00    +0.005 A 
ATOM     31  C   UNL     1       0.803  -2.595 -12.416  0.00  0.00    +0.050 A 
ATOM     32  C   UNL     1       0.026  -1.926 -13.347  0.00  0.00    +0.166 A 
ATOM     33  C   UNL     1      -0.576  -0.717 -13.006  0.00  0.00    +0.166 A 
ATOM     34  C   UNL     1      -0.399  -0.193 -11.736  0.00  0.00    +0.051 A 
ATOM     35  O   UNL     1      -1.281  -0.262 -14.083  0.00  0.00    -0.453 OA
ATOM     36  C   UNL     1      -0.772  -0.995 -15.213  0.00  0.00    +0.466 C 
ATOM     37  O   UNL     1      -0.301  -2.228 -14.637  0.00  0.00    -0.453 OA
ENDBRANCH  28  29
ENDBRANCH  24  28
ENDBRANCH  20  21
ENDBRANCH   6  20
TORSDOF 7
