REMARK  Name = ZINC09332424
REMARK  6 active torsions:
REMARK  status: ('A' for Active; 'I' for Inactive)
REMARK    1  A    between atoms: C_1  and  C_2
REMARK    2  A    between atoms: C_2  and  O_4
REMARK    3  A    between atoms: O_4  and  C_5
REMARK    4  A    between atoms: C_8  and  C_11
REMARK    5  A    between atoms: C_11  and  C_13
REMARK    6  A    between atoms: N_31  and  C_34
REMARK                            x       y       z     vdW  Elec       q    Type
REMARK                         _______ _______ _______ _____ _____    ______ ____
ROOT
ATOM      1  C   UNL     1      -4.656   4.019   6.320  0.00  0.00    +0.141 C 
ATOM      2  C   UNL     1      -5.811   3.044   6.009  0.00  0.00    +0.116 C 
ATOM      3  C   UNL     1      -7.075   3.798   6.518  0.00  0.00    +0.113 C 
ATOM      4  C   UNL     1      -6.553   4.818   7.531  0.00  0.00    +0.100 C 
ATOM      5  C   UNL     1      -4.286   5.361   8.470  0.00  0.00    +0.054 C 
ATOM      6  C   UNL     1      -4.774   5.349   9.725  0.00  0.00    +0.022 C 
ATOM      7  C   UNL     1      -6.083   4.718   9.988  0.00  0.00    -0.019 A 
ATOM      8  C   UNL     1      -6.968   4.457   8.934  0.00  0.00    -0.021 A 
ATOM      9  C   UNL     1      -8.188   3.874   9.184  0.00  0.00    +0.006 A 
ATOM     10  C   UNL     1      -8.544   3.542  10.481  0.00  0.00    +0.000 A 
ATOM     11  C   UNL     1      -7.676   3.792  11.528  0.00  0.00    +0.001 A 
ATOM     12  C   UNL     1      -6.449   4.377  11.291  0.00  0.00    +0.008 A 
ATOM     13  C   UNL     1      -7.563   4.511   5.273  0.00  0.00    +0.232 C 
ATOM     14  O   UNL     1      -8.344   5.438   5.249  0.00  0.00    -0.274 OA
ATOM     15  N   UNL     1      -6.967   3.934   4.201  0.00  0.00    -0.208 N 
ATOM     16  C   UNL     1      -6.039   3.016   4.510  0.00  0.00    +0.232 C 
ATOM     17  O   UNL     1      -5.476   2.287   3.722  0.00  0.00    -0.274 OA
ATOM     18  N   UNL     1      -5.158   5.052   7.263  0.00  0.00    -0.384 NA
ATOM     19  H   UNL     1      -5.143   5.925   6.723  0.00  0.00    +0.127 HD
ENDROOT
BRANCH  15  20
ATOM     20  C   UNL     1      -7.303   4.263   2.880  0.00  0.00    +0.062 A 
ATOM     21  C   UNL     1      -8.310   3.569   2.224  0.00  0.00    +0.025 A 
ATOM     22  C   UNL     1      -8.641   3.898   0.924  0.00  0.00    +0.002 A 
ATOM     23  C   UNL     1      -7.964   4.912   0.272  0.00  0.00    +0.002 A 
ATOM     24  C   UNL     1      -6.956   5.602   0.919  0.00  0.00    +0.022 A 
ATOM     25  C   UNL     1      -6.623   5.281   2.222  0.00  0.00    +0.063 A 
ATOM     26 CL   UNL     1      -5.357   6.148   3.034  0.00  0.00    -0.082 Cl
ENDBRANCH  15  20
BRANCH   1  27
ATOM     27  C   UNL     1      -3.397   3.250   6.630  0.00  0.00    +0.183 C 
ATOM     28  O   UNL     1      -3.067   3.067   7.782  0.00  0.00    -0.290 OA
BRANCH  27  32
ATOM     29  C   UNL     1      -1.008   1.732   3.472  0.00  0.00    +0.132 A 
ATOM     30  C   UNL     1      -2.167   2.445   3.183  0.00  0.00    +0.047 A 
ATOM     31  C   UNL     1      -2.948   2.936   4.205  0.00  0.00    +0.015 A 
ATOM     32  C   UNL     1      -2.570   2.724   5.536  0.00  0.00    +0.019 A 
ATOM     33  C   UNL     1      -1.400   2.010   5.821  0.00  0.00    +0.015 A 
ATOM     34  C   UNL     1      -0.628   1.520   4.793  0.00  0.00    +0.047 A 
BRANCH  29  35
ATOM     35  O   UNL     1      -0.243   1.247   2.462  0.00  0.00    -0.426 OA
BRANCH  35  37
ATOM     36  C   UNL     1       0.395  -0.658   1.025  0.00  0.00    +0.136 C 
ATOM     37  C   UNL     1      -0.339  -0.067   2.201  0.00  0.00    +0.309 C 
ATOM     38  O   UNL     1      -1.013  -0.776   2.911  0.00  0.00    -0.251 OA
ENDBRANCH  35  37
ENDBRANCH  29  35
ENDBRANCH  27  32
ENDBRANCH   1  27
TORSDOF 5
