REMARK  Name = ZINC04134568
REMARK  3 active torsions:
REMARK  status: ('A' for Active; 'I' for Inactive)
REMARK    1  A    between atoms: C_4  and  S_14
REMARK    2  A    between atoms: S_14  and  N_17
REMARK    3  A    between atoms: N_17  and  C_18
REMARK                            x       y       z     vdW  Elec       q    Type
REMARK                         _______ _______ _______ _____ _____    ______ ____
ROOT
ATOM      1  C   UNL     1      -0.992   3.002   2.866  0.00  0.00    +0.001 A 
ATOM      2  C   UNL     1       0.036   3.689   2.276  0.00  0.00    +0.010 A 
ATOM      3  C   UNL     1       1.139   4.068   3.060  0.00  0.00    +0.011 A 
ATOM      4  C   UNL     1       2.266   4.772   2.605  0.00  0.00    +0.116 A 
ATOM      5  C   UNL     1       3.260   5.061   3.500  0.00  0.00    +0.031 A 
ATOM      6  C   UNL     1       3.206   4.700   4.846  0.00  0.00    +0.026 A 
ATOM      7  C   UNL     1       2.113   4.006   5.332  0.00  0.00    +0.042 A 
ATOM      8  C   UNL     1       1.113   3.715   4.410  0.00  0.00    +0.017 A 
ATOM      9  C   UNL     1       0.065   3.013   5.023  0.00  0.00    +0.047 A 
ATOM     10  C   UNL     1      -1.002   2.658   4.217  0.00  0.00    +0.014 A 
ATOM     11  C   UNL     1       0.489   2.883   6.423  0.00  0.00    +0.249 C 
ATOM     12  O   UNL     1      -0.135   2.334   7.311  0.00  0.00    -0.270 OA
ATOM     13  N   UNL     1       1.701   3.484   6.552  0.00  0.00    -0.281 N 
ATOM     14  H   UNL     1       2.207   3.540   7.378  0.00  0.00    +0.155 HD
ENDROOT
BRANCH   4  15
ATOM     15  S   UNL     1       2.401   5.266   0.919  0.00  0.00    +0.073 S 
ATOM     16  O   UNL     1       3.672   5.884   0.777  0.00  0.00    -0.150 OA
ATOM     17  O   UNL     1       1.189   5.934   0.594  0.00  0.00    -0.150 OA
BRANCH  15  18
ATOM     18  N   UNL     1       2.440   3.885   0.006  0.00  0.00    -0.215 N 
ATOM     19  H   UNL     1       1.700   3.672  -0.583  0.00  0.00    +0.174 HD
BRANCH  18  20
ATOM     20  C   UNL     1       3.541   3.028   0.084  0.00  0.00    +0.068 A 
ATOM     21  C   UNL     1       4.199   2.848   1.294  0.00  0.00    +0.046 A 
ATOM     22  C   UNL     1       5.287   1.999   1.367  0.00  0.00    +0.043 A 
ATOM     23  C   UNL     1       5.718   1.325   0.237  0.00  0.00    +0.021 A 
ATOM     24  C   UNL     1       5.069   1.506  -0.969  0.00  0.00    +0.023 A 
ATOM     25  C   UNL     1       3.980   2.353  -1.050  0.00  0.00    +0.063 A 
ATOM     26 CL   UNL     1       3.161   2.575  -2.564  0.00  0.00    -0.082 Cl
ATOM     27 CL   UNL     1       6.110   1.773   2.878  0.00  0.00    -0.083 Cl
ENDBRANCH  18  20
ENDBRANCH  15  18
ENDBRANCH   4  15
TORSDOF 3
