REMARK  Name = ZINC08635458
REMARK  11 active torsions:
REMARK  status: ('A' for Active; 'I' for Inactive)
REMARK    1  A    between atoms: C_1  and  C_2
REMARK    2  A    between atoms: C_2  and  C_3
REMARK    3  A    between atoms: C_2  and  C_4
REMARK    4  A    between atoms: C_4  and  N_5
REMARK    5  A    between atoms: N_5  and  C_6
REMARK    6  A    between atoms: C_6  and  N_8
REMARK    7  A    between atoms: N_8  and  C_9
REMARK    8  A    between atoms: C_9  and  C_10
REMARK    9  A    between atoms: C_18  and  C_20
REMARK   10  A    between atoms: C_22  and  C_26
REMARK   11  A    between atoms: N_24  and  C_25
REMARK                            x       y       z     vdW  Elec       q    Type
REMARK                         _______ _______ _______ _____ _____    ______ ____
ROOT
ATOM      1  C   UNL     1       2.831  -0.498   1.336  0.00  0.00    -0.051 C 
ATOM      2  C   UNL     1       2.795   1.015   1.565  0.00  0.00    -0.010 C 
ATOM      3  C   UNL     1       1.795   1.641   0.584  0.00  0.00    -0.007 C 
ATOM      4  C   UNL     1       0.416   1.014   0.825  0.00  0.00    -0.015 C 
ATOM      5  C   UNL     1       0.517  -0.499   0.617  0.00  0.00    -0.078 C 
ATOM      6  C   UNL     1       2.292  -0.212  -1.007  0.00  0.00    -0.068 C 
ATOM      7  C   UNL     1       2.240   1.309  -0.846  0.00  0.00    +0.024 C 
ATOM      8  N   UNL     1       1.899  -0.879   0.253  0.00  0.00    +0.383 N 
ATOM      9  H   UNL     1       1.941  -1.896   0.119  0.00  0.00    -0.081 HD
ENDROOT
BRANCH   7  10
ATOM     10  C   UNL     1       3.608   1.891  -1.097  0.00  0.00    +0.041 A 
ATOM     11  C   UNL     1       4.637   1.269  -1.718  0.00  0.00    +0.048 A 
ATOM     12  C   UNL     1       5.720   2.154  -1.746  0.00  0.00    +0.066 A 
ATOM     13  N   UNL     1       5.356   3.263  -1.155  0.00  0.00    -0.176 NA
ATOM     14  N   UNL     1       4.027   3.122  -0.737  0.00  0.00    -0.271 N 
ATOM     15  C   UNL     1       3.233   4.131  -0.032  0.00  0.00    +0.172 C 
BRANCH  12  16
ATOM     16  C   UNL     1       7.073   1.875  -2.348  0.00  0.00    +0.040 C 
ATOM     17  C   UNL     1       6.928   0.938  -3.564  0.00  0.00    +0.010 C 
ATOM     18  C   UNL     1       8.171   0.018  -3.486  0.00  0.00    +0.001 C 
ATOM     19  C   UNL     1       8.325  -0.220  -1.963  0.00  0.00    +0.001 C 
ATOM     20  C   UNL     1       7.961   1.139  -1.329  0.00  0.00    +0.010 C 
ENDBRANCH  12  16
ENDBRANCH   7  10
BRANCH   1  21
ATOM     21  C   UNL     1       4.248  -0.922   0.944  0.00  0.00    +0.088 C 
BRANCH  21  22
ATOM     22  N   UNL     1       4.256  -2.347   0.607  0.00  0.00    -0.328 N 
ATOM     23  H   UNL     1       3.435  -2.862   0.655  0.00  0.00    +0.148 HD
BRANCH  22  24
ATOM     24  C   UNL     1       5.404  -2.944   0.229  0.00  0.00    +0.130 C 
ATOM     25  S   UNL     1       6.853  -2.036   0.144  0.00  0.00    -0.019 S 
BRANCH  24  26
ATOM     26  N   UNL     1       5.411  -4.256  -0.081  0.00  0.00    -0.326 N 
ATOM     27  H   UNL     1       4.590  -4.770  -0.033  0.00  0.00    +0.148 HD
BRANCH  26  28
ATOM     28  C   UNL     1       6.659  -4.904  -0.491  0.00  0.00    +0.106 C 
BRANCH  28  30
ATOM     29  C   UNL     1       5.459  -6.503  -1.990  0.00  0.00    +0.009 C 
ATOM     30  C   UNL     1       6.393  -6.382  -0.785  0.00  0.00    -0.000 C 
ATOM     31  C   UNL     1       7.716  -7.087  -1.092  0.00  0.00    +0.009 C 
ENDBRANCH  28  30
ENDBRANCH  26  28
ENDBRANCH  24  26
ENDBRANCH  22  24
ENDBRANCH  21  22
ENDBRANCH   1  21
TORSDOF 8
