REMARK  Name = ZINC08661880
REMARK  6 active torsions:
REMARK  status: ('A' for Active; 'I' for Inactive)
REMARK    1  A    between atoms: N_15  and  C_17
REMARK    2  A    between atoms: C_20  and  C_26
REMARK    3  A    between atoms: C_22  and  N_23
REMARK    4  A    between atoms: N_28  and  C_29
REMARK    5  A    between atoms: C_29  and  C_30
REMARK    6  A    between atoms: C_30  and  C_31
REMARK                            x       y       z     vdW  Elec       q    Type
REMARK                         _______ _______ _______ _____ _____    ______ ____
ROOT
ATOM      1  C   UNL     1      -0.228   1.035  -2.346  0.00  0.00    +0.060 A 
ATOM      2  C   UNL     1      -0.206  -0.347  -2.518  0.00  0.00    +0.026 A 
ATOM      3  C   UNL     1       0.315  -0.890  -3.671  0.00  0.00    +0.015 A 
ATOM      4  C   UNL     1       0.831  -0.053  -4.665  0.00  0.00    +0.039 A 
ATOM      5  C   UNL     1       0.812   1.333  -4.487  0.00  0.00    +0.047 A 
ATOM      6  C   UNL     1       0.286   1.871  -3.334  0.00  0.00    +0.148 A 
ENDROOT
BRANCH   1  19
ATOM      7  C   UNL     1      -2.906   5.668  -0.932  0.00  0.00    +0.007 A 
ATOM      8  C   UNL     1      -3.232   4.331  -0.680  0.00  0.00    +0.022 A 
ATOM      9  C   UNL     1      -2.355   3.516  -0.036  0.00  0.00    +0.027 A 
ATOM     10  N   UNL     1      -1.179   4.000   0.425  0.00  0.00    -0.312 N 
ATOM     11  C   UNL     1      -0.801   5.265   0.114  0.00  0.00    +0.251 A 
ATOM     12  O   UNL     1       0.318   5.652   0.411  0.00  0.00    -0.268 OA
ATOM     13  C   UNL     1      -1.683   6.133  -0.544  0.00  0.00    +0.070 A 
ATOM     14  C   UNL     1      -0.291   3.243   1.310  0.00  0.00    +0.130 C 
ATOM     15  C   UNL     1      -0.572   1.750   1.268  0.00  0.00    +0.027 C 
ATOM     16  C   UNL     1      -2.079   1.511   1.399  0.00  0.00    +0.018 C 
ATOM     17  C   UNL     1      -2.747   2.066   0.136  0.00  0.00    +0.053 C 
ATOM     18  C   UNL     1      -2.196   1.291  -1.073  0.00  0.00    +0.114 C 
ATOM     19  N   UNL     1      -0.758   1.581  -1.183  0.00  0.00    -0.327 N 
ATOM     20  C   UNL     1      -0.031   1.107  -0.001  0.00  0.00    +0.110 C 
ENDBRANCH   1  19
BRANCH   4  21
ATOM     21  C   UNL     1       1.394  -0.632  -5.899  0.00  0.00    +0.244 C 
ATOM     22  O   UNL     1       1.843   0.097  -6.763  0.00  0.00    -0.270 OA
ATOM     23  N   UNL     1       1.412  -1.969  -6.069  0.00  0.00    -0.311 N 
ATOM     24  H   UNL     1       1.054  -2.550  -5.380  0.00  0.00    +0.149 HD
BRANCH  23  25
ATOM     25  C   UNL     1       1.971  -2.544  -7.295  0.00  0.00    +0.109 C 
BRANCH  25  26
ATOM     26  C   UNL     1       1.869  -4.070  -7.235  0.00  0.00    +0.049 C 
BRANCH  26  27
ATOM     27  C   UNL     1       2.445  -4.661  -8.496  0.00  0.00    -0.072 C 
ATOM     28  C   UNL     1       3.683  -5.040  -8.478  0.00  0.00    -0.028 C 
ATOM     29  C   UNL     1       4.396  -5.637  -9.656  0.00  0.00    +0.027 C 
ATOM     30  C   UNL     1       3.383  -6.117 -10.698  0.00  0.00    +0.004 C 
ATOM     31  C   UNL     1       2.382  -4.984 -10.959  0.00  0.00    +0.005 C 
ATOM     32  C   UNL     1       1.546  -4.780  -9.692  0.00  0.00    +0.030 C 
ENDBRANCH  26  27
ENDBRANCH  25  26
ENDBRANCH  23  25
ENDBRANCH   4  21
BRANCH   6  33
ATOM     33  N   UNL     1       0.266   3.338  -3.145  0.00  0.00    +0.058 N 
ATOM     34  O   UNL     1       0.621   4.074  -4.048  0.00  0.00    -0.126 OA
ATOM     35  O   UNL     1      -0.106   3.811  -2.085  0.00  0.00    -0.126 OA
ENDBRANCH   6  33
TORSDOF 6
