REMARK  Name = ZINC24834070
REMARK  6 active torsions:
REMARK  status: ('A' for Active; 'I' for Inactive)
REMARK    1  A    between atoms: C_1  and  C_2
REMARK    2  A    between atoms: C_3  and  C_15
REMARK    3  A    between atoms: C_4  and  C_10
REMARK    4  A    between atoms: C_17  and  C_20
REMARK    5  A    between atoms: C_23  and  O_26
REMARK    6  A    between atoms: O_26  and  C_27
REMARK                            x       y       z     vdW  Elec       q    Type
REMARK                         _______ _______ _______ _____ _____    ______ ____
ROOT
ATOM      1  C   UNL     1      -1.661  -3.114   3.143  0.00  0.00    +0.061 C 
ATOM      2  C   UNL     1      -1.444  -2.645   1.727  0.00  0.00    +0.017 C 
ATOM      3  C   UNL     1      -1.673  -1.356   1.413  0.00  0.00    +0.061 C 
ATOM      4  C   UNL     1      -1.442  -0.926  -0.021  0.00  0.00    +0.175 C 
ATOM      5  N   UNL     1      -0.983  -1.961  -0.963  0.00  0.00    -0.313 N 
ATOM      6  C   UNL     1      -0.797  -3.213  -0.501  0.00  0.00    +0.135 C 
ATOM      7  S   UNL     1      -0.264  -4.426  -1.585  0.00  0.00    -0.019 S 
ATOM      8  N   UNL     1      -1.016  -3.538   0.779  0.00  0.00    -0.300 N 
ATOM      9  H   UNL     1      -0.799  -1.704  -2.016  0.00  0.00    +0.149 HD
ATOM     10  H   UNL     1      -0.834  -4.588   1.055  0.00  0.00    +0.154 HD
ENDROOT
BRANCH   4  11
ATOM     11  C   UNL     1      -0.422   0.182  -0.016  0.00  0.00    +0.130 A 
ATOM     12  C   UNL     1      -0.691   1.500  -0.042  0.00  0.00    +0.047 A 
ATOM     13  C   UNL     1       0.552   2.173  -0.024  0.00  0.00    +0.041 A 
ATOM     14  C   UNL     1       1.507   1.226   0.012  0.00  0.00    +0.195 A 
ATOM     15  O   UNL     1       0.911   0.023   0.017  0.00  0.00    -0.466 OA
ENDBRANCH   4  11
BRANCH   3  16
ATOM     16  C   UNL     1      -2.130  -0.402   2.424  0.00  0.00    +0.258 A 
ATOM     17  N   UNL     1      -2.281   0.905   2.266  0.00  0.00    -0.187 NA
ATOM     18  C   UNL     1      -2.718   1.363   3.457  0.00  0.00    +0.202 A 
ATOM     19  N   UNL     1      -2.809   0.336   4.263  0.00  0.00    -0.056 NA
ATOM     20  O   UNL     1      -2.482  -0.682   3.691  0.00  0.00    -0.333 OA
BRANCH  18  21
ATOM     21  C   UNL     1      -3.037   2.773   3.792  0.00  0.00    +0.023 A 
ATOM     22  C   UNL     1      -2.887   3.770   2.830  0.00  0.00    +0.015 A 
ATOM     23  C   UNL     1      -3.189   5.079   3.143  0.00  0.00    +0.046 A 
ATOM     24  C   UNL     1      -3.632   5.405   4.418  0.00  0.00    +0.120 A 
ATOM     25  C   UNL     1      -3.776   4.414   5.380  0.00  0.00    +0.046 A 
ATOM     26  C   UNL     1      -3.481   3.103   5.071  0.00  0.00    +0.015 A 
BRANCH  24  27
ATOM     27  O   UNL     1      -3.924   6.695   4.725  0.00  0.00    -0.495 OA
ATOM     28  C   UNL     1      -3.753   7.663   3.688  0.00  0.00    +0.277 C 
ENDBRANCH  24  27
ENDBRANCH  18  21
ENDBRANCH   3  16
TORSDOF 4
