REMARK  Name = ZINC39664121
REMARK  9 active torsions:
REMARK  status: ('A' for Active; 'I' for Inactive)
REMARK    1  A    between atoms: C_1  and  N_2
REMARK    2  A    between atoms: C_6  and  C_7
REMARK    3  A    between atoms: C_11  and  C_20
REMARK    4  A    between atoms: N_22  and  C_23
REMARK    5  A    between atoms: C_23  and  C_24
REMARK    6  A    between atoms: C_24  and  C_26
REMARK    7  A    between atoms: C_24  and  N_34
REMARK    8  A    between atoms: C_29  and  O_32
REMARK    9  A    between atoms: O_32  and  C_33
REMARK                            x       y       z     vdW  Elec       q    Type
REMARK                         _______ _______ _______ _____ _____    ______ ____
ROOT
ATOM      1  C   UNL     1      -0.164  -0.368   2.549  0.00  0.00    +0.263 C 
ATOM      2  O   UNL     1       0.007  -1.111   3.497  0.00  0.00    -0.268 OA
ATOM      3  N   UNL     1      -0.329   0.955   2.749  0.00  0.00    -0.295 N 
ATOM      4  C   UNL     1      -0.688   1.987   1.749  0.00  0.00    +0.121 C 
ATOM      5  C   UNL     1      -1.664   2.928   2.491  0.00  0.00    +0.100 C 
ATOM      6  C   UNL     1      -1.333   2.739   3.981  0.00  0.00    -0.004 C 
ATOM      7  C   UNL     1      -0.200   1.704   4.022  0.00  0.00    +0.115 C 
ATOM      8  C   UNL     1      -2.552   2.208   4.730  0.00  0.00    -0.010 C 
ATOM      9  C   UNL     1      -2.216   2.083   6.219  0.00  0.00    -0.082 C 
ATOM     10  N   UNL     1      -1.826   3.396   6.746  0.00  0.00    +0.379 N 
ATOM     11  C   UNL     1      -0.600   3.858   6.085  0.00  0.00    -0.082 C 
ATOM     12  C   UNL     1      -0.867   4.058   4.591  0.00  0.00    -0.010 C 
ATOM     13  H   UNL     1      -2.568   4.059   6.577  0.00  0.00    -0.086 HD
ATOM     14  H   UNL     1      -1.664   3.324   7.740  0.00  0.00    -0.086 HD
ENDROOT
BRANCH   1  20
ATOM     15  C   UNL     1      -0.156  -3.369   1.781  0.00  0.00    +0.149 C 
ATOM     16  N   UNL     1      -0.186  -2.245   0.842  0.00  0.00    -0.346 N 
ATOM     17  C   UNL     1      -0.220  -2.343  -0.509  0.00  0.00    +0.086 A 
ATOM     18  C   UNL     1      -0.240  -1.097  -1.039  0.00  0.00    +0.020 A 
ATOM     19  C   UNL     1      -0.218  -0.181   0.018  0.00  0.00    +0.032 A 
ATOM     20  C   UNL     1      -0.189  -0.912   1.187  0.00  0.00    +0.104 A 
ENDBRANCH   1  20
BRANCH   5  21
ATOM     21  C   UNL     1      -1.432   4.358   2.077  0.00  0.00    +0.218 C 
ATOM     22  O   UNL     1      -0.319   4.726   1.766  0.00  0.00    -0.275 OA
ATOM     23  N   UNL     1      -2.461   5.228   2.051  0.00  0.00    -0.316 N 
ATOM     24  H   UNL     1      -3.351   4.933   2.300  0.00  0.00    +0.149 HD
BRANCH  23  25
ATOM     25  C   UNL     1      -2.235   6.618   1.649  0.00  0.00    +0.093 C 
BRANCH  25  26
ATOM     26  C   UNL     1      -3.534   7.412   1.806  0.00  0.00    -0.020 C 
BRANCH  26  27
ATOM     27  C   UNL     1      -4.558   6.898   0.828  0.00  0.00    -0.059 A 
ATOM     28  C   UNL     1      -4.509   7.295  -0.496  0.00  0.00    +0.005 A 
ATOM     29  C   UNL     1      -5.448   6.826  -1.394  0.00  0.00    +0.046 A 
ATOM     30  C   UNL     1      -6.439   5.955  -0.968  0.00  0.00    +0.120 A 
ATOM     31  C   UNL     1      -6.486   5.557   0.360  0.00  0.00    +0.046 A 
ATOM     32  C   UNL     1      -5.542   6.025   1.254  0.00  0.00    +0.005 A 
BRANCH  30  33
ATOM     33  O   UNL     1      -7.364   5.492  -1.850  0.00  0.00    -0.495 OA
ATOM     34  C   UNL     1      -8.356   4.598  -1.341  0.00  0.00    +0.277 C 
ENDBRANCH  30  33
ENDBRANCH  26  27
BRANCH  26  35
ATOM     35  N   UNL     1      -3.274   8.833   1.541  0.00  0.00    +0.385 N 
ATOM     36  C   UNL     1      -4.516   9.625   1.730  0.00  0.00    -0.078 C 
ATOM     37  C   UNL     1      -3.988  11.060   1.978  0.00  0.00    -0.020 C 
ATOM     38  C   UNL     1      -2.716  10.819   2.822  0.00  0.00    -0.020 C 
ATOM     39  C   UNL     1      -2.304   9.366   2.523  0.00  0.00    -0.078 C 
ATOM     40  H   UNL     1      -2.922   8.954   0.604  0.00  0.00    -0.081 HD
ENDBRANCH  26  35
ENDBRANCH  25  26
ENDBRANCH  23  25
ENDBRANCH   5  21
TORSDOF 7
