REMARK  Name = ZINC00874176
REMARK  7 active torsions:
REMARK  status: ('A' for Active; 'I' for Inactive)
REMARK    1  A    between atoms: C_1  and  C_2
REMARK    2  A    between atoms: C_2  and  N_3
REMARK    3  A    between atoms: N_3  and  C_4
REMARK    4  A    between atoms: N_3  and  C_6
REMARK    5  A    between atoms: C_4  and  C_5
REMARK    6  A    between atoms: C_9  and  C_11
REMARK    7  A    between atoms: N_18  and  C_21
REMARK                            x       y       z     vdW  Elec       q    Type
REMARK                         _______ _______ _______ _____ _____    ______ ____
ROOT
ATOM      1  C   UNL     1       3.782  -2.333   0.158  0.00  0.00    +0.064 C 
ATOM      2  C   UNL     1       3.701  -0.940   0.097  0.00  0.00    +0.103 C 
ATOM      3  C   UNL     1       4.899  -0.111  -0.103  0.00  0.00    +0.257 C 
ATOM      4  O   UNL     1       5.998  -0.619  -0.222  0.00  0.00    -0.270 OA
ATOM      5  N   UNL     1       4.747   1.229  -0.152  0.00  0.00    -0.235 N 
ATOM      6  C   UNL     1       3.541   1.802  -0.027  0.00  0.00    +0.320 C 
ATOM      7  O   UNL     1       3.470   3.014  -0.084  0.00  0.00    -0.251 OA
ATOM      8  N   UNL     1       2.411   1.107   0.163  0.00  0.00    -0.190 N 
ATOM      9  C   UNL     1       2.415  -0.240   0.231  0.00  0.00    +0.264 C 
ATOM     10  O   UNL     1       1.381  -0.861   0.399  0.00  0.00    -0.269 OA
ATOM     11  H   UNL     1       5.527   1.790  -0.284  0.00  0.00    +0.159 HD
ENDROOT
BRANCH   8  12
ATOM     12  C   UNL     1       1.195   1.796   0.287  0.00  0.00    +0.049 A 
ATOM     13  C   UNL     1       0.725   2.153   1.544  0.00  0.00    +0.028 A 
ATOM     14  C   UNL     1      -0.475   2.826   1.669  0.00  0.00    +0.051 A 
ATOM     15  C   UNL     1      -1.207   3.157   0.540  0.00  0.00    +0.166 A 
ATOM     16  C   UNL     1      -0.739   2.799  -0.722  0.00  0.00    +0.168 A 
ATOM     17  C   UNL     1       0.462   2.119  -0.846  0.00  0.00    +0.073 A 
ATOM     18  O   UNL     1      -1.634   3.229  -1.658  0.00  0.00    -0.453 OA
ATOM     19  C   UNL     1      -2.450   4.209  -0.989  0.00  0.00    +0.466 C 
ATOM     20  O   UNL     1      -2.397   3.811   0.394  0.00  0.00    -0.453 OA
ENDBRANCH   8  12
BRANCH   1  24
ATOM     21  C   UNL     1       0.576  -3.787  -0.268  0.00  0.00    +0.189 A 
ATOM     22  C   UNL     1       1.124  -4.700   0.612  0.00  0.00    +0.066 A 
ATOM     23  C   UNL     1       2.418  -4.276   0.889  0.00  0.00    +0.051 A 
ATOM     24  C   UNL     1       2.617  -3.100   0.169  0.00  0.00    +0.131 A 
ATOM     25  O   UNL     1       1.485  -2.835  -0.523  0.00  0.00    -0.442 OA
BRANCH  21  26
ATOM     26  N   UNL     1      -0.692  -3.845  -0.796  0.00  0.00    -0.302 N 
BRANCH  26  28
ATOM     27  C   UNL     1      -0.809  -3.216  -3.156  0.00  0.00    +0.024 C 
ATOM     28  C   UNL     1      -1.149  -2.806  -1.722  0.00  0.00    +0.104 C 
ENDBRANCH  26  28
BRANCH  26  29
ATOM     29  C   UNL     1      -1.587  -4.947  -0.432  0.00  0.00    +0.104 C 
ATOM     30  C   UNL     1      -2.397  -4.558   0.807  0.00  0.00    +0.024 C 
ENDBRANCH  26  29
ENDBRANCH  21  26
ENDBRANCH   1  24
TORSDOF 5
