REMARK  Name = ZINC56206814
REMARK  9 active torsions:
REMARK  status: ('A' for Active; 'I' for Inactive)
REMARK    1  A    between atoms: C_1  and  C_2
REMARK    2  A    between atoms: C_4  and  O_23
REMARK    3  A    between atoms: C_7  and  N_8
REMARK    4  A    between atoms: N_8  and  C_9
REMARK    5  A    between atoms: C_9  and  C_11
REMARK    6  A    between atoms: C_9  and  C_12
REMARK    7  A    between atoms: N_14  and  C_15
REMARK    8  A    between atoms: O_23  and  C_24
REMARK    9  A    between atoms: C_24  and  C_25
REMARK                            x       y       z     vdW  Elec       q    Type
REMARK                         _______ _______ _______ _____ _____    ______ ____
ROOT
ATOM      1  N   UNL     1       0.001  -0.021   2.411  0.00  0.00    -0.333 N 
ATOM      2  H   UNL     1      -0.008   0.949   2.416  0.00  0.00    +0.147 HD
ENDROOT
BRANCH   1   9
ATOM      3  C   UNL     1      -0.054   1.491   0.003  0.00  0.00    +0.046 C 
ATOM      4  C   UNL     1      -0.039  -0.016  -0.003  0.00  0.00    -0.026 A 
ATOM      5  C   UNL     1      -0.047  -0.702  -1.202  0.00  0.00    +0.050 A 
ATOM      6  C   UNL     1      -0.034  -2.089  -1.208  0.00  0.00    +0.122 A 
ATOM      7  C   UNL     1      -0.013  -2.788  -0.010  0.00  0.00    +0.047 A 
ATOM      8  C   UNL     1      -0.005  -2.104   1.190  0.00  0.00    +0.027 A 
ATOM      9  C   UNL     1      -0.013  -0.715   1.196  0.00  0.00    +0.031 A 
BRANCH   6  10
ATOM     10  O   UNL     1      -0.042  -2.764  -2.389  0.00  0.00    -0.483 OA
BRANCH  10  11
ATOM     11  C   UNL     1      -0.028  -4.191  -2.320  0.00  0.00    +0.324 C 
BRANCH  11  12
ATOM     12  C   UNL     1      -0.039  -4.761  -3.715  0.00  0.00    +0.248 C 
ATOM     13  O   UNL     1      -0.058  -4.018  -4.674  0.00  0.00    -0.272 OA
ATOM     14  N   UNL     1      -0.029  -6.096  -3.898  0.00  0.00    -0.327 N 
ATOM     15  H   UNL     1      -0.014  -6.690  -3.131  0.00  0.00    +0.145 HD
ATOM     16  H   UNL     1      -0.036  -6.463  -4.796  0.00  0.00    +0.145 HD
ENDBRANCH  11  12
ENDBRANCH  10  11
ENDBRANCH   6  10
ENDBRANCH   1   9
BRANCH   1  17
ATOM     17  C   UNL     1       0.029  -0.759   3.676  0.00  0.00    +0.154 C 
ATOM     18  C   UNL     1       1.475  -1.111   4.030  0.00  0.00    +0.038 C 
BRANCH  17  19
ATOM     19  C   UNL     1      -0.562   0.095   4.769  0.00  0.00    +0.237 C 
ATOM     20  O   UNL     1      -0.966   1.210   4.516  0.00  0.00    -0.273 OA
ATOM     21  N   UNL     1      -0.640  -0.381   6.028  0.00  0.00    -0.282 N 
ATOM     22  H   UNL     1      -0.377  -1.295   6.218  0.00  0.00    +0.155 HD
BRANCH  21  23
ATOM     23  C   UNL     1      -1.102   0.445   7.061  0.00  0.00    +0.069 A 
ATOM     24  C   UNL     1      -2.092   1.385   6.810  0.00  0.00    +0.027 A 
ATOM     25  C   UNL     1      -2.546   2.197   7.830  0.00  0.00    +0.022 A 
ATOM     26  C   UNL     1      -2.016   2.076   9.103  0.00  0.00    +0.044 A 
ATOM     27  C   UNL     1      -1.029   1.140   9.357  0.00  0.00    +0.060 A 
ATOM     28  C   UNL     1      -0.574   0.320   8.341  0.00  0.00    +0.146 A 
ATOM     29  F   UNL     1       0.386  -0.598   8.591  0.00  0.00    -0.203 F 
ATOM     30 CL   UNL     1      -2.589   3.100  10.382  0.00  0.00    -0.083 Cl
ENDBRANCH  21  23
ENDBRANCH  17  19
ENDBRANCH   1  17
TORSDOF 7
