REMARK  Name = ZINC39666003
REMARK  8 active torsions:
REMARK  status: ('A' for Active; 'I' for Inactive)
REMARK    1  A    between atoms: C_1  and  C_2
REMARK    2  A    between atoms: C_5  and  O_8
REMARK    3  A    between atoms: O_8  and  C_9
REMARK    4  A    between atoms: C_9  and  C_11
REMARK    5  A    between atoms: C_9  and  C_12
REMARK    6  A    between atoms: C_12  and  N_13
REMARK    7  A    between atoms: C_14  and  C_16
REMARK    8  A    between atoms: C_27  and  C_29
REMARK                            x       y       z     vdW  Elec       q    Type
REMARK                         _______ _______ _______ _____ _____    ______ ____
ROOT
ATOM      1  C   UNL     1      -5.993  -4.952  -2.952  0.00  0.00    +0.100 C 
ATOM      2  C   UNL     1      -4.945  -5.398  -3.996  0.00  0.00    +0.121 C 
ATOM      3  N   UNL     1      -4.515  -6.742  -3.544  0.00  0.00    -0.296 N 
ATOM      4  C   UNL     1      -5.761  -7.387  -3.065  0.00  0.00    +0.115 C 
ATOM      5  C   UNL     1      -6.528  -6.259  -2.345  0.00  0.00    -0.004 C 
ATOM      6  C   UNL     1      -6.243  -6.302  -0.847  0.00  0.00    -0.010 C 
ATOM      7  C   UNL     1      -6.835  -7.585  -0.256  0.00  0.00    -0.082 C 
ATOM      8  N   UNL     1      -8.282  -7.617  -0.501  0.00  0.00    +0.379 N 
ATOM      9  C   UNL     1      -8.545  -7.669  -1.944  0.00  0.00    -0.082 C 
ATOM     10  C   UNL     1      -8.025  -6.390  -2.606  0.00  0.00    -0.010 C 
ATOM     11  C   UNL     1      -3.271  -7.261  -3.563  0.00  0.00    +0.247 C 
ATOM     12  O   UNL     1      -3.089  -8.416  -3.230  0.00  0.00    -0.270 OA
ATOM     13  H   UNL     1      -8.679  -8.432  -0.058  0.00  0.00    -0.086 HD
ATOM     14  H   UNL     1      -8.705  -6.787  -0.113  0.00  0.00    -0.086 HD
ENDROOT
BRANCH  11  15
ATOM     15  C   UNL     1      -2.128  -6.426  -3.990  0.00  0.00    +0.040 A 
ATOM     16  C   UNL     1      -1.638  -5.426  -3.148  0.00  0.00    +0.033 A 
ATOM     17  C   UNL     1      -0.571  -4.649  -3.552  0.00  0.00    +0.043 A 
ATOM     18  C   UNL     1       0.014  -4.861  -4.789  0.00  0.00    +0.040 A 
ATOM     19  C   UNL     1      -0.467  -5.851  -5.629  0.00  0.00    +0.043 A 
ATOM     20  C   UNL     1      -1.531  -6.638  -5.233  0.00  0.00    +0.033 A 
ATOM     21 CL   UNL     1       0.272  -6.108  -7.178  0.00  0.00    -0.083 Cl
ATOM     22 CL   UNL     1       0.039  -3.404  -2.507  0.00  0.00    -0.083 Cl
ENDBRANCH  11  15
BRANCH   1  24
ATOM     23  N   UNL     1      -6.083  -3.227  -1.181  0.00  0.00    -0.312 N 
ATOM     24  C   UNL     1      -5.344  -4.106  -1.887  0.00  0.00    +0.218 C 
ATOM     25  O   UNL     1      -4.157  -4.216  -1.664  0.00  0.00    -0.275 OA
ATOM     26  H   UNL     1      -7.045  -3.196  -1.301  0.00  0.00    +0.149 HD
BRANCH  23  27
ATOM     27  C   UNL     1      -5.433  -2.318  -0.234  0.00  0.00    +0.148 C 
BRANCH  27  28
ATOM     28  C   UNL     1      -6.469  -1.347   0.334  0.00  0.00    +0.187 C 
ATOM     29  C   UNL     1      -5.907  -0.676   1.589  0.00  0.00    +0.053 C 
BRANCH  28  30
ATOM     30  O   UNL     1      -6.773  -0.349  -0.643  0.00  0.00    -0.488 OA
BRANCH  30  35
ATOM     31  C   UNL     1     -11.621   2.450  -0.018  0.00  0.00    +0.044 C 
ATOM     32  C   UNL     1     -10.324   1.701  -0.185  0.00  0.00    -0.050 A 
ATOM     33  C   UNL     1      -9.491   1.993  -1.249  0.00  0.00    +0.007 A 
ATOM     34  C   UNL     1      -8.301   1.308  -1.405  0.00  0.00    +0.046 A 
ATOM     35  C   UNL     1      -7.943   0.327  -0.492  0.00  0.00    +0.121 A 
ATOM     36  C   UNL     1      -8.780   0.036   0.575  0.00  0.00    +0.046 A 
ATOM     37  C   UNL     1      -9.966   0.728   0.729  0.00  0.00    +0.007 A 
ENDBRANCH  30  35
ENDBRANCH  28  30
ENDBRANCH  27  28
ENDBRANCH  23  27
ENDBRANCH   1  24
TORSDOF 6
