REMARK  Name = ZINC09634182
REMARK  12 active torsions:
REMARK  status: ('A' for Active; 'I' for Inactive)
REMARK    1  A    between atoms: C_1  and  C_2
REMARK    2  A    between atoms: C_2  and  N_3
REMARK    3  A    between atoms: N_3  and  C_4
REMARK    4  A    between atoms: C_5  and  N_20
REMARK    5  A    between atoms: N_6  and  C_13
REMARK    6  A    between atoms: C_13  and  C_14
REMARK    7  A    between atoms: C_21  and  C_23
REMARK    8  A    between atoms: C_23  and  O_24
REMARK    9  A    between atoms: O_24  and  C_25
REMARK   10  A    between atoms: C_25  and  C_27
REMARK   11  A    between atoms: C_27  and  C_28
REMARK   12  A    between atoms: C_28  and  C_29
REMARK                            x       y       z     vdW  Elec       q    Type
REMARK                         _______ _______ _______ _____ _____    ______ ____
ROOT
ATOM      1  N   UNL     1       0.647  -0.490  -1.155  0.00  0.00    -0.262 N 
ATOM      2  C   UNL     1      -0.176  -0.834  -2.167  0.00  0.00    +0.258 C 
ATOM      3  O   UNL     1       0.276  -1.344  -3.171  0.00  0.00    -0.272 OA
ENDROOT
BRANCH   1   4
ATOM      4  C   UNL     1       2.044  -0.619  -1.307  0.00  0.00    +0.140 A 
ATOM      5  C   UNL     1       2.752  -1.526  -0.546  0.00  0.00    +0.128 A 
ATOM      6  N   UNL     1       4.113  -1.628  -0.718  0.00  0.00    -0.276 N 
ATOM      7  C   UNL     1       4.747  -0.851  -1.615  0.00  0.00    +0.331 A 
ATOM      8  O   UNL     1       5.950  -0.956  -1.751  0.00  0.00    -0.246 OA
ATOM      9  N   UNL     1       4.073   0.038  -2.365  0.00  0.00    -0.273 N 
ATOM     10  H   UNL     1       4.552   0.587  -3.006  0.00  0.00    +0.173 HD
ATOM     11  C   UNL     1       2.738   0.173  -2.241  0.00  0.00    +0.277 A 
ATOM     12  O   UNL     1       2.136   0.980  -2.929  0.00  0.00    -0.266 OA
BRANCH   5  13
ATOM     13  N   UNL     1       2.106  -2.319   0.371  0.00  0.00    -0.343 N 
ATOM     14  H   UNL     1       1.157  -2.197   0.535  0.00  0.00    +0.144 HD
ATOM     15  H   UNL     1       2.598  -3.001   0.855  0.00  0.00    +0.144 HD
ENDBRANCH   5  13
BRANCH   6  16
ATOM     16  C   UNL     1       4.878  -2.588   0.083  0.00  0.00    +0.163 C 
BRANCH  16  17
ATOM     17  C   UNL     1       4.941  -3.908  -0.640  0.00  0.00    -0.028 A 
ATOM     18  C   UNL     1       3.959  -4.859  -0.430  0.00  0.00    +0.005 A 
ATOM     19  C   UNL     1       4.017  -6.070  -1.094  0.00  0.00    +0.000 A 
ATOM     20  C   UNL     1       5.055  -6.331  -1.968  0.00  0.00    +0.000 A 
ATOM     21  C   UNL     1       6.036  -5.380  -2.179  0.00  0.00    +0.000 A 
ATOM     22  C   UNL     1       5.977  -4.167  -1.518  0.00  0.00    +0.005 A 
ENDBRANCH  16  17
ENDBRANCH   6  16
ENDBRANCH   1   4
BRANCH   1  24
ATOM     23  C   UNL     1       0.073   1.545   0.073  0.00  0.00    +0.025 C 
ATOM     24  C   UNL     1       0.090   0.016   0.102  0.00  0.00    +0.110 C 
ENDBRANCH   1  24
BRANCH   2  25
ATOM     25  C   UNL     1      -1.658  -0.585  -2.051  0.00  0.00    +0.328 C 
BRANCH  25  26
ATOM     26  O   UNL     1      -2.311  -1.031  -3.241  0.00  0.00    -0.455 OA
BRANCH  26  27
ATOM     27  C   UNL     1      -3.643  -0.879  -3.299  0.00  0.00    +0.308 C 
ATOM     28  O   UNL     1      -4.236  -0.384  -2.370  0.00  0.00    -0.251 OA
BRANCH  27  29
ATOM     29  C   UNL     1      -4.400  -1.327  -4.523  0.00  0.00    +0.125 C 
BRANCH  29  30
ATOM     30  C   UNL     1      -5.891  -1.042  -4.333  0.00  0.00    +0.048 C 
BRANCH  30  31
ATOM     31  C   UNL     1      -6.648  -1.490  -5.557  0.00  0.00    -0.022 A 
ATOM     32  C   UNL     1      -6.995  -0.726  -6.605  0.00  0.00    +0.087 A 
ATOM     33  N   UNL     1      -7.673  -1.477  -7.526  0.00  0.00    -0.360 N 
ATOM     34  H   UNL     1      -8.025  -1.144  -8.366  0.00  0.00    +0.165 HD
ATOM     35  C   UNL     1      -7.782  -2.776  -7.082  0.00  0.00    +0.047 A 
ATOM     36  C   UNL     1      -7.140  -2.842  -5.832  0.00  0.00    +0.003 A 
ATOM     37  C   UNL     1      -7.088  -4.053  -5.139  0.00  0.00    +0.010 A 
ATOM     38  C   UNL     1      -7.659  -5.170  -5.681  0.00  0.00    +0.001 A 
ATOM     39  C   UNL     1      -8.291  -5.110  -6.915  0.00  0.00    +0.002 A 
ATOM     40  C   UNL     1      -8.362  -3.924  -7.612  0.00  0.00    +0.026 A 
ENDBRANCH  30  31
ENDBRANCH  29  30
ENDBRANCH  27  29
ENDBRANCH  26  27
ENDBRANCH  25  26
ENDBRANCH   2  25
TORSDOF 11
