REMARK  Name = ZINC04631494
REMARK  7 active torsions:
REMARK  status: ('A' for Active; 'I' for Inactive)
REMARK    1  A    between atoms: C_1  and  O_2
REMARK    2  A    between atoms: O_2  and  C_3
REMARK    3  A    between atoms: C_3  and  C_5
REMARK    4  A    between atoms: C_8  and  C_11
REMARK    5  A    between atoms: C_14  and  C_25
REMARK    6  A    between atoms: C_20  and  N_24
REMARK    7  A    between atoms: C_21  and  C_22
REMARK                            x       y       z     vdW  Elec       q    Type
REMARK                         _______ _______ _______ _____ _____    ______ ____
ROOT
ATOM      1  C   UNL     1      -1.362  -6.501  -0.011  0.00  0.00    +0.102 C 
ATOM      2  C   UNL     1      -2.241  -6.904  -1.167  0.00  0.00    +0.054 A 
ATOM      3  C   UNL     1      -1.980  -6.846  -2.539  0.00  0.00    +0.100 A 
ATOM      4  N   UNL     1      -3.042  -7.304  -3.175  0.00  0.00    -0.171 NA
ATOM      5  N   UNL     1      -4.006  -7.664  -2.221  0.00  0.00    -0.246 N 
ATOM      6  H   UNL     1      -4.885  -8.030  -2.408  0.00  0.00    +0.192 HD
ATOM      7  C   UNL     1      -3.496  -7.412  -0.997  0.00  0.00    +0.223 A 
ATOM      8  O   UNL     1      -4.051  -7.599   0.226  0.00  0.00    -0.423 OA
ATOM      9  C   UNL     1      -3.237  -7.527   1.299  0.00  0.00    +0.200 C 
ATOM     10  C   UNL     1      -1.979  -7.033   1.258  0.00  0.00    +0.098 C 
ENDROOT
BRANCH   1  14
ATOM     11  C   UNL     1      -1.103  -2.237   0.188  0.00  0.00    +0.059 A 
ATOM     12  C   UNL     1       0.058  -3.006   0.094  0.00  0.00    +0.015 A 
ATOM     13  C   UNL     1      -0.033  -4.381   0.030  0.00  0.00    +0.005 A 
ATOM     14  C   UNL     1      -1.271  -4.998   0.059  0.00  0.00    -0.035 A 
ATOM     15  C   UNL     1      -2.426  -4.242   0.151  0.00  0.00    +0.005 A 
ATOM     16  C   UNL     1      -2.349  -2.866   0.221  0.00  0.00    +0.015 A 
BRANCH  11  17
ATOM     17  C   UNL     1      -1.014  -0.764   0.256  0.00  0.00    +0.339 C 
ATOM     18  O   UNL     1      -2.026  -0.098   0.342  0.00  0.00    -0.245 OA
BRANCH  17  20
ATOM     19  C   UNL     1       0.202   1.267   0.294  0.00  0.00    +0.280 C 
ATOM     20  O   UNL     1       0.190  -0.160   0.223  0.00  0.00    -0.464 OA
ENDBRANCH  17  20
ENDBRANCH  11  17
ENDBRANCH   1  14
BRANCH   3  21
ATOM     21  C   UNL     1      -0.729  -6.356  -3.170  0.00  0.00    +0.003 A 
ATOM     22  C   UNL     1      -0.788  -5.542  -4.300  0.00  0.00    +0.010 A 
ATOM     23  C   UNL     1       0.379  -5.089  -4.882  0.00  0.00    +0.001 A 
ATOM     24  C   UNL     1       1.604  -5.441  -4.347  0.00  0.00    +0.000 A 
ATOM     25  C   UNL     1       1.668  -6.249  -3.226  0.00  0.00    +0.001 A 
ATOM     26  C   UNL     1       0.508  -6.703  -2.632  0.00  0.00    +0.010 A 
ENDBRANCH   3  21
BRANCH   9  27
ATOM     27  N   UNL     1      -3.713  -7.984   2.503  0.00  0.00    -0.328 N 
ATOM     28  H   UNL     1      -4.611  -8.345   2.564  0.00  0.00    +0.145 HD
ATOM     29  H   UNL     1      -3.151  -7.946   3.293  0.00  0.00    +0.145 HD
ENDBRANCH   9  27
BRANCH  10  30
ATOM     30  C   UNL     1      -1.204  -7.013   2.462  0.00  0.00    +0.101 C 
ATOM     31  N   UNL     1      -0.590  -6.997   3.418  0.00  0.00    -0.191 NA
ENDBRANCH  10  30
TORSDOF 6
