REMARK  Name = ZINC02542695
REMARK  10 active torsions:
REMARK  status: ('A' for Active; 'I' for Inactive)
REMARK    1  A    between atoms: C_1  and  C_2
REMARK    2  A    between atoms: C_5  and  C_8
REMARK    3  A    between atoms: C_8  and  O_10
REMARK    4  A    between atoms: O_10  and  C_11
REMARK    5  A    between atoms: C_20  and  C_21
REMARK    6  A    between atoms: N_22  and  N_23
REMARK    7  A    between atoms: C_24  and  C_26
REMARK    8  A    between atoms: C_26  and  N_27
REMARK    9  A    between atoms: C_28  and  C_30
REMARK   10  A    between atoms: C_34  and  C_36
REMARK                            x       y       z     vdW  Elec       q    Type
REMARK                         _______ _______ _______ _____ _____    ______ ____
ROOT
ATOM      1  C   UNL     1       6.822  10.707   0.214  0.00  0.00    +0.141 A 
ATOM      2  C   UNL     1       8.164  10.983   0.471  0.00  0.00    +0.047 A 
ATOM      3  C   UNL     1       8.639  12.256   0.502  0.00  0.00    +0.012 A 
ATOM      4  C   UNL     1       7.785  13.349   0.270  0.00  0.00    -0.017 A 
ATOM      5  C   UNL     1       8.266  14.669   0.302  0.00  0.00    +0.008 A 
ATOM      6  C   UNL     1       7.410  15.704   0.073  0.00  0.00    +0.001 A 
ATOM      7  C   UNL     1       6.062  15.474  -0.191  0.00  0.00    +0.001 A 
ATOM      8  C   UNL     1       5.562  14.206  -0.229  0.00  0.00    +0.009 A 
ATOM      9  C   UNL     1       6.414  13.119   0.001  0.00  0.00    -0.006 A 
ATOM     10  C   UNL     1       5.921  11.744  -0.030  0.00  0.00    +0.045 A 
ENDROOT
BRANCH  10  11
ATOM     11  C   UNL     1       4.506  11.459  -0.306  0.00  0.00    +0.142 C 
ATOM     12  N   UNL     1       4.098  10.230  -0.410  0.00  0.00    -0.188 NA
BRANCH  12  13
ATOM     13  N   UNL     1       2.775   9.959  -0.782  0.00  0.00    -0.206 N 
ATOM     14  C   UNL     1       2.328   8.688  -0.807  0.00  0.00    +0.249 C 
ATOM     15  O   UNL     1       3.094   7.772  -0.594  0.00  0.00    -0.272 OA
ATOM     16  H   UNL     1       2.100  10.785  -1.054  0.00  0.00    +0.177 HD
BRANCH  14  17
ATOM     17  C   UNL     1       0.877   8.405  -1.101  0.00  0.00    +0.202 C 
BRANCH  17  18
ATOM     18  N   UNL     1       0.646   6.958  -1.071  0.00  0.00    -0.303 N 
ATOM     19  C   UNL     1      -0.587   6.468  -1.306  0.00  0.00    +0.244 C 
ATOM     20  O   UNL     1      -1.507   7.226  -1.544  0.00  0.00    -0.270 OA
ATOM     21  H   UNL     1       1.479   6.273  -0.855  0.00  0.00    +0.150 HD
BRANCH  19  22
ATOM     22  C   UNL     1      -0.820   5.008  -1.275  0.00  0.00    +0.037 A 
ATOM     23  C   UNL     1       0.235   4.136  -1.002  0.00  0.00    +0.013 A 
ATOM     24  C   UNL     1       0.010   2.775  -0.975  0.00  0.00    +0.001 A 
ATOM     25  C   UNL     1      -1.257   2.275  -1.217  0.00  0.00    +0.003 A 
ATOM     26  C   UNL     1      -2.305   3.134  -1.493  0.00  0.00    -0.050 A 
ATOM     27  C   UNL     1      -2.096   4.497  -1.518  0.00  0.00    +0.016 A 
ATOM     28  C   UNL     1      -3.681   2.579  -1.762  0.00  0.00    +0.044 C 
ENDBRANCH  19  22
ENDBRANCH  17  18
ENDBRANCH  14  17
ENDBRANCH  12  13
ENDBRANCH  10  11
BRANCH   1  29
ATOM     29  O   UNL     1       6.389   9.420   0.197  0.00  0.00    -0.422 OA
BRANCH  29  30
ATOM     30  C   UNL     1       6.383   8.792  -0.995  0.00  0.00    +0.344 C 
ATOM     31  O   UNL     1       6.655   9.407  -2.007  0.00  0.00    -0.245 OA
BRANCH  30  36
ATOM     32  C   UNL     1       5.071   3.199  -1.295  0.00  0.00    +0.044 C 
ATOM     33  C   UNL     1       5.414   4.664  -1.216  0.00  0.00    -0.050 A 
ATOM     34  C   UNL     1       5.720   5.362  -2.371  0.00  0.00    +0.004 A 
ATOM     35  C   UNL     1       6.036   6.703  -2.307  0.00  0.00    +0.015 A 
ATOM     36  C   UNL     1       6.045   7.356  -1.072  0.00  0.00    +0.059 A 
ATOM     37  C   UNL     1       5.740   6.644   0.090  0.00  0.00    +0.015 A 
ATOM     38  C   UNL     1       5.421   5.305   0.010  0.00  0.00    +0.004 A 
ENDBRANCH  30  36
ENDBRANCH  29  30
ENDBRANCH   1  29
TORSDOF 8
