REMARK  Name = ZINC65716989
REMARK  6 active torsions:
REMARK  status: ('A' for Active; 'I' for Inactive)
REMARK    1  A    between atoms: C_1  and  C_2
REMARK    2  A    between atoms: C_6  and  C_8
REMARK    3  A    between atoms: C_6  and  C_9
REMARK    4  A    between atoms: C_10  and  C_12
REMARK    5  A    between atoms: N_14  and  C_15
REMARK    6  A    between atoms: C_16  and  C_24
REMARK                            x       y       z     vdW  Elec       q    Type
REMARK                         _______ _______ _______ _____ _____    ______ ____
ROOT
ATOM      1  C   UNL     1      -2.976  -2.251  -1.663  0.00  0.00    +0.304 C 
ATOM      2  O   UNL     1      -3.030  -1.050  -1.832  0.00  0.00    -0.265 OA
ATOM      3  N   UNL     1      -3.734  -3.072  -2.417  0.00  0.00    -0.271 N 
ATOM      4  H   UNL     1      -3.691  -4.031  -2.283  0.00  0.00    +0.156 HD
ENDROOT
BRANCH   1  14
ATOM      5  C   UNL     1       0.705   1.152  -0.741  0.00  0.00    +0.039 C 
ATOM      6  C   UNL     1       0.472  -0.343  -0.512  0.00  0.00    +0.133 C 
ATOM      7  C   UNL     1      -1.030  -0.610  -0.365  0.00  0.00    +0.139 C 
ATOM      8  N   UNL     1      -1.214  -2.013   0.039  0.00  0.00    -0.289 N 
ATOM      9  C   UNL     1      -0.436  -2.511   1.184  0.00  0.00    +0.142 C 
ATOM     10  C   UNL     1       1.037  -2.151   0.961  0.00  0.00    +0.080 C 
ATOM     11  O   UNL     1       1.143  -0.753   0.682  0.00  0.00    -0.368 OA
ATOM     12  C   UNL     1       1.840  -2.483   2.220  0.00  0.00    +0.043 C 
ATOM     13  C   UNL     1       1.585  -2.952  -0.222  0.00  0.00    +0.043 C 
ATOM     14  C   UNL     1      -2.070  -2.818  -0.622  0.00  0.00    +0.302 C 
ATOM     15  O   UNL     1      -2.104  -4.005  -0.369  0.00  0.00    -0.265 OA
ENDBRANCH   1  14
BRANCH   3  16
ATOM     16  C   UNL     1      -4.574  -2.545  -3.384  0.00  0.00    +0.090 A 
ATOM     17  C   UNL     1      -5.431  -3.212  -4.251  0.00  0.00    +0.084 A 
ATOM     18  C   UNL     1      -6.212  -2.413  -5.180  0.00  0.00    -0.018 A 
ATOM     19  C   UNL     1      -6.032  -1.074  -5.115  0.00  0.00    -0.004 A 
ATOM     20  S   UNL     1      -4.839  -0.837  -3.827  0.00  0.00    -0.077 S 
ATOM     21  C   UNL     1      -6.703  -0.028  -5.951  0.00  0.00    +0.043 C 
ATOM     22  C   UNL     1      -7.360  -0.717  -7.155  0.00  0.00    +0.005 C 
ATOM     23  C   UNL     1      -8.151  -1.930  -6.656  0.00  0.00    +0.005 C 
ATOM     24  C   UNL     1      -7.189  -3.020  -6.183  0.00  0.00    +0.037 C 
BRANCH  17  25
ATOM     25  C   UNL     1      -5.540  -4.639  -4.231  0.00  0.00    +0.102 C 
ATOM     26  N   UNL     1      -5.627  -5.772  -4.215  0.00  0.00    -0.191 NA
ENDBRANCH  17  25
ENDBRANCH   3  16
TORSDOF 3
