REMARK  Name = ZINC38658464
REMARK  13 active torsions:
REMARK  status: ('A' for Active; 'I' for Inactive)
REMARK    1  A    between atoms: C_1  and  C_2
REMARK    2  A    between atoms: C_2  and  O_3
REMARK    3  A    between atoms: O_3  and  C_4
REMARK    4  A    between atoms: C_7  and  C_10
REMARK    5  A    between atoms: C_10  and  O_12
REMARK    6  A    between atoms: O_12  and  C_13
REMARK    7  A    between atoms: C_20  and  N_36
REMARK    8  A    between atoms: C_21  and  C_34
REMARK    9  A    between atoms: C_22  and  C_24
REMARK   10  A    between atoms: C_27  and  O_32
REMARK   11  A    between atoms: C_28  and  O_30
REMARK   12  A    between atoms: O_30  and  C_31
REMARK   13  A    between atoms: O_32  and  C_33
REMARK                            x       y       z     vdW  Elec       q    Type
REMARK                         _______ _______ _______ _____ _____    ______ ____
ROOT
ATOM      1  C   UNL     1       1.736  -7.869  -2.980  0.00  0.00    +0.135 A 
ATOM      2  C   UNL     1       1.092  -8.604  -1.995  0.00  0.00    +0.047 A 
ATOM      3  C   UNL     1       1.097  -9.984  -2.049  0.00  0.00    +0.012 A 
ATOM      4  C   UNL     1       1.743 -10.639  -3.084  0.00  0.00    +0.008 A 
ATOM      5  C   UNL     1       2.388  -9.909  -4.070  0.00  0.00    +0.138 A 
ATOM      6  C   UNL     1       2.379  -8.521  -4.019  0.00  0.00    +0.093 A 
ATOM      7  O   UNL     1       3.026 -10.532  -5.091  0.00  0.00    -0.441 OA
ATOM      8  C   UNL     1       2.732 -11.810  -5.385  0.00  0.00    +0.199 C 
ATOM      9  C   UNL     1       2.120 -12.627  -4.496  0.00  0.00    +0.098 C 
ATOM     10  C   UNL     1       1.737 -12.144  -3.125  0.00  0.00    +0.098 C 
ENDROOT
BRANCH  10  11
ATOM     11  C   UNL     1       2.721 -12.675  -2.115  0.00  0.00    -0.031 A 
ATOM     12  C   UNL     1       4.058 -12.336  -2.211  0.00  0.00    +0.008 A 
ATOM     13  C   UNL     1       4.965 -12.820  -1.287  0.00  0.00    +0.050 A 
ATOM     14  C   UNL     1       4.535 -13.647  -0.262  0.00  0.00    +0.162 A 
ATOM     15  C   UNL     1       3.190 -13.988  -0.166  0.00  0.00    +0.162 A 
ATOM     16  C   UNL     1       2.285 -13.495  -1.092  0.00  0.00    +0.054 A 
BRANCH  15  17
ATOM     17  O   UNL     1       2.763 -14.800   0.839  0.00  0.00    -0.491 OA
ATOM     18  C   UNL     1       1.368 -15.108   0.875  0.00  0.00    +0.277 C 
ENDBRANCH  15  17
BRANCH  14  19
ATOM     19  O   UNL     1       5.426 -14.125   0.647  0.00  0.00    -0.491 OA
ATOM     20  C   UNL     1       6.791 -13.734   0.486  0.00  0.00    +0.277 C 
ENDBRANCH  14  19
ENDBRANCH  10  11
BRANCH   8  21
ATOM     21  N   UNL     1       3.062 -12.301  -6.624  0.00  0.00    -0.328 N 
ATOM     22  H   UNL     1       3.500 -11.728  -7.272  0.00  0.00    +0.145 HD
ATOM     23  H   UNL     1       2.856 -13.221  -6.851  0.00  0.00    +0.145 HD
ENDBRANCH   8  21
BRANCH   9  24
ATOM     24  C   UNL     1       1.833 -13.980  -4.868  0.00  0.00    +0.101 C 
ATOM     25  N   UNL     1       1.605 -15.053  -5.164  0.00  0.00    -0.191 NA
ENDBRANCH   9  24
BRANCH   1  26
ATOM     26  O   UNL     1       1.732  -6.511  -2.928  0.00  0.00    -0.422 OA
BRANCH  26  27
ATOM     27  C   UNL     1       0.893  -5.849  -3.749  0.00  0.00    +0.344 C 
ATOM     28  O   UNL     1       0.237  -6.461  -4.569  0.00  0.00    -0.245 OA
BRANCH  27  32
ATOM     29  C   UNL     1       0.545  -1.627  -3.475  0.00  0.00    +0.121 A 
ATOM     30  C   UNL     1      -0.206  -2.325  -4.413  0.00  0.00    +0.046 A 
ATOM     31  C   UNL     1      -0.097  -3.694  -4.505  0.00  0.00    +0.018 A 
ATOM     32  C   UNL     1       0.773  -4.382  -3.654  0.00  0.00    +0.060 A 
ATOM     33  C   UNL     1       1.527  -3.677  -2.712  0.00  0.00    +0.018 A 
ATOM     34  C   UNL     1       1.415  -2.307  -2.630  0.00  0.00    +0.046 A 
BRANCH  29  35
ATOM     35  O   UNL     1       0.434  -0.277  -3.387  0.00  0.00    -0.492 OA
BRANCH  35  37
ATOM     36  C   UNL     1      -0.467   1.868  -4.039  0.00  0.00    +0.048 C 
ATOM     37  C   UNL     1      -0.478   0.358  -4.285  0.00  0.00    +0.225 C 
ENDBRANCH  35  37
ENDBRANCH  29  35
ENDBRANCH  27  32
ENDBRANCH  26  27
ENDBRANCH   1  26
TORSDOF 10
