REMARK  Name = ZINC16828579
REMARK  13 active torsions:
REMARK  status: ('A' for Active; 'I' for Inactive)
REMARK    1  A    between atoms: C_1  and  C_2
REMARK    2  A    between atoms: C_2  and  C_4
REMARK    3  A    between atoms: C_2  and  S_11
REMARK    4  A    between atoms: N_6  and  C_7
REMARK    5  A    between atoms: C_7  and  C_8
REMARK    6  A    between atoms: C_8  and  C_9
REMARK    7  A    between atoms: C_8  and  C_10
REMARK    8  A    between atoms: S_11  and  C_12
REMARK    9  A    between atoms: N_22  and  C_23
REMARK   10  A    between atoms: C_23  and  C_24
REMARK   11  A    between atoms: C_24  and  C_25
REMARK   12  A    between atoms: C_28  and  S_31
REMARK   13  A    between atoms: S_31  and  N_34
REMARK                            x       y       z     vdW  Elec       q    Type
REMARK                         _______ _______ _______ _____ _____    ______ ____
ROOT
ATOM      1  C   UNL     1      -2.365  -0.093  -1.525  0.00  0.00    +0.173 A 
ATOM      2  N   UNL     1      -1.593   0.592  -2.333  0.00  0.00    -0.223 NA
ATOM      3  C   UNL     1      -2.036   1.035  -3.527  0.00  0.00    +0.079 A 
ATOM      4  C   UNL     1      -1.213   1.766  -4.389  0.00  0.00    +0.028 A 
ATOM      5  C   UNL     1      -1.704   2.195  -5.590  0.00  0.00    +0.002 A 
ATOM      6  C   UNL     1      -3.011   1.917  -5.969  0.00  0.00    +0.001 A 
ATOM      7  C   UNL     1      -3.840   1.205  -5.147  0.00  0.00    +0.015 A 
ATOM      8  C   UNL     1      -3.366   0.754  -3.916  0.00  0.00    +0.065 A 
ATOM      9  C   UNL     1      -4.211  -0.016  -2.993  0.00  0.00    +0.262 A 
ATOM     10  O   UNL     1      -5.364  -0.290  -3.272  0.00  0.00    -0.267 OA
ATOM     11  N   UNL     1      -3.658  -0.414  -1.824  0.00  0.00    -0.287 N 
ENDROOT
BRANCH   1  12
ATOM     12  S   UNL     1      -1.700  -0.632   0.015  0.00  0.00    -0.075 S 
BRANCH  12  14
ATOM     13  C   UNL     1      -0.019   1.526   0.010  0.00  0.00    +0.029 C 
ATOM     14  C   UNL     1       0.002  -0.004   0.002  0.00  0.00    +0.137 C 
BRANCH  14  15
ATOM     15  C   UNL     1       0.731  -0.503   1.223  0.00  0.00    +0.226 C 
ATOM     16  O   UNL     1       0.105  -0.891   2.187  0.00  0.00    -0.275 OA
ATOM     17  N   UNL     1       2.079  -0.519   1.244  0.00  0.00    -0.314 N 
ATOM     18  H   UNL     1       2.579  -0.208   0.473  0.00  0.00    +0.149 HD
BRANCH  17  19
ATOM     19  C   UNL     1       2.787  -1.004   2.431  0.00  0.00    +0.107 C 
BRANCH  19  20
ATOM     20  C   UNL     1       4.296  -0.916   2.195  0.00  0.00    -0.000 C 
ATOM     21  C   UNL     1       4.705   0.551   2.051  0.00  0.00    +0.009 C 
ATOM     22  C   UNL     1       5.035  -1.537   3.382  0.00  0.00    +0.009 C 
ENDBRANCH  19  20
ENDBRANCH  17  19
ENDBRANCH  14  15
ENDBRANCH  12  14
ENDBRANCH   1  12
BRANCH  11  23
ATOM     23  C   UNL     1      -4.454  -1.190  -0.870  0.00  0.00    +0.132 C 
BRANCH  23  24
ATOM     24  C   UNL     1      -5.178  -0.237   0.084  0.00  0.00    +0.057 C 
BRANCH  24  25
ATOM     25  C   UNL     1      -5.997  -1.034   1.066  0.00  0.00    -0.046 A 
ATOM     26  C   UNL     1      -7.305  -1.366   0.766  0.00  0.00    +0.005 A 
ATOM     27  C   UNL     1      -8.056  -2.098   1.666  0.00  0.00    +0.029 A 
ATOM     28  C   UNL     1      -7.499  -2.498   2.867  0.00  0.00    +0.105 A 
ATOM     29  C   UNL     1      -6.191  -2.167   3.166  0.00  0.00    +0.029 A 
ATOM     30  C   UNL     1      -5.438  -1.439   2.264  0.00  0.00    +0.005 A 
BRANCH  28  31
ATOM     31  S   UNL     1      -8.457  -3.430   4.015  0.00  0.00    +0.056 S 
ATOM     32  O   UNL     1      -7.880  -3.213   5.295  0.00  0.00    -0.153 OA
ATOM     33  O   UNL     1      -9.820  -3.141   3.736  0.00  0.00    -0.153 OA
BRANCH  31  34
ATOM     34  N   UNL     1      -8.229  -5.031   3.658  0.00  0.00    -0.204 NA
ATOM     35  H   UNL     1      -7.648  -5.286   2.924  0.00  0.00    +0.144 HD
ATOM     36  H   UNL     1      -8.676  -5.713   4.183  0.00  0.00    +0.144 HD
ENDBRANCH  31  34
ENDBRANCH  28  31
ENDBRANCH  24  25
ENDBRANCH  23  24
ENDBRANCH  11  23
TORSDOF 10
