REMARK  Name = ZINC09938398
REMARK  9 active torsions:
REMARK  status: ('A' for Active; 'I' for Inactive)
REMARK    1  A    between atoms: C_1  and  C_2
REMARK    2  A    between atoms: C_5  and  S_7
REMARK    3  A    between atoms: S_7  and  C_8
REMARK    4  A    between atoms: C_8  and  C_9
REMARK    5  A    between atoms: N_19  and  C_20
REMARK    6  A    between atoms: C_22  and  O_28
REMARK    7  A    between atoms: C_24  and  O_26
REMARK    8  A    between atoms: O_26  and  C_27
REMARK    9  A    between atoms: O_28  and  C_29
REMARK                            x       y       z     vdW  Elec       q    Type
REMARK                         _______ _______ _______ _____ _____    ______ ____
ROOT
ATOM      1  C   UNL     1       1.344   4.677   2.043  0.00  0.00    +0.060 A 
ATOM      2  C   UNL     1       2.450   4.446   2.807  0.00  0.00    +0.094 A 
ATOM      3  C   UNL     1       2.772   3.121   3.153  0.00  0.00    +0.253 A 
ATOM      4  O   UNL     1       3.754   2.877   3.835  0.00  0.00    -0.268 OA
ATOM      5  N   UNL     1       1.971   2.125   2.720  0.00  0.00    -0.293 N 
ATOM      6  H   UNL     1       2.171   1.204   2.949  0.00  0.00    +0.172 HD
ATOM      7  C   UNL     1       0.884   2.416   1.955  0.00  0.00    +0.211 A 
ATOM      8  N   UNL     1       0.589   3.659   1.636  0.00  0.00    -0.218 NA
ATOM      9  N   UNL     1       0.077   1.396   1.513  0.00  0.00    -0.298 N 
ATOM     10  C   UNL     1      -1.029   1.678   0.737  0.00  0.00    +0.180 C 
ATOM     11  N   UNL     1      -1.817   0.653   0.264  0.00  0.00    -0.327 N 
ATOM     12  H   UNL     1       0.286   0.477   1.744  0.00  0.00    +0.172 HD
ATOM     13  H   UNL     1      -2.121   3.217  -0.026  0.00  0.00    +0.159 HD
ATOM     14  H   UNL     1      -2.642   0.853  -0.206  0.00  0.00    +0.169 HD
ATOM     15  N   UNL     1      -1.274   2.953   0.478  0.00  0.00    -0.371 N 
ATOM     16  H   UNL     1      -0.611   3.675   0.783  0.00  0.00    +0.159 HD
ENDROOT
BRANCH  11  17
ATOM     17  C   UNL     1      -1.428  -0.676   0.461  0.00  0.00    +0.049 A 
ATOM     18  C   UNL     1      -0.081  -1.008   0.495  0.00  0.00    +0.071 A 
ATOM     19  C   UNL     1       0.303  -2.325   0.696  0.00  0.00    +0.126 A 
ATOM     20  C   UNL     1      -0.658  -3.312   0.851  0.00  0.00    +0.091 A 
ATOM     21  C   UNL     1      -2.005  -2.982   0.811  0.00  0.00    +0.126 A 
ATOM     22  C   UNL     1      -2.390  -1.665   0.616  0.00  0.00    +0.071 A 
BRANCH  21  23
ATOM     23  O   UNL     1      -2.946  -3.950   0.963  0.00  0.00    -0.495 OA
ATOM     24  C   UNL     1      -2.477  -5.286   1.160  0.00  0.00    +0.277 C 
ENDBRANCH  21  23
BRANCH  19  25
ATOM     25  O   UNL     1       1.623  -2.649   0.736  0.00  0.00    -0.495 OA
ATOM     26  C   UNL     1       1.946  -4.026   0.940  0.00  0.00    +0.277 C 
ENDBRANCH  19  25
ENDBRANCH  11  17
BRANCH   1  27
ATOM     27  C   UNL     1       0.976   6.087   1.659  0.00  0.00    +0.132 C 
BRANCH  27  28
ATOM     28  S   UNL     1       1.393   6.367  -0.080  0.00  0.00    -0.091 S 
BRANCH  28  33
ATOM     29  C   UNL     1      -0.107  11.916  -1.411  0.00  0.00    +0.075 C 
ATOM     30  C   UNL     1       0.201  10.544  -0.869  0.00  0.00    +0.100 A 
ATOM     31  N   UNL     1       0.015  10.049   0.338  0.00  0.00    -0.146 NA
ATOM     32  N   UNL     1       0.332   8.864   0.635  0.00  0.00    -0.135 NA
ATOM     33  C   UNL     1       0.874   8.042  -0.254  0.00  0.00    +0.159 A 
ATOM     34  S   UNL     1       0.932   9.124  -1.679  0.00  0.00    -0.044 S 
ENDBRANCH  28  33
ENDBRANCH  27  28
ENDBRANCH   1  27
TORSDOF 6
