REMARK  Name = ZINC04981937
REMARK  5 active torsions:
REMARK  status: ('A' for Active; 'I' for Inactive)
REMARK    1  A    between atoms: C_4  and  C_7
REMARK    2  A    between atoms: C_8  and  C_9
REMARK    3  A    between atoms: N_10  and  N_11
REMARK    4  A    between atoms: C_12  and  C_14
REMARK    5  A    between atoms: C_16  and  C_20
REMARK                            x       y       z     vdW  Elec       q    Type
REMARK                         _______ _______ _______ _____ _____    ______ ____
ROOT
ATOM      1  N   UNL     1       6.199  -4.699  -0.084  0.00  0.00    -0.202 N 
ATOM      2  C   UNL     1       6.222  -6.047  -0.091  0.00  0.00    +0.281 C 
ATOM      3  O   UNL     1       5.178  -6.673  -0.084  0.00  0.00    -0.267 OA
ATOM      4  H   UNL     1       7.031  -4.201  -0.089  0.00  0.00    +0.178 HD
ENDROOT
BRANCH   2   5
ATOM      5  C   UNL     1       7.508  -6.761  -0.107  0.00  0.00    +0.122 A 
ATOM      6  C   UNL     1       7.694  -8.131  -0.122  0.00  0.00    +0.062 A 
ATOM      7  C   UNL     1       9.088  -8.316  -0.135  0.00  0.00    +0.093 A 
ATOM      8  N   UNL     1       9.648  -7.125  -0.128  0.00  0.00    -0.173 NA
ATOM      9  N   UNL     1       8.755  -6.202  -0.117  0.00  0.00    -0.272 N 
ATOM     10  H   UNL     1       8.938  -5.249  -0.114  0.00  0.00    +0.189 HD
BRANCH   7  11
ATOM     11  C   UNL     1       9.800  -9.619  -0.154  0.00  0.00    +0.004 A 
ATOM     12  C   UNL     1       9.076 -10.810  -0.165  0.00  0.00    +0.011 A 
ATOM     13  C   UNL     1       9.742 -12.019  -0.183  0.00  0.00    +0.022 A 
ATOM     14  C   UNL     1      11.126 -12.050  -0.188  0.00  0.00    +0.059 A 
ATOM     15  C   UNL     1      11.849 -10.869  -0.177  0.00  0.00    +0.060 A 
ATOM     16  C   UNL     1      11.192  -9.654  -0.165  0.00  0.00    +0.031 A 
ATOM     17 CL   UNL     1      13.585 -10.916  -0.184  0.00  0.00    -0.082 Cl
ATOM     18 CL   UNL     1      11.957 -13.574  -0.209  0.00  0.00    -0.082 Cl
ENDBRANCH   7  11
ENDBRANCH   2   5
BRANCH   1  20
ATOM     19  C   UNL     1       4.953  -2.717  -0.060  0.00  0.00    +0.130 C 
ATOM     20  N   UNL     1       4.975  -4.019  -0.068  0.00  0.00    -0.188 NA
BRANCH  19  22
ATOM     21  C   UNL     1       3.692  -0.680  -0.037  0.00  0.00    +0.009 C 
ATOM     22  C   UNL     1       3.714  -2.029  -0.045  0.00  0.00    +0.022 C 
BRANCH  21  26
ATOM     23  C   UNL     1      -0.017   1.380   0.010  0.00  0.00    +0.000 A 
ATOM     24  C   UNL     1       1.168   2.095   0.002  0.00  0.00    +0.001 A 
ATOM     25  C   UNL     1       2.377   1.433  -0.013  0.00  0.00    +0.008 A 
ATOM     26  C   UNL     1       2.405   0.035  -0.021  0.00  0.00    -0.025 A 
ATOM     27  C   UNL     1       1.203  -0.681  -0.013  0.00  0.00    +0.008 A 
ATOM     28  C   UNL     1       0.002  -0.004   0.002  0.00  0.00    +0.001 A 
ENDBRANCH  21  26
ENDBRANCH  19  22
ENDBRANCH   1  20
TORSDOF 5
