REMARK  Name = ZINC30154076
REMARK  7 active torsions:
REMARK  status: ('A' for Active; 'I' for Inactive)
REMARK    1  A    between atoms: C_1  and  C_2
REMARK    2  A    between atoms: C_7  and  C_8
REMARK    3  A    between atoms: C_8  and  N_9
REMARK    4  A    between atoms: N_13  and  C_16
REMARK    5  A    between atoms: C_16  and  C_17
REMARK    6  A    between atoms: N_19  and  N_20
REMARK    7  A    between atoms: C_26  and  C_29
REMARK                            x       y       z     vdW  Elec       q    Type
REMARK                         _______ _______ _______ _____ _____    ______ ____
ROOT
ATOM      1  C   UNL     1       2.754   3.237   3.374  0.00  0.00    +0.244 C 
ATOM      2  O   UNL     1       2.308   2.352   4.074  0.00  0.00    -0.273 OA
ATOM      3  N   UNL     1       3.394   4.282   3.934  0.00  0.00    -0.223 N 
ATOM      4  H   UNL     1       3.798   5.084   3.299  0.00  0.00    +0.174 HD
ENDROOT
BRANCH   3   5
ATOM      5  N   UNL     1       3.545   4.346   5.326  0.00  0.00    -0.137 N 
ATOM      6  C   UNL     1       4.702   4.101   5.975  0.00  0.00    +0.263 C 
ATOM      7  O   UNL     1       5.767   3.794   5.486  0.00  0.00    -0.271 OA
ATOM      8  C   UNL     1       4.389   4.289   7.442  0.00  0.00    +0.114 C 
ATOM      9  C   UNL     1       5.236   5.415   8.025  0.00  0.00    +0.035 C 
ATOM     10  C   UNL     1       4.884   5.609   9.502  0.00  0.00    +0.006 C 
ATOM     11  C   UNL     1       5.144   4.307  10.262  0.00  0.00    -0.014 C 
ATOM     12  C   UNL     1       4.270   3.193   9.682  0.00  0.00    +0.006 C 
ATOM     13  C   UNL     1       4.619   2.990   8.205  0.00  0.00    +0.035 C 
ATOM     14  C   UNL     1       4.805   4.503  11.741  0.00  0.00    +0.007 C 
ATOM     15  N   UNL     1       2.966   4.652   7.459  0.00  0.00    -0.284 N 
ATOM     16  C   UNL     1       2.561   4.665   6.175  0.00  0.00    +0.326 C 
ATOM     17  O   UNL     1       1.428   4.933   5.827  0.00  0.00    -0.251 OA
ATOM     18  H   UNL     1       2.460   4.848   8.416  0.00  0.00    +0.151 HD
ENDBRANCH   3   5
BRANCH   1  19
ATOM     19  C   UNL     1       2.591   3.167   1.877  0.00  0.00    +0.182 C 
BRANCH  19  24
ATOM     20  N   UNL     1       0.003  -0.004   0.091  0.00  0.00    +0.383 N 
ATOM     21  C   UNL     1       0.576  -0.586   1.324  0.00  0.00    -0.077 C 
ATOM     22  C   UNL     1       2.080  -0.540   1.220  0.00  0.00    -0.003 C 
ATOM     23  C   UNL     1       2.664   0.738   1.844  0.00  0.00    +0.083 C 
ATOM     24  N   UNL     1       1.865   1.942   1.520  0.00  0.00    -0.296 NA
ATOM     25  C   UNL     1       1.410   1.990   0.148  0.00  0.00    +0.066 C 
ATOM     26  C   UNL     1      -0.011   1.396   0.073  0.00  0.00    -0.063 C 
ATOM     27  H   UNL     1       0.683  -0.245  -0.739  0.00  0.00    -0.081 HD
BRANCH  20  28
ATOM     28  C   UNL     1      -1.337  -0.547  -0.174  0.00  0.00    -0.043 C 
BRANCH  28  35
ATOM     29  C   UNL     1      -0.093  -2.127  -2.248  0.00  0.00    +0.044 C 
ATOM     30  C   UNL     1      -0.707  -2.805  -1.051  0.00  0.00    -0.049 A 
ATOM     31  C   UNL     1      -0.671  -4.183  -0.943  0.00  0.00    +0.003 A 
ATOM     32  C   UNL     1      -1.238  -4.805   0.154  0.00  0.00    +0.000 A 
ATOM     33  C   UNL     1      -1.838  -4.049   1.144  0.00  0.00    +0.000 A 
ATOM     34  C   UNL     1      -1.870  -2.671   1.038  0.00  0.00    +0.002 A 
ATOM     35  C   UNL     1      -1.302  -2.049  -0.058  0.00  0.00    -0.061 A 
ENDBRANCH  28  35
ENDBRANCH  20  28
ENDBRANCH  19  24
ENDBRANCH   1  19
TORSDOF 5
