REMARK  Name = ZINC63360088
REMARK  4 active torsions:
REMARK  status: ('A' for Active; 'I' for Inactive)
REMARK    1  A    between atoms: C_4  and  N_27
REMARK    2  A    between atoms: C_5  and  C_7
REMARK    3  A    between atoms: C_7  and  N_8
REMARK    4  A    between atoms: C_14  and  C_17
REMARK                            x       y       z     vdW  Elec       q    Type
REMARK                         _______ _______ _______ _____ _____    ______ ____
ROOT
ATOM      1  N   UNL     1       1.485  -2.680   1.333  0.00  0.00    -0.295 N 
ATOM      2  C   UNL     1       1.549  -4.005   1.567  0.00  0.00    +0.303 C 
ATOM      3  O   UNL     1       1.301  -4.793   0.675  0.00  0.00    -0.253 OA
ATOM      4  N   UNL     1       1.887  -4.458   2.791  0.00  0.00    -0.282 N 
ATOM      5  C   UNL     1       2.076  -5.896   3.050  0.00  0.00    +0.114 C 
ATOM      6  C   UNL     1       3.531  -6.111   3.475  0.00  0.00    +0.054 C 
ATOM      7  C   UNL     1       3.938  -5.083   4.489  0.00  0.00    -0.039 C 
ATOM      8  C   UNL     1       3.310  -3.947   4.684  0.00  0.00    -0.004 C 
ATOM      9  C   UNL     1       2.088  -3.537   3.918  0.00  0.00    +0.137 C 
ATOM     10  H   UNL     1       1.609  -2.052   2.062  0.00  0.00    +0.151 HD
ENDROOT
BRANCH   7  11
ATOM     11  C   UNL     1       5.122  -5.368   5.322  0.00  0.00    +0.003 A 
ATOM     12  C   UNL     1       5.192  -6.239   6.362  0.00  0.00    +0.091 A 
ATOM     13  N   UNL     1       6.452  -6.230   6.886  0.00  0.00    -0.360 N 
ATOM     14  H   UNL     1       6.744  -6.771   7.637  0.00  0.00    +0.165 HD
ATOM     15  C   UNL     1       7.248  -5.342   6.196  0.00  0.00    +0.047 A 
ATOM     16  C   UNL     1       6.460  -4.768   5.184  0.00  0.00    +0.007 A 
ATOM     17  C   UNL     1       7.013  -3.827   4.318  0.00  0.00    +0.010 A 
ATOM     18  C   UNL     1       8.335  -3.467   4.456  0.00  0.00    +0.001 A 
ATOM     19  C   UNL     1       9.116  -4.037   5.452  0.00  0.00    +0.002 A 
ATOM     20  C   UNL     1       8.581  -4.962   6.321  0.00  0.00    +0.026 A 
ENDBRANCH   7  11
BRANCH   1  21
ATOM     21  C   UNL     1       1.227  -2.187  -0.022  0.00  0.00    +0.143 C 
BRANCH  21  26
ATOM     22  C   UNL     1      -0.022   1.377   0.009  0.00  0.00    +0.000 A 
ATOM     23  C   UNL     1       1.164   2.089   0.004  0.00  0.00    +0.002 A 
ATOM     24  C   UNL     1       2.372   1.421  -0.009  0.00  0.00    +0.028 A 
ATOM     25  C   UNL     1       2.397   0.033  -0.018  0.00  0.00    +0.070 A 
ATOM     26  C   UNL     1       1.205  -0.680  -0.013  0.00  0.00    -0.005 A 
ATOM     27  C   UNL     1      -0.001  -0.006   0.001  0.00  0.00    +0.007 A 
BRANCH  25  28
ATOM     28  N   UNL     1       3.622  -0.648  -0.032  0.00  0.00    -0.240 N 
ATOM     29  C   UNL     1       4.849  -0.080  -0.033  0.00  0.00    +0.114 A 
ATOM     30  C   UNL     1       5.764  -1.076  -0.048  0.00  0.00    +0.041 A 
ATOM     31  C   UNL     1       5.076  -2.294  -0.056  0.00  0.00    +0.135 A 
ATOM     32  N   UNL     1       3.792  -2.039  -0.041  0.00  0.00    -0.175 NA
ENDBRANCH  25  28
ENDBRANCH  21  26
ENDBRANCH   1  21
TORSDOF 4
