REMARK  Name = ZINC09295302
REMARK  6 active torsions:
REMARK  status: ('A' for Active; 'I' for Inactive)
REMARK    1  A    between atoms: C_4  and  O_7
REMARK    2  A    between atoms: O_7  and  C_8
REMARK    3  A    between atoms: C_8  and  C_9
REMARK    4  A    between atoms: C_15  and  C_30
REMARK    5  A    between atoms: C_17  and  C_20
REMARK    6  A    between atoms: N_22  and  C_23
REMARK                            x       y       z     vdW  Elec       q    Type
REMARK                         _______ _______ _______ _____ _____    ______ ____
ROOT
ATOM      1  C   UNL     1       4.870   4.152   0.008  0.00  0.00    +0.189 A 
ATOM      2  N   UNL     1       5.596   4.460   1.048  0.00  0.00    -0.128 NA
ATOM      3  N   UNL     1       6.728   4.947   0.670  0.00  0.00    -0.121 NA
ATOM      4  C   UNL     1       6.772   4.981  -0.633  0.00  0.00    +0.209 A 
ATOM      5  N   UNL     1       5.597   4.470  -1.104  0.00  0.00    -0.222 N 
ATOM      6  N   UNL     1       5.239   4.305  -2.403  0.00  0.00    -0.272 N 
ATOM      7  C   UNL     1       5.972   5.168  -3.330  0.00  0.00    +0.140 C 
ATOM      8  C   UNL     1       7.479   4.894  -3.240  0.00  0.00    +0.166 C 
ATOM      9  S   UNL     1       8.077   5.575  -1.663  0.00  0.00    -0.069 S 
ATOM     10  H   UNL     1       5.309   3.337  -2.678  0.00  0.00    +0.167 HD
ENDROOT
BRANCH   7  11
ATOM     11  C   UNL     1       5.501   4.904  -4.737  0.00  0.00    -0.024 A 
ATOM     12  C   UNL     1       5.262   3.608  -5.153  0.00  0.00    +0.008 A 
ATOM     13  C   UNL     1       4.825   3.365  -6.441  0.00  0.00    +0.038 A 
ATOM     14  C   UNL     1       4.636   4.419  -7.318  0.00  0.00    +0.123 A 
ATOM     15  C   UNL     1       4.881   5.717  -6.902  0.00  0.00    +0.038 A 
ATOM     16  C   UNL     1       5.313   5.958  -5.611  0.00  0.00    +0.008 A 
ATOM     17  F   UNL     1       4.214   4.182  -8.579  0.00  0.00    -0.205 F 
ENDBRANCH   7  11
BRANCH   8  18
ATOM     18  C   UNL     1       8.189   5.565  -4.387  0.00  0.00    +0.233 C 
ATOM     19  O   UNL     1       7.776   6.619  -4.823  0.00  0.00    -0.274 OA
ATOM     20  N   UNL     1       9.284   4.994  -4.929  0.00  0.00    -0.283 N 
ATOM     21  H   UNL     1       9.652   4.186  -4.540  0.00  0.00    +0.155 HD
BRANCH  20  22
ATOM     22  C   UNL     1       9.888   5.568  -6.054  0.00  0.00    +0.052 A 
ATOM     23  C   UNL     1       9.907   6.948  -6.205  0.00  0.00    +0.025 A 
ATOM     24  C   UNL     1      10.509   7.511  -7.314  0.00  0.00    +0.002 A 
ATOM     25  C   UNL     1      11.082   6.702  -8.278  0.00  0.00    +0.002 A 
ATOM     26  C   UNL     1      11.061   5.327  -8.133  0.00  0.00    +0.022 A 
ATOM     27  C   UNL     1      10.465   4.757  -7.024  0.00  0.00    +0.062 A 
ATOM     28 CL   UNL     1      10.439   3.031  -6.842  0.00  0.00    -0.082 Cl
ENDBRANCH  20  22
ENDBRANCH   8  18
BRANCH   1  29
ATOM     29  C   UNL     1       3.485   3.559   0.030  0.00  0.00    +0.306 C 
BRANCH  29  30
ATOM     30  O   UNL     1       3.576   2.133   0.028  0.00  0.00    -0.484 OA
BRANCH  30  34
ATOM     31  C   UNL     1       0.028   0.029   0.084  0.00  0.00    +0.000 A 
ATOM     32  C   UNL     1       0.011   1.411   0.085  0.00  0.00    +0.004 A 
ATOM     33  C   UNL     1       1.198   2.118   0.066  0.00  0.00    +0.045 A 
ATOM     34  C   UNL     1       2.408   1.440   0.047  0.00  0.00    +0.121 A 
ATOM     35  C   UNL     1       2.422   0.053   0.047  0.00  0.00    +0.045 A 
ATOM     36  C   UNL     1       1.233  -0.650   0.065  0.00  0.00    +0.004 A 
ENDBRANCH  30  34
ENDBRANCH  29  30
ENDBRANCH   1  29
TORSDOF 6
