REMARK  Name = ZINC44729540
REMARK  8 active torsions:
REMARK  status: ('A' for Active; 'I' for Inactive)
REMARK    1  A    between atoms: C_1  and  C_2
REMARK    2  A    between atoms: C_4  and  C_8
REMARK    3  A    between atoms: C_5  and  C_7
REMARK    4  A    between atoms: C_8  and  C_10
REMARK    5  A    between atoms: C_8  and  N_11
REMARK    6  A    between atoms: N_11  and  S_12
REMARK    7  A    between atoms: S_12  and  C_15
REMARK    8  A    between atoms: C_20  and  N_21
REMARK                            x       y       z     vdW  Elec       q    Type
REMARK                         _______ _______ _______ _____ _____    ______ ____
ROOT
ATOM      1  S   UNL     1      -3.367  -4.150  -1.479  0.00  0.00    +0.061 S 
ATOM      2  O   UNL     1      -4.526  -3.608  -2.098  0.00  0.00    -0.153 OA
ATOM      3  O   UNL     1      -2.225  -4.554  -2.222  0.00  0.00    -0.153 OA
ENDROOT
BRANCH   1   4
ATOM      4  C   UNL     1      -3.898  -5.560  -0.565  0.00  0.00    +0.127 A 
ATOM      5  C   UNL     1      -3.237  -6.765  -0.708  0.00  0.00    +0.045 A 
ATOM      6  C   UNL     1      -3.653  -7.872   0.009  0.00  0.00    +0.020 A 
ATOM      7  C   UNL     1      -4.732  -7.777   0.871  0.00  0.00    +0.017 A 
ATOM      8  C   UNL     1      -5.396  -6.575   1.017  0.00  0.00    +0.026 A 
ATOM      9  C   UNL     1      -4.977  -5.460   0.303  0.00  0.00    +0.051 A 
ATOM     10 BR   UNL     1      -2.747  -9.520  -0.189  0.00  0.00    -0.050 Br
BRANCH   9  11
ATOM     11  N   UNL     1      -5.643  -4.241   0.454  0.00  0.00    -0.356 N 
ATOM     12  H   UNL     1      -5.339  -3.459  -0.031  0.00  0.00    +0.142 HD
ATOM     13  H   UNL     1      -6.411  -4.178   1.044  0.00  0.00    +0.142 HD
ENDBRANCH   9  11
ENDBRANCH   1   4
BRANCH   1  14
ATOM     14  N   UNL     1      -2.845  -3.024  -0.383  0.00  0.00    -0.183 NA
ATOM     15  H   UNL     1      -3.310  -2.177  -0.298  0.00  0.00    +0.149 HD
BRANCH  14  16
ATOM     16  C   UNL     1      -1.680  -3.307   0.460  0.00  0.00    +0.107 C 
ATOM     17  C   UNL     1      -2.064  -3.148   1.932  0.00  0.00    +0.031 C 
BRANCH  16  21
ATOM     18  C   UNL     1       0.861   0.810  -1.135  0.00  0.00    +0.086 C 
ATOM     19  C   UNL     1       0.522  -0.547  -0.574  0.00  0.00    +0.103 A 
ATOM     20  C   UNL     1      -0.716  -1.056  -0.443  0.00  0.00    +0.050 A 
ATOM     21  C   UNL     1      -0.571  -2.344   0.123  0.00  0.00    +0.012 A 
ATOM     22  C   UNL     1       0.747  -2.544   0.303  0.00  0.00    +0.107 A 
ATOM     23  O   UNL     1       1.404  -1.455  -0.126  0.00  0.00    -0.465 OA
ATOM     24  C   UNL     1       1.379  -3.784   0.883  0.00  0.00    +0.086 C 
ENDBRANCH  16  21
ENDBRANCH  14  16
ENDBRANCH   1  14
TORSDOF 5
