REMARK  Name = ZINC16769980
REMARK  12 active torsions:
REMARK  status: ('A' for Active; 'I' for Inactive)
REMARK    1  A    between atoms: C_1  and  C_2
REMARK    2  A    between atoms: C_5  and  C_8
REMARK    3  A    between atoms: C_11  and  S_14
REMARK    4  A    between atoms: N_12  and  N_13
REMARK    5  A    between atoms: S_14  and  C_15
REMARK    6  A    between atoms: C_15  and  C_17
REMARK    7  A    between atoms: C_15  and  C_18
REMARK    8  A    between atoms: N_20  and  C_21
REMARK    9  A    between atoms: C_25  and  S_27
REMARK   10  A    between atoms: S_27  and  N_30
REMARK   11  A    between atoms: N_30  and  C_31
REMARK   12  A    between atoms: N_30  and  C_32
REMARK                            x       y       z     vdW  Elec       q    Type
REMARK                         _______ _______ _______ _____ _____    ______ ____
ROOT
ATOM      1  C   UNL     1      -0.177   1.217  -0.188  0.00  0.00    +0.137 C 
ATOM      2  C   UNL     1      -0.995   1.720  -1.379  0.00  0.00    +0.029 C 
ENDROOT
BRANCH   1   3
ATOM      3  C   UNL     1      -0.826   1.670   1.095  0.00  0.00    +0.230 C 
ATOM      4  O   UNL     1      -0.450   2.688   1.637  0.00  0.00    -0.274 OA
ATOM      5  N   UNL     1      -1.824   0.945   1.639  0.00  0.00    -0.285 N 
ATOM      6  H   UNL     1      -2.172   0.171   1.169  0.00  0.00    +0.155 HD
BRANCH   5   7
ATOM      7  C   UNL     1      -2.357   1.310   2.880  0.00  0.00    +0.035 A 
ATOM      8  C   UNL     1      -2.784   0.331   3.768  0.00  0.00    +0.025 A 
ATOM      9  C   UNL     1      -3.305   0.693   4.995  0.00  0.00    +0.024 A 
ATOM     10  C   UNL     1      -3.413   2.030   5.335  0.00  0.00    +0.067 A 
ATOM     11  C   UNL     1      -2.993   3.007   4.450  0.00  0.00    +0.125 A 
ATOM     12  C   UNL     1      -2.465   2.650   3.224  0.00  0.00    +0.053 A 
ATOM     13 CL   UNL     1      -4.075   2.482   6.875  0.00  0.00    -0.082 Cl
BRANCH  11  14
ATOM     14  S   UNL     1      -3.130   4.708   4.888  0.00  0.00    +0.062 S 
ATOM     15  O   UNL     1      -2.642   5.453   3.780  0.00  0.00    -0.153 OA
ATOM     16  O   UNL     1      -4.439   4.889   5.410  0.00  0.00    -0.153 OA
BRANCH  14  17
ATOM     17  N   UNL     1      -2.080   4.978   6.139  0.00  0.00    -0.183 NA
ATOM     18  C   UNL     1      -0.667   5.252   5.864  0.00  0.00    +0.131 C 
ATOM     19  C   UNL     1      -2.564   4.944   7.522  0.00  0.00    +0.131 C 
ENDBRANCH  14  17
ENDBRANCH  11  14
ENDBRANCH   5   7
ENDBRANCH   1   3
BRANCH   1  20
ATOM     20  S   UNL     1       1.502   1.885  -0.283  0.00  0.00    -0.072 S 
BRANCH  20  24
ATOM     21  C   UNL     1       3.270   0.437  -3.453  0.00  0.00    +0.182 A 
ATOM     22  N   UNL     1       2.082  -0.119  -3.506  0.00  0.00    -0.127 NA
ATOM     23  N   UNL     1       1.371   0.269  -2.509  0.00  0.00    -0.121 NA
ATOM     24  C   UNL     1       2.061   1.097  -1.757  0.00  0.00    +0.209 A 
ATOM     25  N   UNL     1       3.291   1.238  -2.334  0.00  0.00    -0.224 N 
BRANCH  21  30
ATOM     26  C   UNL     1       7.568  -0.310  -7.206  0.00  0.00    +0.044 C 
ATOM     27  C   UNL     1       6.442  -0.115  -6.223  0.00  0.00    -0.050 A 
ATOM     28  C   UNL     1       5.159  -0.509  -6.558  0.00  0.00    +0.004 A 
ATOM     29  C   UNL     1       4.124  -0.333  -5.663  0.00  0.00    +0.012 A 
ATOM     30  C   UNL     1       4.374   0.245  -4.417  0.00  0.00    +0.021 A 
ATOM     31  C   UNL     1       5.670   0.645  -4.087  0.00  0.00    +0.012 A 
ATOM     32  C   UNL     1       6.697   0.458  -4.989  0.00  0.00    +0.004 A 
ENDBRANCH  21  30
BRANCH  25  33
ATOM     33  N   UNL     1       4.327   2.010  -1.892  0.00  0.00    -0.295 N 
ATOM     34  H   UNL     1       4.923   1.491  -1.265  0.00  0.00    +0.163 HD
ATOM     35  H   UNL     1       4.854   2.385  -2.666  0.00  0.00    +0.163 HD
ENDBRANCH  25  33
ENDBRANCH  20  24
ENDBRANCH   1  20
TORSDOF 8
