REMARK  Name = ZINC12541928
REMARK  9 active torsions:
REMARK  status: ('A' for Active; 'I' for Inactive)
REMARK    1  A    between atoms: C_1  and  C_2
REMARK    2  A    between atoms: C_2  and  C_4
REMARK    3  A    between atoms: C_2  and  N_14
REMARK    4  A    between atoms: C_15  and  C_17
REMARK    5  A    between atoms: C_17  and  O_18
REMARK    6  A    between atoms: O_18  and  C_19
REMARK    7  A    between atoms: C_19  and  C_21
REMARK    8  A    between atoms: C_21  and  N_22
REMARK    9  A    between atoms: C_23  and  C_25
REMARK                            x       y       z     vdW  Elec       q    Type
REMARK                         _______ _______ _______ _____ _____    ______ ____
ROOT
ATOM      1  N   UNL     1      -1.191   1.867   0.018  0.00  0.00    -0.309 N 
ATOM      2  C   UNL     1      -0.014   1.209   0.009  0.00  0.00    +0.251 C 
ATOM      3  O   UNL     1       0.002  -0.004   0.002  0.00  0.00    -0.272 OA
ATOM      4  H   UNL     1      -1.204   2.837   0.023  0.00  0.00    +0.149 HD
ENDROOT
BRANCH   1   6
ATOM      5  C   UNL     1      -2.816   0.740   1.456  0.00  0.00    +0.028 C 
ATOM      6  C   UNL     1      -2.449   1.117   0.020  0.00  0.00    +0.076 C 
BRANCH   6   7
ATOM      7  C   UNL     1      -3.559   1.982  -0.580  0.00  0.00    -0.010 C 
ATOM      8  C   UNL     1      -3.192   2.359  -2.017  0.00  0.00    +0.012 C 
ATOM      9  C   UNL     1      -4.302   3.225  -2.616  0.00  0.00    -0.010 C 
ATOM     10  C   UNL     1      -5.617   2.442  -2.614  0.00  0.00    +0.007 C 
ATOM     11  C   UNL     1      -5.984   2.065  -1.178  0.00  0.00    -0.010 C 
ATOM     12  C   UNL     1      -4.874   1.200  -0.578  0.00  0.00    +0.012 C 
ATOM     13  C   UNL     1      -6.146   3.337  -0.343  0.00  0.00    +0.007 C 
ATOM     14  C   UNL     1      -4.832   4.120  -0.344  0.00  0.00    -0.010 C 
ATOM     15  C   UNL     1      -4.465   4.496  -1.781  0.00  0.00    +0.007 C 
ATOM     16  C   UNL     1      -3.722   3.254   0.255  0.00  0.00    +0.012 C 
ENDBRANCH   6   7
ENDBRANCH   1   6
BRANCH   2  17
ATOM     17  C   UNL     1       1.280   1.980   0.001  0.00  0.00    +0.327 C 
BRANCH  17  18
ATOM     18  O   UNL     1       2.397   1.051  -0.015  0.00  0.00    -0.454 OA
BRANCH  18  19
ATOM     19  C   UNL     1       3.630   1.581  -0.024  0.00  0.00    +0.325 C 
ATOM     20  O   UNL     1       3.772   2.781  -0.019  0.00  0.00    -0.249 OA
BRANCH  19  21
ATOM     21  C   UNL     1       4.837   0.680  -0.041  0.00  0.00    +0.225 C 
BRANCH  21  22
ATOM     22  N   UNL     1       6.055   1.494  -0.048  0.00  0.00    -0.301 N 
ATOM     23  C   UNL     1       7.264   0.899  -0.062  0.00  0.00    +0.246 C 
ATOM     24  O   UNL     1       7.344  -0.314  -0.070  0.00  0.00    -0.270 OA
ATOM     25  H   UNL     1       5.991   2.462  -0.042  0.00  0.00    +0.150 HD
BRANCH  23  26
ATOM     26  C   UNL     1       8.492   1.720  -0.070  0.00  0.00    +0.050 A 
ATOM     27  C   UNL     1       8.404   3.114  -0.067  0.00  0.00    +0.014 A 
ATOM     28  C   UNL     1       9.554   3.875  -0.070  0.00  0.00    +0.001 A 
ATOM     29  C   UNL     1      10.794   3.260  -0.085  0.00  0.00    +0.001 A 
ATOM     30  C   UNL     1      10.890   1.881  -0.092  0.00  0.00    +0.015 A 
ATOM     31  C   UNL     1       9.747   1.107  -0.085  0.00  0.00    +0.025 A 
ATOM     32  I   UNL     1       9.893  -0.983  -0.098  0.00  0.00    -0.043 I 
ENDBRANCH  23  26
ENDBRANCH  21  22
ENDBRANCH  19  21
ENDBRANCH  18  19
ENDBRANCH  17  18
ENDBRANCH   2  17
TORSDOF 8
