REMARK  Name = ZINC13346234
REMARK  6 active torsions:
REMARK  status: ('A' for Active; 'I' for Inactive)
REMARK    1  A    between atoms: C_4  and  C_7
REMARK    2  A    between atoms: C_10  and  S_19
REMARK    3  A    between atoms: N_11  and  C_12
REMARK    4  A    between atoms: S_19  and  C_20
REMARK    5  A    between atoms: C_20  and  C_21
REMARK    6  A    between atoms: C_29  and  C_33
REMARK                            x       y       z     vdW  Elec       q    Type
REMARK                         _______ _______ _______ _____ _____    ______ ____
ROOT
ATOM      1  C   UNL     1       3.695  -0.684  -0.038  0.00  0.00    +0.169 A 
ATOM      2  N   UNL     1       4.871  -0.170  -0.316  0.00  0.00    -0.128 NA
ATOM      3  N   UNL     1       5.778  -1.077  -0.237  0.00  0.00    -0.122 NA
ATOM      4  C   UNL     1       5.238  -2.229   0.095  0.00  0.00    +0.197 A 
ATOM      5  N   UNL     1       3.894  -2.019   0.239  0.00  0.00    -0.270 N 
ENDROOT
BRANCH   5   6
ATOM      6  C   UNL     1       2.922  -2.966   0.593  0.00  0.00    +0.051 A 
ATOM      7  C   UNL     1       2.225  -2.833   1.786  0.00  0.00    +0.028 A 
ATOM      8  C   UNL     1       1.268  -3.767   2.133  0.00  0.00    +0.022 A 
ATOM      9  C   UNL     1       1.003  -4.833   1.292  0.00  0.00    +0.041 A 
ATOM     10  C   UNL     1       1.697  -4.967   0.102  0.00  0.00    +0.022 A 
ATOM     11  C   UNL     1       2.651  -4.033  -0.252  0.00  0.00    +0.028 A 
ATOM     12 CL   UNL     1      -0.201  -6.005   1.730  0.00  0.00    -0.084 Cl
ENDBRANCH   5   6
BRANCH   1  16
ATOM     13  C   UNL     1      -0.017   1.379   0.010  0.00  0.00    +0.000 A 
ATOM     14  C   UNL     1       1.168   2.094   0.002  0.00  0.00    +0.001 A 
ATOM     15  C   UNL     1       2.377   1.429  -0.013  0.00  0.00    +0.011 A 
ATOM     16  C   UNL     1       2.404   0.034  -0.021  0.00  0.00    +0.020 A 
ATOM     17  C   UNL     1       1.204  -0.681  -0.013  0.00  0.00    +0.011 A 
ATOM     18  C   UNL     1       0.002  -0.004   0.002  0.00  0.00    +0.001 A 
ENDBRANCH   1  16
BRANCH   4  19
ATOM     19  S   UNL     1       6.088  -3.756   0.319  0.00  0.00    -0.078 S 
BRANCH  19  20
ATOM     20  C   UNL     1       7.824  -3.344  -0.012  0.00  0.00    +0.151 C 
BRANCH  20  21
ATOM     21  C   UNL     1       8.672  -4.579   0.147  0.00  0.00    +0.121 A 
ATOM     22  N   UNL     1      10.011  -4.472  -0.056  0.00  0.00    -0.310 N 
ATOM     23  H   UNL     1      10.394  -3.614  -0.296  0.00  0.00    +0.170 HD
ATOM     24  C   UNL     1      10.817  -5.551   0.075  0.00  0.00    +0.259 A 
ATOM     25  O   UNL     1      12.018  -5.469  -0.103  0.00  0.00    -0.267 OA
ATOM     26  C   UNL     1      10.183  -6.830   0.442  0.00  0.00    +0.065 A 
ATOM     27  C   UNL     1      10.926  -7.998   0.602  0.00  0.00    +0.016 A 
ATOM     28  C   UNL     1      10.298  -9.162   0.943  0.00  0.00    +0.016 A 
ATOM     29  C   UNL     1       8.911  -9.193   1.136  0.00  0.00    +0.065 A 
ATOM     30  C   UNL     1       8.152  -8.039   0.981  0.00  0.00    +0.043 A 
ATOM     31  C   UNL     1       8.784  -6.843   0.632  0.00  0.00    +0.079 A 
ATOM     32  N   UNL     1       8.087  -5.690   0.476  0.00  0.00    -0.233 NA
BRANCH  29  33
ATOM     33  C   UNL     1       8.249 -10.463   1.505  0.00  0.00    +0.387 C 
ATOM     34  O   UNL     1       8.912 -11.480   1.642  0.00  0.00    -0.241 OA
ATOM     35  O   UNL     1       7.039 -10.495   1.674  0.00  0.00    -0.241 OA
ENDBRANCH  29  33
ENDBRANCH  20  21
ENDBRANCH  19  20
ENDBRANCH   4  19
TORSDOF 6
