REMARK  Name = ZINC12866684
REMARK  8 active torsions:
REMARK  status: ('A' for Active; 'I' for Inactive)
REMARK    1  A    between atoms: C_1  and  C_2
REMARK    2  A    between atoms: C_2  and  C_4
REMARK    3  A    between atoms: C_2  and  N_16
REMARK    4  A    between atoms: N_6  and  C_7
REMARK    5  A    between atoms: C_7  and  C_8
REMARK    6  A    between atoms: C_8  and  C_9
REMARK    7  A    between atoms: C_9  and  C_10
REMARK    8  A    between atoms: C_19  and  C_35
REMARK                            x       y       z     vdW  Elec       q    Type
REMARK                         _______ _______ _______ _____ _____    ______ ____
ROOT
ATOM      1  N   UNL     1       8.746  -3.525  -4.595  0.00  0.00    -0.212 N 
ATOM      2  C   UNL     1       9.874  -3.050  -5.167  0.00  0.00    +0.253 C 
ATOM      3  O   UNL     1      10.001  -2.022  -5.797  0.00  0.00    -0.272 OA
ATOM      4  C   UNL     1      10.944  -4.069  -4.855  0.00  0.00    +0.153 C 
ATOM      5  C   UNL     1      11.596  -4.605  -6.107  0.00  0.00    +0.053 A 
ATOM      6  C   UNL     1      11.652  -5.924  -6.400  0.00  0.00    -0.015 A 
ATOM      7  C   UNL     1      12.363  -6.037  -7.661  0.00  0.00    +0.003 A 
ATOM      8  C   UNL     1      12.725  -7.138  -8.444  0.00  0.00    +0.010 A 
ATOM      9  C   UNL     1      13.409  -6.874  -9.605  0.00  0.00    +0.001 A 
ATOM     10  C   UNL     1      13.729  -5.584  -9.994  0.00  0.00    +0.002 A 
ATOM     11  C   UNL     1      13.383  -4.477  -9.238  0.00  0.00    +0.026 A 
ATOM     12  C   UNL     1      12.688  -4.715  -8.053  0.00  0.00    +0.047 A 
ATOM     13  N   UNL     1      12.205  -3.876  -7.092  0.00  0.00    -0.356 N 
ATOM     14  H   UNL     1      12.282  -2.909  -7.104  0.00  0.00    +0.166 HD
ATOM     15  C   UNL     1      11.067  -7.046  -5.581  0.00  0.00    +0.056 C 
ATOM     16  C   UNL     1      10.712  -6.553  -4.181  0.00  0.00    +0.115 C 
ATOM     17  N   UNL     1      10.165  -5.200  -4.299  0.00  0.00    -0.266 N 
ATOM     18  C   UNL     1       8.941  -4.736  -4.049  0.00  0.00    +0.313 C 
ATOM     19  O   UNL     1       8.102  -5.335  -3.405  0.00  0.00    -0.252 OA
ATOM     20  C   UNL     1      11.976  -3.534  -3.859  0.00  0.00    +0.048 C 
ENDROOT
BRANCH   1  22
ATOM     21  C   UNL     1       6.405  -3.647  -5.294  0.00  0.00    +0.038 C 
ATOM     22  C   UNL     1       7.468  -2.809  -4.579  0.00  0.00    +0.168 C 
BRANCH  22  23
ATOM     23  C   UNL     1       7.043  -2.572  -3.152  0.00  0.00    +0.234 C 
ATOM     24  O   UNL     1       7.740  -2.961  -2.239  0.00  0.00    -0.274 OA
ATOM     25  N   UNL     1       5.889  -1.926  -2.891  0.00  0.00    -0.314 N 
ATOM     26  H   UNL     1       5.332  -1.615  -3.621  0.00  0.00    +0.149 HD
BRANCH  25  27
ATOM     27  C   UNL     1       5.477  -1.695  -1.504  0.00  0.00    +0.104 C 
BRANCH  27  28
ATOM     28  C   UNL     1       4.142  -0.948  -1.487  0.00  0.00    +0.023 C 
BRANCH  28  29
ATOM     29  C   UNL     1       3.711  -0.707  -0.039  0.00  0.00    +0.036 C 
BRANCH  29  30
ATOM     30  C   UNL     1       2.396   0.029  -0.022  0.00  0.00    -0.047 A 
ATOM     31  C   UNL     1       1.208  -0.679  -0.014  0.00  0.00    +0.003 A 
ATOM     32  C   UNL     1       0.002  -0.004   0.002  0.00  0.00    +0.000 A 
ATOM     33  C   UNL     1      -0.017   1.378   0.010  0.00  0.00    +0.000 A 
ATOM     34  C   UNL     1       1.171   2.086   0.002  0.00  0.00    +0.000 A 
ATOM     35  C   UNL     1       2.377   1.411  -0.014  0.00  0.00    +0.003 A 
ENDBRANCH  29  30
ENDBRANCH  28  29
ENDBRANCH  27  28
ENDBRANCH  25  27
ENDBRANCH  22  23
ENDBRANCH   1  22
TORSDOF 6
