REMARK  Name = ZINC23053371
REMARK  10 active torsions:
REMARK  status: ('A' for Active; 'I' for Inactive)
REMARK    1  A    between atoms: C_1  and  C_2
REMARK    2  A    between atoms: C_4  and  C_32
REMARK    3  A    between atoms: C_5  and  N_9
REMARK    4  A    between atoms: C_6  and  C_8
REMARK    5  A    between atoms: C_12  and  C_15
REMARK    6  A    between atoms: C_15  and  O_16
REMARK    7  A    between atoms: O_16  and  C_17
REMARK    8  A    between atoms: C_17  and  C_19
REMARK    9  A    between atoms: C_21  and  N_27
REMARK   10  A    between atoms: C_29  and  C_31
REMARK                            x       y       z     vdW  Elec       q    Type
REMARK                         _______ _______ _______ _____ _____    ______ ____
ROOT
ATOM      1  N   UNL     1      -3.533   9.136   0.088  0.00  0.00    -0.218 N 
ATOM      2  C   UNL     1      -3.082   7.820   0.081  0.00  0.00    +0.172 A 
ATOM      3  N   UNL     1      -1.843   7.369   0.064  0.00  0.00    -0.226 NA
ATOM      4  C   UNL     1      -1.587   6.076   0.059  0.00  0.00    +0.088 A 
ATOM      5  C   UNL     1      -2.630   5.210   0.065  0.00  0.00    +0.075 A 
ATOM      6  S   UNL     1      -4.006   6.350   0.090  0.00  0.00    -0.060 S 
ATOM      7  C   UNL     1      -2.651  10.151   0.181  0.00  0.00    +0.223 C 
ATOM      8  O   UNL     1      -1.460   9.922   0.164  0.00  0.00    -0.275 OA
ATOM      9  C   UNL     1      -3.143  11.569   0.305  0.00  0.00    +0.110 C 
ENDROOT
BRANCH   1  14
ATOM     10  C   UNL     1      -9.089  10.233  -0.271  0.00  0.00    +0.044 C 
ATOM     11  C   UNL     1      -7.614   9.942  -0.176  0.00  0.00    -0.050 A 
ATOM     12  C   UNL     1      -7.022   9.773   1.063  0.00  0.00    +0.008 A 
ATOM     13  C   UNL     1      -5.670   9.506   1.154  0.00  0.00    -0.028 A 
ATOM     14  C   UNL     1      -4.904   9.407  -0.001  0.00  0.00    +0.049 A 
ATOM     15  C   UNL     1      -5.500   9.583  -1.243  0.00  0.00    -0.028 A 
ATOM     16  C   UNL     1      -6.854   9.844  -1.327  0.00  0.00    +0.008 A 
ATOM     17  C   UNL     1      -4.671   9.483  -2.497  0.00  0.00    +0.046 C 
ATOM     18  C   UNL     1      -5.027   9.322   2.504  0.00  0.00    +0.046 C 
ENDBRANCH   1  14
BRANCH   4  19
ATOM     19  C   UNL     1      -0.167   5.571   0.040  0.00  0.00    +0.288 C 
BRANCH  19  20
ATOM     20  O   UNL     1      -0.169   4.119   0.037  0.00  0.00    -0.454 OA
BRANCH  20  21
ATOM     21  C   UNL     1       1.030   3.506   0.021  0.00  0.00    +0.360 C 
ATOM     22  O   UNL     1       2.050   4.166   0.010  0.00  0.00    -0.243 OA
BRANCH  21  23
ATOM     23  C   UNL     1       1.105   2.029   0.017  0.00  0.00    +0.169 A 
ATOM     24  C   UNL     1       2.348   1.402  -0.000  0.00  0.00    +0.095 A 
ATOM     25  C   UNL     1       2.402   0.007  -0.003  0.00  0.00    +0.067 A 
ATOM     26  C   UNL     1       1.202  -0.701   0.010  0.00  0.00    +0.100 A 
ATOM     27  C   UNL     1       0.004  -0.004   0.026  0.00  0.00    +0.150 A 
ATOM     28  N   UNL     1      -0.015   1.312   0.029  0.00  0.00    -0.226 NA
ATOM     29 CL   UNL     1      -1.495  -0.880   0.043  0.00  0.00    -0.060 Cl
ATOM     30 CL   UNL     1       1.207  -2.437   0.006  0.00  0.00    -0.078 Cl
ATOM     31 CL   UNL     1       3.809   2.340  -0.017  0.00  0.00    -0.079 Cl
BRANCH  25  32
ATOM     32  N   UNL     1       3.625  -0.660  -0.020  0.00  0.00    -0.356 N 
ATOM     33  H   UNL     1       3.651  -1.760  -0.022  0.00  0.00    +0.142 HD
ATOM     34  H   UNL     1       4.564  -0.088  -0.031  0.00  0.00    +0.142 HD
ENDBRANCH  25  32
ENDBRANCH  21  23
ENDBRANCH  20  21
ENDBRANCH  19  20
ENDBRANCH   4  19
TORSDOF 6
