REMARK  Name = ZINC10187955
REMARK  5 active torsions:
REMARK  status: ('A' for Active; 'I' for Inactive)
REMARK    1  A    between atoms: C_3  and  C_10
REMARK    2  A    between atoms: C_5  and  N_7
REMARK    3  A    between atoms: C_10  and  N_11
REMARK    4  A    between atoms: C_13  and  C_18
REMARK    5  A    between atoms: N_20  and  C_21
REMARK                            x       y       z     vdW  Elec       q    Type
REMARK                         _______ _______ _______ _____ _____    ______ ____
ROOT
ATOM      1  N   UNL     1       4.773   0.476   0.112  0.00  0.00    -0.310 N 
ATOM      2  C   UNL     1       3.673   1.247   0.028  0.00  0.00    +0.102 A 
ATOM      3  C   UNL     1       2.416   0.678   0.064  0.00  0.00    +0.053 A 
ATOM      4  C   UNL     1       2.290  -0.728   0.178  0.00  0.00    +0.020 A 
ATOM      5  C   UNL     1       3.416  -1.486   0.255  0.00  0.00    +0.071 A 
ATOM      6  C   UNL     1       4.677  -0.861   0.221  0.00  0.00    +0.252 A 
ATOM      7  O   UNL     1       5.689  -1.538   0.290  0.00  0.00    -0.268 OA
ENDROOT
BRANCH   3   8
ATOM      8  C   UNL     1       1.214   1.527  -0.022  0.00  0.00    +0.250 C 
ATOM      9  O   UNL     1       1.327   2.734  -0.120  0.00  0.00    -0.270 OA
ATOM     10  N   UNL     1      -0.011   0.966   0.007  0.00  0.00    -0.279 N 
ATOM     11  H   UNL     1      -0.102   0.000   0.020  0.00  0.00    +0.155 HD
BRANCH  10  12
ATOM     12  C   UNL     1      -1.153   1.776   0.014  0.00  0.00    +0.069 A 
ATOM     13  C   UNL     1      -1.159   2.974  -0.688  0.00  0.00    +0.027 A 
ATOM     14  C   UNL     1      -2.287   3.772  -0.680  0.00  0.00    +0.017 A 
ATOM     15  C   UNL     1      -3.410   3.379   0.026  0.00  0.00    +0.021 A 
ATOM     16  C   UNL     1      -3.408   2.187   0.727  0.00  0.00    +0.055 A 
ATOM     17  C   UNL     1      -2.284   1.381   0.719  0.00  0.00    +0.146 A 
ATOM     18  F   UNL     1      -2.284   0.213   1.398  0.00  0.00    -0.204 F 
ATOM     19 BR   UNL     1      -4.951   4.475   0.033  0.00  0.00    -0.050 Br
ENDBRANCH  10  12
ENDBRANCH   3   8
BRANCH   1  20
ATOM     20  C   UNL     1       6.097   1.103   0.079  0.00  0.00    +0.160 C 
BRANCH  20  23
ATOM     21  C   UNL     1       7.736   0.261  -3.216  0.00  0.00    +0.003 A 
ATOM     22  C   UNL     1       7.305   0.172  -1.906  0.00  0.00    +0.005 A 
ATOM     23  C   UNL     1       6.570   1.202  -1.348  0.00  0.00    -0.026 A 
ATOM     24  C   UNL     1       6.275   2.325  -2.098  0.00  0.00    +0.038 A 
ATOM     25  C   UNL     1       6.708   2.416  -3.407  0.00  0.00    +0.127 A 
ATOM     26  C   UNL     1       7.439   1.384  -3.967  0.00  0.00    +0.033 A 
BRANCH  25  27
ATOM     27  N   UNL     1       6.391   3.618  -4.211  0.00  0.00    +0.056 N 
ATOM     28  O   UNL     1       5.748   4.527  -3.718  0.00  0.00    -0.126 OA
ATOM     29  O   UNL     1       6.774   3.698  -5.364  0.00  0.00    -0.126 OA
ENDBRANCH  25  27
ENDBRANCH  20  23
ENDBRANCH   1  20
TORSDOF 5
