REMARK  Name = ZINC16769438
REMARK  6 active torsions:
REMARK  status: ('A' for Active; 'I' for Inactive)
REMARK    1  A    between atoms: C_1  and  C_2
REMARK    2  A    between atoms: C_5  and  C_20
REMARK    3  A    between atoms: C_6  and  N_8
REMARK    4  A    between atoms: C_9  and  C_19
REMARK    5  A    between atoms: C_12  and  C_15
REMARK    6  A    between atoms: C_15  and  C_17
REMARK                            x       y       z     vdW  Elec       q    Type
REMARK                         _______ _______ _______ _____ _____    ______ ____
ROOT
ATOM      1  N   UNL     1      -0.350  -4.801   1.743  0.00  0.00    -0.280 N 
ATOM      2  C   UNL     1       0.865  -5.120   2.260  0.00  0.00    +0.028 A 
ATOM      3  C   UNL     1       1.073  -5.164   3.596  0.00  0.00    +0.073 A 
ATOM      4  C   UNL     1       0.023  -4.878   4.481  0.00  0.00    +0.196 A 
ATOM      5  C   UNL     1      -1.238  -4.548   3.951  0.00  0.00    +0.128 A 
ATOM      6  C   UNL     1      -1.395  -4.512   2.541  0.00  0.00    +0.270 A 
ATOM      7  O   UNL     1      -2.474  -4.224   2.054  0.00  0.00    -0.266 OA
ATOM      8  O   UNL     1       0.218  -4.920   5.817  0.00  0.00    -0.287 OA
ATOM      9  C   UNL     1       2.006  -5.431   1.325  0.00  0.00    +0.064 C 
ENDROOT
BRANCH   1  15
ATOM     10  C   UNL     1      -0.203  -2.284  -2.479  0.00  0.00    +0.044 C 
ATOM     11  C   UNL     1      -0.453  -3.561  -1.718  0.00  0.00    -0.048 A 
ATOM     12  C   UNL     1      -0.849  -4.701  -2.393  0.00  0.00    +0.004 A 
ATOM     13  C   UNL     1      -1.079  -5.874  -1.699  0.00  0.00    +0.005 A 
ATOM     14  C   UNL     1      -0.914  -5.911  -0.328  0.00  0.00    -0.027 A 
ATOM     15  C   UNL     1      -0.518  -4.768   0.353  0.00  0.00    +0.053 A 
ATOM     16  C   UNL     1      -0.282  -3.592  -0.348  0.00  0.00    +0.030 A 
ATOM     17  C   UNL     1      -1.166  -7.190   0.428  0.00  0.00    +0.046 C 
ENDBRANCH   1  15
BRANCH   5  18
ATOM     18  C   UNL     1      -2.325  -4.252   4.806  0.00  0.00    +0.169 C 
ATOM     19  O   UNL     1      -2.200  -4.363   6.008  0.00  0.00    -0.292 OA
ATOM     20  C   UNL     1      -3.640  -3.800   4.224  0.00  0.00    +0.092 C 
ENDBRANCH   5  18
TORSDOF 2
