REMARK  Name = ZINC00184360
REMARK  8 active torsions:
REMARK  status: ('A' for Active; 'I' for Inactive)
REMARK    1  A    between atoms: C_1  and  C_2
REMARK    2  A    between atoms: C_2  and  C_3
REMARK    3  A    between atoms: C_2  and  C_4
REMARK    4  A    between atoms: C_2  and  O_5
REMARK    5  A    between atoms: O_5  and  C_6
REMARK    6  A    between atoms: N_8  and  N_9
REMARK    7  A    between atoms: C_10  and  C_11
REMARK    8  A    between atoms: C_14  and  C_16
REMARK                            x       y       z     vdW  Elec       q    Type
REMARK                         _______ _______ _______ _____ _____    ______ ____
ROOT
ATOM      1  C   UNL     1      -0.757   3.543   0.028  0.00  0.00    +0.148 A 
ATOM      2  C   UNL     1       0.609   3.605   0.016  0.00  0.00    +0.051 A 
ATOM      3  C   UNL     1       1.077   2.284   0.004  0.00  0.00    +0.050 A 
ATOM      4  C   UNL     1      -0.018   1.472   0.010  0.00  0.00    +0.136 A 
ATOM      5  O   UNL     1      -1.121   2.244   0.019  0.00  0.00    -0.454 OA
ENDROOT
BRANCH   4   6
ATOM      6  C   UNL     1       0.002  -0.004   0.002  0.00  0.00    +0.017 A 
ATOM      7  C   UNL     1       1.219  -0.689  -0.019  0.00  0.00    +0.013 A 
ATOM      8  C   UNL     1       1.231  -2.068  -0.022  0.00  0.00    +0.021 A 
ATOM      9  C   UNL     1       0.040  -2.774  -0.014  0.00  0.00    +0.041 A 
ATOM     10  C   UNL     1      -1.171  -2.101   0.002  0.00  0.00    +0.021 A 
ATOM     11  C   UNL     1      -1.196  -0.722   0.010  0.00  0.00    +0.013 A 
ATOM     12 CL   UNL     1       0.063  -4.510  -0.024  0.00  0.00    -0.084 Cl
ENDBRANCH   4   6
BRANCH   1  14
ATOM     13  N   UNL     1      -2.955   4.498   0.054  0.00  0.00    -0.182 NA
ATOM     14  C   UNL     1      -1.668   4.689   0.043  0.00  0.00    +0.176 C 
BRANCH  13  17
ATOM     15  C   UNL     1      -5.159   5.397   0.080  0.00  0.00    +0.420 C 
ATOM     16  O   UNL     1      -5.915   6.348   0.092  0.00  0.00    -0.225 OA
ATOM     17  N   UNL     1      -3.826   5.595   0.068  0.00  0.00    -0.172 N 
ATOM     18  H   UNL     1      -3.470   6.497   0.069  0.00  0.00    +0.181 HD
BRANCH  15  19
ATOM     19  O   UNL     1      -5.654   4.144   0.078  0.00  0.00    -0.444 OA
BRANCH  19  21
ATOM     20  C   UNL     1      -7.687   4.681  -1.149  0.00  0.00    +0.055 C 
ATOM     21  C   UNL     1      -7.099   4.006   0.091  0.00  0.00    +0.107 C 
ATOM     22  C   UNL     1      -7.470   2.521   0.087  0.00  0.00    +0.055 C 
ATOM     23  C   UNL     1      -7.663   4.669   1.349  0.00  0.00    +0.055 C 
ENDBRANCH  19  21
ENDBRANCH  15  19
ENDBRANCH  13  17
ENDBRANCH   1  14
TORSDOF 5
