REMARK  Name = ZINC09542029
REMARK  8 active torsions:
REMARK  status: ('A' for Active; 'I' for Inactive)
REMARK    1  A    between atoms: C_1  and  C_2
REMARK    2  A    between atoms: C_4  and  N_9
REMARK    3  A    between atoms: C_10  and  C_12
REMARK    4  A    between atoms: C_12  and  S_13
REMARK    5  A    between atoms: S_13  and  C_14
REMARK    6  A    between atoms: C_17  and  C_20
REMARK    7  A    between atoms: N_18  and  N_19
REMARK    8  A    between atoms: C_22  and  C_26
REMARK                            x       y       z     vdW  Elec       q    Type
REMARK                         _______ _______ _______ _____ _____    ______ ____
ROOT
ATOM      1  C   UNL     1       0.537  -7.345  -5.022  0.00  0.00    +0.209 A 
ATOM      2  N   UNL     1       0.530  -6.697  -6.165  0.00  0.00    -0.120 NA
ATOM      3  N   UNL     1       0.640  -7.525  -7.142  0.00  0.00    -0.125 NA
ATOM      4  C   UNL     1       0.724  -8.752  -6.683  0.00  0.00    +0.202 A 
ATOM      5  N   UNL     1       0.667  -8.674  -5.311  0.00  0.00    -0.222 N 
ENDROOT
BRANCH   4   6
ATOM      6  C   UNL     1       0.860  -9.985  -7.488  0.00  0.00    +0.132 A 
ATOM      7  C   UNL     1       0.929 -10.049  -8.892  0.00  0.00    +0.061 A 
ATOM      8  C   UNL     1       1.052 -11.361  -9.243  0.00  0.00    +0.066 A 
ATOM      9  N   UNL     1       1.060 -12.096  -8.094  0.00  0.00    -0.276 N 
ATOM     10  H   UNL     1       1.136 -13.061  -8.035  0.00  0.00    +0.189 HD
ATOM     11  N   UNL     1       0.944 -11.212  -7.014  0.00  0.00    -0.170 NA
BRANCH   8  12
ATOM     12  C   UNL     1       1.157 -11.891 -10.621  0.00  0.00    -0.000 A 
ATOM     13  C   UNL     1       1.140 -11.019 -11.709  0.00  0.00    +0.013 A 
ATOM     14  C   UNL     1       1.239 -11.518 -12.991  0.00  0.00    +0.039 A 
ATOM     15  C   UNL     1       1.354 -12.883 -13.199  0.00  0.00    +0.123 A 
ATOM     16  C   UNL     1       1.371 -13.754 -12.121  0.00  0.00    +0.039 A 
ATOM     17  C   UNL     1       1.279 -13.264 -10.835  0.00  0.00    +0.013 A 
ATOM     18  F   UNL     1       1.450 -13.367 -14.457  0.00  0.00    -0.205 F 
ENDBRANCH   8  12
ENDBRANCH   4   6
BRANCH   5  19
ATOM     19  N   UNL     1       0.724  -9.709  -4.422  0.00  0.00    -0.295 N 
ATOM     20  H   UNL     1      -0.198 -10.067  -4.223  0.00  0.00    +0.163 HD
ATOM     21  H   UNL     1       1.332 -10.441  -4.758  0.00  0.00    +0.163 HD
ENDBRANCH   5  19
BRANCH   1  22
ATOM     22  S   UNL     1       0.411  -6.631  -3.416  0.00  0.00    -0.075 S 
BRANCH  22  23
ATOM     23  C   UNL     1       0.265  -4.851  -3.737  0.00  0.00    +0.173 C 
BRANCH  23  25
ATOM     24  N   UNL     1       0.028  -2.771  -2.420  0.00  0.00    -0.285 N 
ATOM     25  C   UNL     1       0.148  -4.113  -2.428  0.00  0.00    +0.227 C 
ATOM     26  O   UNL     1       0.162  -4.727  -1.382  0.00  0.00    -0.275 OA
ATOM     27  H   UNL     1      -0.060  -2.287  -3.256  0.00  0.00    +0.155 HD
BRANCH  24  31
ATOM     28  C   UNL     1       1.619  -2.350   2.213  0.00  0.00    +0.045 C 
ATOM     29  C   UNL     1       0.793  -1.849   1.057  0.00  0.00    -0.035 A 
ATOM     30  C   UNL     1       0.792  -2.538  -0.141  0.00  0.00    +0.027 A 
ATOM     31  C   UNL     1       0.030  -2.075  -1.206  0.00  0.00    +0.034 A 
ATOM     32  C   UNL     1      -0.729  -0.921  -1.063  0.00  0.00    +0.024 A 
ATOM     33  C   UNL     1      -0.724  -0.236   0.136  0.00  0.00    +0.017 A 
ATOM     34  C   UNL     1       0.032  -0.703   1.197  0.00  0.00    +0.021 A 
ATOM     35 BR   UNL     1       0.029   0.233   2.841  0.00  0.00    -0.050 Br
ENDBRANCH  24  31
ENDBRANCH  23  25
ENDBRANCH  22  23
ENDBRANCH   1  22
TORSDOF 7
