REMARK  Name = ZINC00663169
REMARK  5 active torsions:
REMARK  status: ('A' for Active; 'I' for Inactive)
REMARK    1  A    between atoms: C_1  and  C_2
REMARK    2  A    between atoms: C_4  and  C_27
REMARK    3  A    between atoms: C_11  and  C_19
REMARK    4  A    between atoms: C_13  and  C_17
REMARK    5  A    between atoms: C_14  and  N_16
REMARK                            x       y       z     vdW  Elec       q    Type
REMARK                         _______ _______ _______ _____ _____    ______ ____
ROOT
ATOM      1  C   UNL     1       3.332   7.485  -1.579  0.00  0.00    +0.044 C 
ATOM      2  C   UNL     1       3.555   6.508  -2.705  0.00  0.00    -0.036 A 
ATOM      3  C   UNL     1       3.667   6.918  -4.022  0.00  0.00    +0.027 A 
ATOM      4  C   UNL     1       3.872   6.021  -5.055  0.00  0.00    +0.040 A 
ATOM      5  N   UNL     1       3.975   4.714  -4.848  0.00  0.00    -0.245 NA
ATOM      6  C   UNL     1       3.877   4.280  -3.613  0.00  0.00    +0.113 A 
ATOM      7  C   UNL     1       3.665   5.113  -2.481  0.00  0.00    +0.053 A 
ATOM      8  C   UNL     1       3.584   4.430  -1.200  0.00  0.00    +0.151 A 
ATOM      9  C   UNL     1       3.721   3.081  -1.217  0.00  0.00    +0.047 A 
ATOM     10  S   UNL     1       3.958   2.656  -2.920  0.00  0.00    -0.069 S 
ATOM     11  C   UNL     1       3.674   2.183  -0.021  0.00  0.00    +0.105 C 
ATOM     12  C   UNL     1       3.761   3.049   1.214  0.00  0.00    +0.098 C 
ATOM     13  C   UNL     1       3.613   4.392   1.139  0.00  0.00    +0.199 C 
ATOM     14  O   UNL     1       3.379   5.070   0.005  0.00  0.00    -0.440 OA
ATOM     15  C   UNL     1       3.982   6.547  -6.464  0.00  0.00    +0.065 C 
ENDROOT
BRANCH  11  16
ATOM     16  C   UNL     1       2.379   1.413  -0.013  0.00  0.00    -0.031 A 
ATOM     17  C   UNL     1       2.397   0.030  -0.021  0.00  0.00    +0.007 A 
ATOM     18  C   UNL     1       1.211  -0.678  -0.013  0.00  0.00    +0.041 A 
ATOM     19  C   UNL     1       0.002  -0.004   0.002  0.00  0.00    +0.158 A 
ATOM     20  C   UNL     1      -0.017   1.382   0.010  0.00  0.00    +0.159 A 
ATOM     21  C   UNL     1       1.173   2.089   0.002  0.00  0.00    +0.046 A 
ATOM     22  F   UNL     1      -1.195   2.042   0.019  0.00  0.00    -0.202 F 
ATOM     23  F   UNL     1      -1.158  -0.696   0.009  0.00  0.00    -0.202 F 
ENDBRANCH  11  16
BRANCH  13  24
ATOM     24  N   UNL     1       3.709   5.111   2.304  0.00  0.00    -0.328 N 
ATOM     25  H   UNL     1       3.877   4.655   3.143  0.00  0.00    +0.145 HD
ATOM     26  H   UNL     1       3.608   6.076   2.289  0.00  0.00    +0.145 HD
ENDBRANCH  13  24
BRANCH  12  27
ATOM     27  C   UNL     1       4.005   2.438   2.486  0.00  0.00    +0.101 C 
ATOM     28  N   UNL     1       4.199   1.954   3.495  0.00  0.00    -0.191 NA
ENDBRANCH  12  27
TORSDOF 3
