REMARK  Name = ZINC58903487
REMARK  6 active torsions:
REMARK  status: ('A' for Active; 'I' for Inactive)
REMARK    1  A    between atoms: C_1  and  C_2
REMARK    2  A    between atoms: C_5  and  C_7
REMARK    3  A    between atoms: C_10  and  C_27
REMARK    4  A    between atoms: N_12  and  C_21
REMARK    5  A    between atoms: C_15  and  N_20
REMARK    6  A    between atoms: C_16  and  C_17
REMARK                            x       y       z     vdW  Elec       q    Type
REMARK                         _______ _______ _______ _____ _____    ______ ____
ROOT
ATOM      1  C   UNL     1       1.077  -3.839  -0.049  0.00  0.00    +0.103 C 
ATOM      2  C   UNL     1       1.892  -4.122   1.187  0.00  0.00    +0.050 A 
ATOM      3  C   UNL     1       1.497  -4.129   2.518  0.00  0.00    +0.068 A 
ATOM      4  N   UNL     1       2.540  -4.427   3.255  0.00  0.00    -0.168 NA
ATOM      5  N   UNL     1       3.642  -4.622   2.408  0.00  0.00    -0.200 N 
ATOM      6  C   UNL     1       3.223  -4.430   1.138  0.00  0.00    +0.230 A 
ATOM      7  O   UNL     1       3.915  -4.509  -0.026  0.00  0.00    -0.423 OA
ATOM      8  C   UNL     1       3.207  -4.545  -1.172  0.00  0.00    +0.195 C 
ATOM      9  C   UNL     1       1.889  -4.248  -1.253  0.00  0.00    +0.083 C 
ATOM     10  C   UNL     1       0.108  -3.842   3.028  0.00  0.00    +0.068 C 
ENDROOT
BRANCH   1  15
ATOM     11  C   UNL     1       0.876   1.815  -0.340  0.00  0.00    +0.051 C 
ATOM     12  C   UNL     1       0.666   0.325  -0.262  0.00  0.00    -0.013 A 
ATOM     13  C   UNL     1      -0.495  -0.374  -0.225  0.00  0.00    +0.011 A 
ATOM     14  C   UNL     1      -0.446  -1.753  -0.154  0.00  0.00    +0.012 A 
ATOM     15  C   UNL     1       0.762  -2.367  -0.124  0.00  0.00    +0.002 A 
ATOM     16  S   UNL     1       1.884  -0.980  -0.204  0.00  0.00    -0.097 S 
ENDBRANCH   1  15
BRANCH   5  17
ATOM     17  C   UNL     1       4.944  -4.954   2.807  0.00  0.00    +0.069 A 
ATOM     18  C   UNL     1       5.725  -5.782   2.012  0.00  0.00    +0.028 A 
ATOM     19  C   UNL     1       7.008  -6.108   2.408  0.00  0.00    +0.002 A 
ATOM     20  C   UNL     1       7.513  -5.611   3.596  0.00  0.00    +0.000 A 
ATOM     21  C   UNL     1       6.737  -4.787   4.390  0.00  0.00    +0.002 A 
ATOM     22  C   UNL     1       5.457  -4.452   3.995  0.00  0.00    +0.028 A 
ENDBRANCH   5  17
BRANCH   9  23
ATOM     23  C   UNL     1       1.253  -4.324  -2.504  0.00  0.00    +0.243 C 
ATOM     24  O   UNL     1       0.564  -5.292  -2.779  0.00  0.00    -0.271 OA
ATOM     25  N   UNL     1       1.403  -3.327  -3.398  0.00  0.00    -0.325 N 
ATOM     26  H   UNL     1       1.951  -2.558  -3.179  0.00  0.00    +0.145 HD
ATOM     27  H   UNL     1       0.964  -3.380  -4.262  0.00  0.00    +0.145 HD
ENDBRANCH   9  23
BRANCH   8  28
ATOM     28  N   UNL     1       3.860  -4.902  -2.322  0.00  0.00    -0.329 N 
ATOM     29  H   UNL     1       4.821  -5.035  -2.313  0.00  0.00    +0.145 HD
ATOM     30  H   UNL     1       3.361  -5.023  -3.146  0.00  0.00    +0.145 HD
ENDBRANCH   8  28
TORSDOF 4
