REMARK  Name = ZINC06282081
REMARK  9 active torsions:
REMARK  status: ('A' for Active; 'I' for Inactive)
REMARK    1  A    between atoms: C_1  and  C_2
REMARK    2  A    between atoms: C_7  and  C_14
REMARK    3  A    between atoms: C_14  and  C_16
REMARK    4  A    between atoms: C_14  and  N_69
REMARK    5  A    between atoms: N_20  and  C_21
REMARK    6  A    between atoms: C_27  and  C_28
REMARK    7  A    between atoms: C_27  and  N_69
REMARK    8  A    between atoms: C_34  and  C_35
REMARK    9  A    between atoms: C_34  and  N_69
REMARK                            x       y       z     vdW  Elec       q    Type
REMARK                         _______ _______ _______ _____ _____    ______ ____
ROOT
ATOM      1  C   UNL     1       0.067   1.490  -0.054  0.00  0.00    +0.040 C 
ENDROOT
BRANCH   1   8
ATOM      2  C   UNL     1      -3.844   2.570   6.813  0.00  0.00    +0.044 C 
ATOM      3  C   UNL     1      -3.161   2.140   5.540  0.00  0.00    -0.048 A 
ATOM      4  C   UNL     1      -3.181   0.803   5.168  0.00  0.00    +0.004 A 
ATOM      5  C   UNL     1      -2.568   0.393   4.018  0.00  0.00    +0.010 A 
ATOM      6  C   UNL     1      -1.914   1.328   3.209  0.00  0.00    -0.001 A 
ATOM      7  C   UNL     1      -1.251   0.924   1.967  0.00  0.00    +0.017 A 
ATOM      8  C   UNL     1      -0.629   1.874   1.226  0.00  0.00    +0.011 A 
ATOM      9  C   UNL     1      -0.636   3.221   1.647  0.00  0.00    +0.251 A 
ATOM     10  O   UNL     1      -0.074   4.059   0.964  0.00  0.00    -0.268 OA
ATOM     11  N   UNL     1      -1.246   3.603   2.782  0.00  0.00    -0.322 N 
ATOM     12  H   UNL     1      -1.232   4.537   3.042  0.00  0.00    +0.169 HD
ATOM     13  C   UNL     1      -1.892   2.685   3.583  0.00  0.00    +0.049 A 
ATOM     14  C   UNL     1      -2.523   3.079   4.759  0.00  0.00    +0.029 A 
ENDBRANCH   1   8
BRANCH   1  15
ATOM     15  C   UNL     1      -0.550   2.240  -1.206  0.00  0.00    +0.143 A 
ATOM     16  N   UNL     1      -0.425   3.519  -1.464  0.00  0.00    -0.115 NA
ATOM     17  N   UNL     1      -1.100   3.778  -2.530  0.00  0.00    -0.023 NA
ATOM     18  N   UNL     1      -1.653   2.697  -2.959  0.00  0.00    -0.044 NA
ATOM     19  N   UNL     1      -1.333   1.726  -2.172  0.00  0.00    -0.227 N 
BRANCH  19  20
ATOM     20  C   UNL     1      -1.747   0.327  -2.304  0.00  0.00    +0.111 C 
ATOM     21  C   UNL     1      -1.250  -0.228  -3.641  0.00  0.00    +0.027 C 
ATOM     22  C   UNL     1      -1.683  -1.689  -3.778  0.00  0.00    +0.002 C 
ATOM     23  C   UNL     1      -3.210  -1.776  -3.726  0.00  0.00    +0.000 C 
ATOM     24  C   UNL     1      -3.706  -1.221  -2.389  0.00  0.00    +0.002 C 
ATOM     25  C   UNL     1      -3.274   0.240  -2.252  0.00  0.00    +0.027 C 
ENDBRANCH  19  20
ENDBRANCH   1  15
BRANCH   1  26
ATOM     26  N   UNL     1       1.495   1.859   0.046  0.00  0.00    +0.397 N 
ATOM     27  H   UNL     1       1.570   2.877   0.149  0.00  0.00    -0.079 HD
BRANCH  26  28
ATOM     28  C   UNL     1       2.102   1.211   1.228  0.00  0.00    -0.039 C 
BRANCH  28  29
ATOM     29  C   UNL     1       1.917   2.115   2.419  0.00  0.00    -0.046 A 
ATOM     30  C   UNL     1       2.623   3.304   2.515  0.00  0.00    +0.005 A 
ATOM     31  C   UNL     1       2.417   4.107   3.626  0.00  0.00    +0.020 A 
ATOM     32  C   UNL     1       1.528   3.692   4.600  0.00  0.00    +0.111 A 
ATOM     33  N   UNL     1       0.877   2.552   4.479  0.00  0.00    -0.263 NA
ATOM     34  C   UNL     1       1.045   1.766   3.433  0.00  0.00    +0.112 A 
ENDBRANCH  28  29
ENDBRANCH  26  28
BRANCH  26  35
ATOM     35  C   UNL     1       2.211   1.446  -1.180  0.00  0.00    -0.001 C 
BRANCH  35  36
ATOM     36  C   UNL     1       1.964   2.476  -2.252  0.00  0.00    +0.089 A 
ATOM     37  C   UNL     1       2.626   3.638  -2.393  0.00  0.00    +0.042 A 
ATOM     38  C   UNL     1       2.074   4.290  -3.520  0.00  0.00    +0.041 A 
ATOM     39  C   UNL     1       1.107   3.487  -4.000  0.00  0.00    +0.195 A 
ATOM     40  O   UNL     1       1.049   2.387  -3.231  0.00  0.00    -0.470 OA
ENDBRANCH  35  36
ENDBRANCH  26  35
ENDBRANCH   1  26
TORSDOF 8
