REMARK  Name = ZINC39029625
REMARK  7 active torsions:
REMARK  status: ('A' for Active; 'I' for Inactive)
REMARK    1  A    between atoms: C_2  and  C_3
REMARK    2  A    between atoms: C_6  and  C_9
REMARK    3  A    between atoms: C_9  and  O_10
REMARK    4  A    between atoms: O_10  and  C_11
REMARK    5  A    between atoms: C_14  and  C_18
REMARK    6  A    between atoms: C_15  and  O_17
REMARK    7  A    between atoms: C_20  and  C_24
REMARK                            x       y       z     vdW  Elec       q    Type
REMARK                         _______ _______ _______ _____ _____    ______ ____
ROOT
ATOM      1  C   UNL     1      -6.519  -3.881  -1.480  0.00  0.00    +0.124 A 
ATOM      2  C   UNL     1      -7.241  -4.309  -0.375  0.00  0.00    +0.046 A 
ATOM      3  C   UNL     1      -8.419  -5.010  -0.547  0.00  0.00    +0.013 A 
ATOM      4  C   UNL     1      -8.882  -5.286  -1.820  0.00  0.00    +0.022 A 
ATOM      5  C   UNL     1      -8.164  -4.860  -2.928  0.00  0.00    +0.126 A 
ATOM      6  C   UNL     1      -6.984  -4.151  -2.758  0.00  0.00    +0.091 A 
ENDROOT
BRANCH   4   7
ATOM      7  C   UNL     1     -10.167  -6.052  -2.005  0.00  0.00    +0.164 C 
ATOM      8  C   UNL     1     -11.326  -5.104  -2.255  0.00  0.00    +0.008 C 
ATOM      9  C   UNL     1     -12.157  -5.333  -1.211  0.00  0.00    +0.139 C 
ATOM     10  N   UNL     1     -11.648  -6.269  -0.401  0.00  0.00    -0.185 NA
ATOM     11  N   UNL     1     -10.555  -6.728  -0.755  0.00  0.00    -0.297 N 
ATOM     12  H   UNL     1     -10.043  -7.410  -0.293  0.00  0.00    +0.183 HD
BRANCH   8  13
ATOM     13  C   UNL     1     -11.505  -4.158  -3.369  0.00  0.00    -0.018 A 
ATOM     14  C   UNL     1     -11.659  -4.633  -4.676  0.00  0.00    +0.010 A 
ATOM     15  C   UNL     1     -11.825  -3.742  -5.714  0.00  0.00    +0.020 A 
ATOM     16  C   UNL     1     -11.841  -2.379  -5.466  0.00  0.00    +0.041 A 
ATOM     17  C   UNL     1     -11.689  -1.902  -4.174  0.00  0.00    +0.020 A 
ATOM     18  C   UNL     1     -11.526  -2.781  -3.126  0.00  0.00    +0.010 A 
ATOM     19 CL   UNL     1     -12.051  -1.264  -6.780  0.00  0.00    -0.084 Cl
ENDBRANCH   8  13
ENDBRANCH   4   7
BRANCH   5  20
ATOM     20  O   UNL     1      -8.619  -5.131  -4.179  0.00  0.00    -0.506 OA
ATOM     21  H   UNL     1      -9.203  -4.451  -4.542  0.00  0.00    +0.292 HD
ENDBRANCH   5  20
BRANCH   1  22
ATOM     22  O   UNL     1      -5.361  -3.191  -1.310  0.00  0.00    -0.487 OA
BRANCH  22  23
ATOM     23  C   UNL     1      -4.941  -2.949   0.035  0.00  0.00    +0.264 C 
BRANCH  23  27
ATOM     24  C   UNL     1      -1.268  -0.760   0.010  0.00  0.00    -0.026 A 
ATOM     25  C   UNL     1      -2.487  -0.082   0.020  0.00  0.00    +0.008 A 
ATOM     26  C   UNL     1      -3.669  -0.794   0.027  0.00  0.00    +0.007 A 
ATOM     27  C   UNL     1      -3.647  -2.178   0.026  0.00  0.00    -0.010 A 
ATOM     28  C   UNL     1      -2.441  -2.856   0.017  0.00  0.00    +0.007 A 
ATOM     29  C   UNL     1      -1.252  -2.156   0.002  0.00  0.00    +0.008 A 
BRANCH  24  31
ATOM     30  C   UNL     1      -0.016   1.321   0.009  0.00  0.00    +0.009 C 
ATOM     31  C   UNL     1       0.002  -0.004   0.002  0.00  0.00    +0.000 C 
ENDBRANCH  24  31
ENDBRANCH  23  27
ENDBRANCH  22  23
ENDBRANCH   1  22
TORSDOF 7
