REMARK  Name = ZINC12501762
REMARK  6 active torsions:
REMARK  status: ('A' for Active; 'I' for Inactive)
REMARK    1  A    between atoms: C_4  and  N_23
REMARK    2  A    between atoms: C_5  and  C_7
REMARK    3  A    between atoms: N_9  and  N_10
REMARK    4  A    between atoms: N_10  and  C_11
REMARK    5  A    between atoms: C_11  and  N_13
REMARK    6  A    between atoms: C_14  and  C_16
REMARK                            x       y       z     vdW  Elec       q    Type
REMARK                         _______ _______ _______ _____ _____    ______ ____
ROOT
ATOM      1  N   UNL     1       0.166  -4.258  -0.291  0.00  0.00    -0.245 N 
ATOM      2  H   UNL     1       1.015  -4.723  -0.231  0.00  0.00    +0.172 HD
ENDROOT
BRANCH   1   5
ATOM      3  C   UNL     1       1.273  -2.158  -0.108  0.00  0.00    +0.262 C 
ATOM      4  O   UNL     1       2.337  -2.741  -0.033  0.00  0.00    -0.269 OA
ATOM      5  N   UNL     1       0.129  -2.858  -0.241  0.00  0.00    -0.231 N 
ATOM      6  H   UNL     1      -0.721  -2.393  -0.301  0.00  0.00    +0.173 HD
BRANCH   3  11
ATOM      7  C   UNL     1       0.587   1.419  -1.025  0.00  0.00    +0.001 A 
ATOM      8  C   UNL     1       1.161   2.085   0.044  0.00  0.00    +0.002 A 
ATOM      9  C   UNL     1       1.770   1.375   1.063  0.00  0.00    +0.033 A 
ATOM     10  C   UNL     1       1.810  -0.003   1.020  0.00  0.00    +0.138 A 
ATOM     11  C   UNL     1       1.233  -0.681  -0.055  0.00  0.00    +0.068 A 
ATOM     12  C   UNL     1       0.620   0.041  -1.080  0.00  0.00    +0.015 A 
BRANCH  10  13
ATOM     13  N   UNL     1       2.463  -0.761   2.111  0.00  0.00    +0.057 N 
ATOM     14  O   UNL     1       3.064  -0.173   2.979  0.00  0.00    -0.126 OA
ATOM     15  O   UNL     1       2.395  -1.968   2.133  0.00  0.00    -0.126 OA
ENDBRANCH  10  13
ENDBRANCH   3  11
ENDBRANCH   1   5
BRANCH   1  16
ATOM     16  C   UNL     1      -0.978  -4.958  -0.423  0.00  0.00    +0.153 C 
ATOM     17  S   UNL     1      -0.932  -6.669  -0.485  0.00  0.00    -0.017 S 
BRANCH  16  18
ATOM     18  N   UNL     1      -2.158  -4.312  -0.507  0.00  0.00    -0.263 N 
ATOM     19  C   UNL     1      -3.302  -5.013  -0.639  0.00  0.00    +0.250 C 
ATOM     20  O   UNL     1      -3.269  -6.227  -0.683  0.00  0.00    -0.270 OA
ATOM     21  H   UNL     1      -2.184  -3.343  -0.472  0.00  0.00    +0.157 HD
BRANCH  19  22
ATOM     22  C   UNL     1      -4.595  -4.304  -0.731  0.00  0.00    +0.037 A 
ATOM     23  C   UNL     1      -4.635  -2.909  -0.687  0.00  0.00    +0.014 A 
ATOM     24  C   UNL     1      -5.845  -2.254  -0.773  0.00  0.00    +0.021 A 
ATOM     25  C   UNL     1      -7.019  -2.977  -0.902  0.00  0.00    +0.041 A 
ATOM     26  C   UNL     1      -6.986  -4.361  -0.946  0.00  0.00    +0.021 A 
ATOM     27  C   UNL     1      -5.782  -5.027  -0.868  0.00  0.00    +0.014 A 
ATOM     28 CL   UNL     1      -8.539  -2.144  -1.010  0.00  0.00    -0.084 Cl
ENDBRANCH  19  22
ENDBRANCH  16  18
ENDBRANCH   1  16
TORSDOF 6
