REMARK  Name = ZINC21223332
REMARK  7 active torsions:
REMARK  status: ('A' for Active; 'I' for Inactive)
REMARK    1  A    between atoms: C_1  and  C_2
REMARK    2  A    between atoms: C_2  and  C_3
REMARK    3  A    between atoms: C_2  and  C_4
REMARK    4  A    between atoms: C_4  and  O_5
REMARK    5  A    between atoms: O_5  and  C_6
REMARK    6  A    between atoms: C_9  and  C_12
REMARK    7  A    between atoms: C_17  and  C_22
REMARK                            x       y       z     vdW  Elec       q    Type
REMARK                         _______ _______ _______ _____ _____    ______ ____
ROOT
ATOM      1  C   UNL     1       1.264  -6.038  -1.751  0.00  0.00    +0.136 C 
ATOM      2  C   UNL     1       2.412  -6.519  -0.896  0.00  0.00    +0.036 C 
ATOM      3  C   UNL     1       2.309  -7.258   0.221  0.00  0.00    +0.017 C 
ATOM      4  C   UNL     1       3.552  -7.652   1.002  0.00  0.00    +0.059 C 
ATOM      5  C   UNL     1       4.729  -7.840   0.047  0.00  0.00    +0.033 C 
ATOM      6  C   UNL     1       4.957  -6.511  -0.682  0.00  0.00    +0.088 C 
ATOM      7  C   UNL     1       3.684  -6.121  -1.372  0.00  0.00    +0.163 C 
ATOM      8  O   UNL     1       3.747  -5.439  -2.377  0.00  0.00    -0.292 OA
ATOM      9  N   UNL     1       1.142  -7.708   0.749  0.00  0.00    -0.316 N 
ATOM     10  C   UNL     1       0.004  -6.931   0.932  0.00  0.00    +0.052 A 
ATOM     11  C   UNL     1      -0.503  -6.646   2.188  0.00  0.00    +0.025 A 
ATOM     12  C   UNL     1      -1.666  -5.903   2.297  0.00  0.00    +0.002 A 
ATOM     13  C   UNL     1      -2.316  -5.453   1.163  0.00  0.00    +0.002 A 
ATOM     14  C   UNL     1      -1.801  -5.723  -0.093  0.00  0.00    +0.025 A 
ATOM     15  C   UNL     1      -0.626  -6.448  -0.205  0.00  0.00    +0.049 A 
ATOM     16  N   UNL     1      -0.011  -6.650  -1.441  0.00  0.00    -0.331 N 
ATOM     17  H   UNL     1       1.051  -8.757   1.067  0.00  0.00    +0.152 HD
ATOM     18  H   UNL     1      -0.511  -7.287  -2.185  0.00  0.00    +0.147 HD
ENDROOT
BRANCH   5  19
ATOM     19  C   UNL     1       5.964  -8.215   0.826  0.00  0.00    -0.025 A 
ATOM     20  C   UNL     1       6.458  -7.359   1.792  0.00  0.00    +0.005 A 
ATOM     21  C   UNL     1       7.590  -7.702   2.506  0.00  0.00    +0.000 A 
ATOM     22  C   UNL     1       8.229  -8.903   2.256  0.00  0.00    +0.001 A 
ATOM     23  C   UNL     1       7.736  -9.759   1.290  0.00  0.00    +0.020 A 
ATOM     24  C   UNL     1       6.599  -9.419   0.578  0.00  0.00    +0.044 A 
ATOM     25 CL   UNL     1       5.974 -10.498  -0.629  0.00  0.00    -0.083 Cl
ENDBRANCH   5  19
BRANCH   1  29
ATOM     26  C   UNL     1       0.890  -1.809  -1.266  0.00  0.00    +0.121 A 
ATOM     27  C   UNL     1       0.698  -2.652  -0.181  0.00  0.00    +0.046 A 
ATOM     28  C   UNL     1       0.814  -4.019  -0.342  0.00  0.00    +0.009 A 
ATOM     29  C   UNL     1       1.132  -4.547  -1.580  0.00  0.00    -0.023 A 
ATOM     30  C   UNL     1       1.329  -3.708  -2.661  0.00  0.00    +0.009 A 
ATOM     31  C   UNL     1       1.209  -2.340  -2.507  0.00  0.00    +0.046 A 
BRANCH  26  32
ATOM     32  O   UNL     1       0.771  -0.464  -1.111  0.00  0.00    -0.492 OA
BRANCH  32  33
ATOM     33  C   UNL     1       0.440   0.013   0.195  0.00  0.00    +0.232 C 
BRANCH  33  35
ATOM     34  C   UNL     1      -0.814   1.970  -0.722  0.00  0.00    +0.010 C 
ATOM     35  C   UNL     1       0.350   1.540   0.173  0.00  0.00    +0.020 C 
ATOM     36  C   UNL     1       0.119   2.058   1.594  0.00  0.00    +0.010 C 
ENDBRANCH  33  35
ENDBRANCH  32  33
ENDBRANCH  26  32
ENDBRANCH   1  29
TORSDOF 5
