REMARK  Name = ZINC09544822
REMARK  9 active torsions:
REMARK  status: ('A' for Active; 'I' for Inactive)
REMARK    1  A    between atoms: C_1  and  C_2
REMARK    2  A    between atoms: C_10  and  C_11
REMARK    3  A    between atoms: C_11  and  O_13
REMARK    4  A    between atoms: O_13  and  C_14
REMARK    5  A    between atoms: C_14  and  C_16
REMARK    6  A    between atoms: C_14  and  C_17
REMARK    7  A    between atoms: N_19  and  C_20
REMARK    8  A    between atoms: C_23  and  N_30
REMARK    9  A    between atoms: C_25  and  C_26
REMARK                            x       y       z     vdW  Elec       q    Type
REMARK                         _______ _______ _______ _____ _____    ______ ____
ROOT
ATOM      1  C   UNL     1       3.588   2.857   5.286  0.00  0.00    +0.258 C 
ATOM      2  O   UNL     1       2.769   3.553   5.847  0.00  0.00    -0.271 OA
ATOM      3  N   UNL     1       4.894   2.966   5.601  0.00  0.00    -0.282 N 
ATOM      4  H   UNL     1       5.539   2.356   5.212  0.00  0.00    +0.155 HD
ENDROOT
BRANCH   3   5
ATOM      5  C   UNL     1       5.318   3.959   6.491  0.00  0.00    +0.045 A 
ATOM      6  C   UNL     1       4.567   5.116   6.653  0.00  0.00    +0.026 A 
ATOM      7  C   UNL     1       4.989   6.094   7.532  0.00  0.00    +0.034 A 
ATOM      8  C   UNL     1       6.157   5.922   8.251  0.00  0.00    +0.127 A 
ATOM      9  C   UNL     1       6.907   4.771   8.093  0.00  0.00    +0.047 A 
ATOM     10  C   UNL     1       6.488   3.787   7.219  0.00  0.00    +0.078 A 
BRANCH  10  11
ATOM     11  C   UNL     1       7.303   2.531   7.051  0.00  0.00    +0.419 C 
ATOM     12  F   UNL     1       8.427   2.589   7.882  0.00  0.00    -0.166 F 
ATOM     13  F   UNL     1       6.525   1.421   7.396  0.00  0.00    -0.166 F 
ATOM     14  F   UNL     1       7.715   2.416   5.719  0.00  0.00    -0.166 F 
ENDBRANCH  10  11
BRANCH   8  15
ATOM     15  N   UNL     1       6.606   6.972   9.193  0.00  0.00    +0.056 N 
ATOM     16  O   UNL     1       5.946   7.986   9.334  0.00  0.00    -0.126 OA
ATOM     17  O   UNL     1       7.635   6.822   9.827  0.00  0.00    -0.126 OA
ENDBRANCH   8  15
ENDBRANCH   3   5
BRANCH   1  18
ATOM     18  C   UNL     1       3.146   1.872   4.235  0.00  0.00    +0.259 C 
ATOM     19  C   UNL     1       3.429   0.448   4.720  0.00  0.00    +0.062 C 
BRANCH  18  20
ATOM     20  O   UNL     1       1.723   2.027   3.994  0.00  0.00    -0.447 OA
BRANCH  20  21
ATOM     21  C   UNL     1       1.277   1.736   2.755  0.00  0.00    +0.376 C 
ATOM     22  O   UNL     1       2.056   1.362   1.900  0.00  0.00    -0.241 OA
BRANCH  21  32
ATOM     23  C   UNL     1      -0.005   1.129  -0.013  0.00  0.00    +0.048 C 
ATOM     24  C   UNL     1      -0.712   1.605   1.230  0.00  0.00    +0.010 A 
ATOM     25  C   UNL     1      -2.140   1.882   1.377  0.00  0.00    +0.024 A 
ATOM     26  C   UNL     1      -3.241   1.800   0.521  0.00  0.00    +0.012 A 
ATOM     27  C   UNL     1      -4.484   2.131   0.982  0.00  0.00    +0.001 A 
ATOM     28  C   UNL     1      -4.659   2.543   2.297  0.00  0.00    +0.004 A 
ATOM     29  C   UNL     1      -3.587   2.626   3.158  0.00  0.00    +0.047 A 
ATOM     30  C   UNL     1      -2.313   2.293   2.712  0.00  0.00    +0.136 A 
ATOM     31  O   UNL     1      -1.103   2.274   3.304  0.00  0.00    -0.448 OA
ATOM     32  C   UNL     1      -0.151   1.869   2.438  0.00  0.00    +0.216 A 
ENDBRANCH  21  32
ENDBRANCH  20  21
ENDBRANCH  18  20
ENDBRANCH   1  18
TORSDOF 7
