REMARK  Name = ZINC20530939
REMARK  13 active torsions:
REMARK  status: ('A' for Active; 'I' for Inactive)
REMARK    1  A    between atoms: C_1  and  C_2
REMARK    2  A    between atoms: C_2  and  C_3
REMARK    3  A    between atoms: C_3  and  C_5
REMARK    4  A    between atoms: C_3  and  N_6
REMARK    5  A    between atoms: N_9  and  C_12
REMARK    6  A    between atoms: C_12  and  C_13
REMARK    7  A    between atoms: C_14  and  C_29
REMARK    8  A    between atoms: C_15  and  C_21
REMARK    9  A    between atoms: C_24  and  O_27
REMARK   10  A    between atoms: O_27  and  C_28
REMARK   11  A    between atoms: C_29  and  O_31
REMARK   12  A    between atoms: O_31  and  C_32
REMARK   13  A    between atoms: C_32  and  C_33
REMARK                            x       y       z     vdW  Elec       q    Type
REMARK                         _______ _______ _______ _____ _____    ______ ____
ROOT
ATOM      1  C   UNL     1       3.710   0.965   2.046  0.00  0.00    +0.038 C 
ATOM      2  C   UNL     1       2.407   0.610   2.028  0.00  0.00    +0.079 C 
ATOM      3  C   UNL     1       1.631   0.846   0.748  0.00  0.00    +0.144 C 
ATOM      4  N   UNL     1       2.366   1.446  -0.378  0.00  0.00    -0.288 N 
ATOM      5  C   UNL     1       3.668   1.746  -0.206  0.00  0.00    +0.304 C 
ATOM      6  O   UNL     1       4.284   2.243  -1.129  0.00  0.00    -0.252 OA
ATOM      7  N   UNL     1       4.306   1.517   0.949  0.00  0.00    -0.271 N 
ATOM      8  H   UNL     1       1.851   1.638  -1.331  0.00  0.00    +0.151 HD
ATOM      9  H   UNL     1       5.369   1.799   0.983  0.00  0.00    +0.156 HD
ENDROOT
BRANCH   3  10
ATOM     10  C   UNL     1       0.463   1.742   1.071  0.00  0.00    -0.022 A 
ATOM     11  C   UNL     1      -0.796   1.198   1.249  0.00  0.00    +0.009 A 
ATOM     12  C   UNL     1      -1.869   2.019   1.540  0.00  0.00    +0.046 A 
ATOM     13  C   UNL     1      -1.680   3.388   1.665  0.00  0.00    +0.120 A 
ATOM     14  C   UNL     1      -0.416   3.930   1.486  0.00  0.00    +0.046 A 
ATOM     15  C   UNL     1       0.653   3.106   1.190  0.00  0.00    +0.009 A 
BRANCH  13  16
ATOM     16  O   UNL     1      -2.733   4.196   1.956  0.00  0.00    -0.495 OA
ATOM     17  C   UNL     1      -4.005   3.568   2.126  0.00  0.00    +0.277 C 
ENDBRANCH  13  16
ENDBRANCH   3  10
BRANCH   2  18
ATOM     18  C   UNL     1       1.788   0.039   3.164  0.00  0.00    +0.339 C 
ATOM     19  O   UNL     1       2.394  -0.028   4.218  0.00  0.00    -0.245 OA
BRANCH  18  20
ATOM     20  O   UNL     1       0.526  -0.431   3.081  0.00  0.00    -0.462 OA
BRANCH  20  21
ATOM     21  C   UNL     1      -0.036  -0.995   4.267  0.00  0.00    +0.229 C 
ATOM     22  C   UNL     1      -1.461  -1.471   3.980  0.00  0.00    +0.048 C 
ENDBRANCH  20  21
ENDBRANCH  18  20
ENDBRANCH   2  18
BRANCH   1  23
ATOM     23  C   UNL     1       4.520   0.748   3.299  0.00  0.00    +0.135 C 
BRANCH  23  27
ATOM     24  N   UNL     1       5.241   4.025   5.866  0.00  0.00    +0.383 N 
ATOM     25  C   UNL     1       4.657   2.809   6.449  0.00  0.00    -0.063 C 
ATOM     26  C   UNL     1       4.926   1.622   5.521  0.00  0.00    +0.066 C 
ATOM     27  N   UNL     1       4.348   1.897   4.198  0.00  0.00    -0.300 NA
ATOM     28  C   UNL     1       4.932   3.114   3.615  0.00  0.00    +0.066 C 
ATOM     29  C   UNL     1       4.663   4.301   4.543  0.00  0.00    -0.063 C 
ATOM     30  H   UNL     1       6.320   3.856   5.737  0.00  0.00    -0.081 HD
BRANCH  24  31
ATOM     31  C   UNL     1       5.070   5.174   6.765  0.00  0.00    -0.072 C 
ATOM     32  C   UNL     1       3.590   5.327   7.121  0.00  0.00    -0.013 C 
BRANCH  31  34
ATOM     33  C   UNL     1       7.373   4.938   7.704  0.00  0.00    +0.002 C 
ATOM     34  C   UNL     1       5.881   4.948   8.042  0.00  0.00    -0.019 C 
ENDBRANCH  31  34
ENDBRANCH  24  31
ENDBRANCH  23  27
ENDBRANCH   1  23
TORSDOF 9
