REMARK  Name = ZINC22851746
REMARK  4 active torsions:
REMARK  status: ('A' for Active; 'I' for Inactive)
REMARK    1  A    between atoms: C_4  and  C_7
REMARK    2  A    between atoms: C_7  and  C_9
REMARK    3  A    between atoms: C_7  and  N_23
REMARK    4  A    between atoms: C_15  and  C_17
REMARK                            x       y       z     vdW  Elec       q    Type
REMARK                         _______ _______ _______ _____ _____    ______ ____
ROOT
ATOM      1  C   UNL     1      -8.386   0.319   0.039  0.00  0.00    +0.006 C 
ENDROOT
BRANCH   1   2
ATOM      2  C   UNL     1      -6.881   0.400   0.033  0.00  0.00    +0.050 A 
ATOM      3  C   UNL     1      -6.094   1.482   0.035  0.00  0.00    +0.282 A 
ATOM      4  N   UNL     1      -4.726   1.354   0.029  0.00  0.00    -0.169 N 
ATOM      5  C   UNL     1      -4.219   0.084   0.020  0.00  0.00    +0.200 A 
ATOM      6  S   UNL     1      -5.682  -0.924   0.021  0.00  0.00    -0.050 S 
ATOM      7  N   UNL     1      -2.916   0.130   0.009  0.00  0.00    -0.197 NA
ATOM      8  C   UNL     1      -2.518   1.410   0.020  0.00  0.00    +0.218 A 
ATOM      9  N   UNL     1      -3.579   2.189   0.029  0.00  0.00    -0.138 NA
ATOM     10  O   UNL     1      -6.654   2.721   0.044  0.00  0.00    -0.265 OA
BRANCH   8  11
ATOM     11  C   UNL     1      -1.115   1.872   0.017  0.00  0.00    +0.173 A 
ATOM     12  C   UNL     1      -0.013   1.076   0.008  0.00  0.00    +0.053 A 
ATOM     13  C   UNL     1       1.107   1.932   0.002  0.00  0.00    +0.042 A 
ATOM     14  C   UNL     1       0.638   3.195   0.013  0.00  0.00    +0.196 A 
ATOM     15  O   UNL     1      -0.705   3.155   0.026  0.00  0.00    -0.460 OA
ENDBRANCH   8  11
ENDBRANCH   1   2
BRANCH   1  16
ATOM     16  N   UNL     1      -8.818  -0.690   1.015  0.00  0.00    +0.387 N 
ATOM     17  C   UNL     1     -10.275  -0.868   0.978  0.00  0.00    -0.077 C 
ATOM     18  C   UNL     1     -10.673  -2.024   1.899  0.00  0.00    -0.019 C 
ATOM     19  C   UNL     1     -10.214  -1.714   3.326  0.00  0.00    -0.004 C 
ATOM     20  C   UNL     1      -8.700  -1.486   3.329  0.00  0.00    -0.019 C 
ATOM     21  C   UNL     1      -8.359  -0.346   2.367  0.00  0.00    -0.077 C 
ATOM     22  H   UNL     1      -8.356  -1.650   0.739  0.00  0.00    -0.080 HD
ENDBRANCH   1  16
BRANCH   1  26
ATOM     23  C   UNL     1      -9.768  -0.777  -3.851  0.00  0.00    +0.000 A 
ATOM     24  C   UNL     1      -9.804   0.546  -3.452  0.00  0.00    +0.000 A 
ATOM     25  C   UNL     1      -9.356   0.900  -2.193  0.00  0.00    +0.002 A 
ATOM     26  C   UNL     1      -8.874  -0.068  -1.333  0.00  0.00    -0.056 A 
ATOM     27  C   UNL     1      -8.834  -1.390  -1.734  0.00  0.00    +0.002 A 
ATOM     28  C   UNL     1      -9.285  -1.746  -2.991  0.00  0.00    +0.000 A 
ENDBRANCH   1  26
TORSDOF 4
