REMARK  Name = ZINC09056179
REMARK  5 active torsions:
REMARK  status: ('A' for Active; 'I' for Inactive)
REMARK    1  A    between atoms: C_4  and  C_7
REMARK    2  A    between atoms: C_14  and  C_18
REMARK    3  A    between atoms: C_18  and  N_51
REMARK    4  A    between atoms: N_21  and  S_24
REMARK    5  A    between atoms: S_24  and  C_27
REMARK                            x       y       z     vdW  Elec       q    Type
REMARK                         _______ _______ _______ _____ _____    ______ ____
ROOT
ATOM      1  C   UNL     1       1.153   1.772   0.001  0.00  0.00    +0.022 A 
ATOM      2  C   UNL     1      -0.013   1.076   0.008  0.00  0.00    +0.031 A 
ATOM      3  C   UNL     1      -1.237   1.763   0.018  0.00  0.00    +0.073 A 
ATOM      4  C   UNL     1      -2.570   1.229   0.021  0.00  0.00    +0.260 A 
ATOM      5  O   UNL     1      -2.754   0.024   0.015  0.00  0.00    -0.267 OA
ATOM      6  N   UNL     1      -3.612   2.080   0.030  0.00  0.00    -0.312 N 
ATOM      7  H   UNL     1      -4.515   1.724   0.033  0.00  0.00    +0.170 HD
ATOM      8  C   UNL     1      -3.429   3.425   0.036  0.00  0.00    +0.094 A 
ATOM      9  N   UNL     1      -2.229   3.943   0.043  0.00  0.00    -0.229 NA
ATOM     10  C   UNL     1      -1.149   3.169   0.029  0.00  0.00    +0.116 A 
ATOM     11  S   UNL     1       0.601   3.469   0.014  0.00  0.00    -0.068 S 
ENDROOT
BRANCH   1  15
ATOM     12  C   UNL     1       5.130   0.281  -0.043  0.00  0.00    +0.000 A 
ATOM     13  C   UNL     1       4.906   1.646  -0.034  0.00  0.00    +0.001 A 
ATOM     14  C   UNL     1       3.617   2.137  -0.020  0.00  0.00    +0.009 A 
ATOM     15  C   UNL     1       2.537   1.253  -0.015  0.00  0.00    -0.011 A 
ATOM     16  C   UNL     1       2.769  -0.123  -0.017  0.00  0.00    +0.009 A 
ATOM     17  C   UNL     1       4.064  -0.601  -0.038  0.00  0.00    +0.001 A 
ENDBRANCH   1  15
BRANCH   8  18
ATOM     18  C   UNL     1      -4.629   4.336   0.046  0.00  0.00    -0.003 C 
BRANCH  18  24
ATOM     19  C   UNL     1      -3.477   6.058   1.299  0.00  0.00    -0.061 C 
ATOM     20  C   UNL     1      -2.872   7.462   1.192  0.00  0.00    +0.091 C 
ATOM     21  N   UNL     1      -3.938   8.403   0.817  0.00  0.00    -0.180 NA
ATOM     22  C   UNL     1      -4.777   8.077  -0.345  0.00  0.00    +0.091 C 
ATOM     23  C   UNL     1      -5.308   6.649  -0.177  0.00  0.00    -0.061 C 
ATOM     24  N   UNL     1      -4.161   5.738   0.028  0.00  0.00    +0.386 N 
ATOM     25  H   UNL     1      -3.498   5.858  -0.747  0.00  0.00    -0.081 HD
BRANCH  21  26
ATOM     26  S   UNL     1      -4.186   9.793   1.682  0.00  0.00    +0.067 S 
ATOM     27  O   UNL     1      -2.955  10.098   2.324  0.00  0.00    -0.152 OA
ATOM     28  O   UNL     1      -4.836  10.705   0.807  0.00  0.00    -0.152 OA
BRANCH  26  29
ATOM     29  C   UNL     1      -5.339   9.413   2.959  0.00  0.00    +0.143 A 
ATOM     30  C   UNL     1      -5.103   8.967   4.217  0.00  0.00    +0.036 A 
ATOM     31  C   UNL     1      -6.175   8.737   5.059  0.00  0.00    +0.010 A 
ATOM     32  C   UNL     1      -7.431   8.954   4.599  0.00  0.00    +0.047 A 
ATOM     33  S   UNL     1      -7.122   9.508   2.930  0.00  0.00    -0.077 S 
ENDBRANCH  26  29
ENDBRANCH  21  26
ENDBRANCH  18  24
ENDBRANCH   8  18
TORSDOF 5
