REMARK  Name = ZINC12376183
REMARK  2 active torsions:
REMARK  status: ('A' for Active; 'I' for Inactive)
REMARK    1  A    between atoms: C_4  and  C_7
REMARK    2  A    between atoms: C_13  and  C_26
REMARK                            x       y       z     vdW  Elec       q    Type
REMARK                         _______ _______ _______ _____ _____    ______ ____
ROOT
ATOM      1  C   UNL     1       3.661  -0.759  -0.053  0.00  0.00    +0.024 C 
ATOM      2  C   UNL     1       3.752  -1.655  -1.294  0.00  0.00    +0.014 C 
ATOM      3  C   UNL     1       5.185  -2.169  -1.413  0.00  0.00    +0.056 C 
ATOM      4  C   UNL     1       5.640  -2.777  -0.112  0.00  0.00    +0.046 A 
ATOM      5  C   UNL     1       5.001  -2.527   1.087  0.00  0.00    -0.013 A 
ATOM      6  C   UNL     1       5.469  -3.107   2.253  0.00  0.00    +0.071 A 
ATOM      7  C   UNL     1       6.597  -3.954   2.206  0.00  0.00    +0.046 A 
ATOM      8  C   UNL     1       7.244  -4.662   3.324  0.00  0.00    +0.098 A 
ATOM      9  C   UNL     1       8.351  -5.441   2.995  0.00  0.00    +0.105 A 
ATOM     10  C   UNL     1       9.049  -6.160   3.971  0.00  0.00    +0.269 A 
ATOM     11  N   UNL     1       8.621  -6.081   5.253  0.00  0.00    -0.273 N 
ATOM     12  C   UNL     1       7.536  -5.312   5.545  0.00  0.00    +0.349 A 
ATOM     13  O   UNL     1       7.119  -5.242   6.828  0.00  0.00    -0.245 OA
ATOM     14  N   UNL     1       6.883  -4.641   4.638  0.00  0.00    -0.192 NA
ATOM     15  O   UNL     1      10.018  -6.840   3.675  0.00  0.00    -0.266 OA
ATOM     16  S   UNL     1       8.537  -5.246   1.244  0.00  0.00    -0.062 S 
ATOM     17  C   UNL     1       7.174  -4.149   0.936  0.00  0.00    +0.112 A 
ATOM     18  N   UNL     1       6.698  -3.576  -0.145  0.00  0.00    -0.244 NA
ATOM     19  C   UNL     1       3.787  -1.640   1.188  0.00  0.00    +0.045 C 
ATOM     20  H   UNL     1       9.081  -6.567   5.955  0.00  0.00    +0.174 HD
ENDROOT
BRANCH   1  24
ATOM     21  C   UNL     1      -0.102   1.261  -0.011  0.00  0.00    +0.000 A 
ATOM     22  C   UNL     1       1.073   1.989  -0.029  0.00  0.00    +0.000 A 
ATOM     23  C   UNL     1       2.291   1.335  -0.043  0.00  0.00    +0.004 A 
ATOM     24  C   UNL     1       2.334  -0.047  -0.037  0.00  0.00    -0.044 A 
ATOM     25  C   UNL     1       1.159  -0.774  -0.018  0.00  0.00    +0.004 A 
ATOM     26  C   UNL     1      -0.059  -0.121  -0.006  0.00  0.00    +0.000 A 
ENDBRANCH   1  24
BRANCH   6  27
ATOM     27  C   UNL     1       4.780  -2.834   3.565  0.00  0.00    +0.418 C 
ATOM     28  F   UNL     1       3.454  -2.458   3.326  0.00  0.00    -0.166 F 
ATOM     29  F   UNL     1       4.802  -3.990   4.353  0.00  0.00    -0.166 F 
ATOM     30  F   UNL     1       5.444  -1.801   4.235  0.00  0.00    -0.166 F 
ENDBRANCH   6  27
TORSDOF 2
