REMARK  Name = ZINC09541502
REMARK  7 active torsions:
REMARK  status: ('A' for Active; 'I' for Inactive)
REMARK    1  A    between atoms: C_1  and  C_2
REMARK    2  A    between atoms: C_2  and  O_3
REMARK    3  A    between atoms: O_3  and  C_4
REMARK    4  A    between atoms: C_7  and  C_10
REMARK    5  A    between atoms: C_12  and  C_25
REMARK    6  A    between atoms: C_14  and  C_17
REMARK    7  A    between atoms: C_22  and  O_23
REMARK                            x       y       z     vdW  Elec       q    Type
REMARK                         _______ _______ _______ _____ _____    ______ ____
ROOT
ATOM      1  C   UNL     1       5.363  -1.862   1.411  0.00  0.00    +0.040 C 
ATOM      2  N   UNL     1       5.595  -2.672   0.447  0.00  0.00    -0.299 NA
ATOM      3  C   UNL     1       4.813  -2.727  -0.781  0.00  0.00    +0.081 C 
ATOM      4  C   UNL     1       3.711  -0.715  -0.037  0.00  0.00    -0.028 C 
ATOM      5  C   UNL     1       4.236  -0.867   1.394  0.00  0.00    +0.044 C 
ATOM      6  N   UNL     1       3.512  -2.064  -0.602  0.00  0.00    +0.401 N 
ATOM      7  H   UNL     1       2.932  -2.619   0.037  0.00  0.00    -0.081 HD
ATOM      8  H   UNL     1       3.042  -1.986  -1.511  0.00  0.00    -0.081 HD
ENDROOT
BRANCH   4   9
ATOM      9  C   UNL     1       2.397   0.023  -0.020  0.00  0.00    -0.018 A 
ATOM     10  C   UNL     1       1.208  -0.681  -0.013  0.00  0.00    +0.025 A 
ATOM     11  C   UNL     1       0.002  -0.004   0.002  0.00  0.00    +0.041 A 
ATOM     12  C   UNL     1      -0.017   1.380   0.010  0.00  0.00    +0.023 A 
ATOM     13  C   UNL     1       1.169   2.087   0.002  0.00  0.00    +0.047 A 
ATOM     14  C   UNL     1       2.380   1.410  -0.013  0.00  0.00    +0.119 A 
ATOM     15 CL   UNL     1      -1.490  -0.891   0.012  0.00  0.00    -0.084 Cl
BRANCH  14  16
ATOM     16  O   UNL     1       3.549   2.105  -0.020  0.00  0.00    -0.507 OA
ATOM     17  H   UNL     1       3.878   2.311  -0.905  0.00  0.00    +0.292 HD
ENDBRANCH  14  16
ENDBRANCH   4   9
BRANCH   3  18
ATOM     18  C   UNL     1       4.582  -4.168  -1.159  0.00  0.00    -0.040 A 
ATOM     19  C   UNL     1       3.434  -4.528  -1.840  0.00  0.00    +0.005 A 
ATOM     20  C   UNL     1       3.224  -5.848  -2.191  0.00  0.00    +0.015 A 
ATOM     21  C   UNL     1       4.157  -6.811  -1.851  0.00  0.00    +0.018 A 
ATOM     22  C   UNL     1       5.303  -6.451  -1.164  0.00  0.00    +0.015 A 
ATOM     23  C   UNL     1       5.515  -5.129  -0.819  0.00  0.00    +0.005 A 
ATOM     24 BR   UNL     1       3.867  -8.619  -2.323  0.00  0.00    -0.050 Br
ENDBRANCH   3  18
BRANCH   1  28
ATOM     25  C   UNL     1       7.896  -1.991   4.816  0.00  0.00    +0.121 A 
ATOM     26  C   UNL     1       8.120  -2.857   3.753  0.00  0.00    +0.046 A 
ATOM     27  C   UNL     1       7.301  -2.818   2.646  0.00  0.00    +0.013 A 
ATOM     28  C   UNL     1       6.242  -1.907   2.594  0.00  0.00    -0.004 A 
ATOM     29  C   UNL     1       6.024  -1.034   3.663  0.00  0.00    +0.013 A 
ATOM     30  C   UNL     1       6.845  -1.082   4.768  0.00  0.00    +0.046 A 
BRANCH  25  31
ATOM     31  O   UNL     1       8.706  -2.031   5.904  0.00  0.00    -0.492 OA
BRANCH  31  33
ATOM     32  C   UNL     1       9.431  -1.307   8.093  0.00  0.00    +0.048 C 
ATOM     33  C   UNL     1       8.419  -1.113   6.961  0.00  0.00    +0.225 C 
ENDBRANCH  31  33
ENDBRANCH  25  31
ENDBRANCH   1  28
TORSDOF 6
