REMARK  Name = ZINC43735561
REMARK  5 active torsions:
REMARK  status: ('A' for Active; 'I' for Inactive)
REMARK    1  A    between atoms: C_1  and  C_2
REMARK    2  A    between atoms: C_15  and  O_27
REMARK    3  A    between atoms: C_18  and  C_26
REMARK    4  A    between atoms: C_23  and  C_24
REMARK    5  A    between atoms: C_23  and  O_25
REMARK                            x       y       z     vdW  Elec       q    Type
REMARK                         _______ _______ _______ _____ _____    ______ ____
ROOT
ATOM      1  C   UNL     1      -0.063   1.516   0.639  0.00  0.00    +0.015 C 
ATOM      2  C   UNL     1      -0.050  -0.014   0.665  0.00  0.00    +0.008 C 
ATOM      3  C   UNL     1       0.841  -0.537  -0.465  0.00  0.00    +0.017 C 
ATOM      4  C   UNL     1       2.251   0.043  -0.322  0.00  0.00    +0.075 C 
ATOM      5  C   UNL     1       2.761  -0.284   1.065  0.00  0.00    +0.134 C 
ATOM      6  O   UNL     1       3.835  -0.813   1.223  0.00  0.00    -0.297 OA
ATOM      7  C   UNL     1       1.888   0.073   2.247  0.00  0.00    +0.078 C 
ATOM      8  C   UNL     1       0.486  -0.496   2.014  0.00  0.00    +0.005 C 
ATOM      9  C   UNL     1      -0.430  -0.009   3.140  0.00  0.00    +0.005 C 
ATOM     10  C   UNL     1      -1.846  -0.546   2.924  0.00  0.00    +0.007 C 
ATOM     11  C   UNL     1      -2.380  -0.031   1.586  0.00  0.00    +0.033 C 
ATOM     12  C   UNL     1      -1.471  -0.541   0.457  0.00  0.00    +0.146 C 
ATOM     13  C   UNL     1      -1.989  -0.113  -0.912  0.00  0.00    +0.153 C 
ATOM     14  C   UNL     1      -3.447  -0.555  -1.123  0.00  0.00    +0.044 C 
ATOM     15  C   UNL     1      -4.268   0.046   0.002  0.00  0.00    +0.002 C 
ATOM     16  C   UNL     1      -3.776  -0.571   1.335  0.00  0.00    +0.004 C 
ATOM     17  C   UNL     1      -4.858  -0.111   2.318  0.00  0.00    +0.007 C 
ATOM     18  C   UNL     1      -6.168  -0.301   1.506  0.00  0.00    +0.035 C 
ATOM     19  C   UNL     1      -5.760  -0.273   0.002  0.00  0.00    +0.069 C 
ATOM     20  C   UNL     1      -6.014  -1.620  -0.677  0.00  0.00    +0.042 C 
ATOM     21  C   UNL     1      -4.063   1.561   0.039  0.00  0.00    +0.014 C 
ATOM     22  F   UNL     1      -1.443  -1.939   0.494  0.00  0.00    -0.238 F 
ENDROOT
BRANCH  19  23
ATOM     23  O   UNL     1      -6.487   0.763  -0.662  0.00  0.00    -0.388 OA
ATOM     24  H   UNL     1      -7.442   0.615  -0.693  0.00  0.00    +0.210 HD
ENDBRANCH  19  23
BRANCH  13  25
ATOM     25  O   UNL     1      -1.172  -0.702  -1.926  0.00  0.00    -0.389 OA
ATOM     26  H   UNL     1      -1.440  -0.476  -2.827  0.00  0.00    +0.210 HD
ENDBRANCH  13  25
TORSDOF 2
