REMARK  Name = ZINC02159822
REMARK  5 active torsions:
REMARK  status: ('A' for Active; 'I' for Inactive)
REMARK    1  A    between atoms: C_1  and  C_2
REMARK    2  A    between atoms: C_2  and  C_3
REMARK    3  A    between atoms: C_6  and  N_9
REMARK    4  A    between atoms: C_10  and  C_12
REMARK    5  A    between atoms: N_13  and  N_14
REMARK                            x       y       z     vdW  Elec       q    Type
REMARK                         _______ _______ _______ _____ _____    ______ ____
ROOT
ATOM      1  N   UNL     1      -2.208  -4.221   0.416  0.00  0.00    -0.183 N 
ATOM      2  C   UNL     1      -0.915  -4.884   0.390  0.00  0.00    +0.230 C 
ATOM      3  C   UNL     1      -1.038  -6.362   0.576  0.00  0.00    +0.236 C 
ATOM      4  O   UNL     1      -0.018  -7.016   0.596  0.00  0.00    -0.274 OA
ATOM      5  N   UNL     1      -2.196  -7.010   0.717  0.00  0.00    -0.282 N 
ATOM      6  C   UNL     1      -2.177  -8.465   0.980  0.00  0.00    +0.162 C 
ATOM      7  C   UNL     1      -3.215  -9.100   0.083  0.00  0.00    +0.038 A 
ATOM      8  C   UNL     1      -4.137  -8.394  -0.607  0.00  0.00    -0.015 A 
ATOM      9  C   UNL     1      -4.942  -9.351  -1.338  0.00  0.00    +0.003 A 
ATOM     10  C   UNL     1      -6.028  -9.207  -2.207  0.00  0.00    +0.010 A 
ATOM     11  C   UNL     1      -6.560 -10.360  -2.732  0.00  0.00    +0.001 A 
ATOM     12  C   UNL     1      -6.053 -11.611  -2.422  0.00  0.00    +0.002 A 
ATOM     13  C   UNL     1      -4.979 -11.782  -1.567  0.00  0.00    +0.026 A 
ATOM     14  C   UNL     1      -4.419 -10.630  -1.018  0.00  0.00    +0.047 A 
ATOM     15  N   UNL     1      -3.376 -10.439  -0.158  0.00  0.00    -0.356 N 
ATOM     16  H   UNL     1      -2.832 -11.144   0.225  0.00  0.00    +0.166 HD
ATOM     17  C   UNL     1      -4.259  -6.892  -0.587  0.00  0.00    +0.069 C 
ATOM     18  C   UNL     1      -3.498  -6.349   0.631  0.00  0.00    +0.169 C 
ATOM     19  C   UNL     1      -3.368  -4.864   0.523  0.00  0.00    +0.256 C 
ATOM     20  O   UNL     1      -4.385  -4.204   0.532  0.00  0.00    -0.272 OA
ENDROOT
BRANCH   1  22
ATOM     21  C   UNL     1      -1.122  -2.157   0.213  0.00  0.00    +0.198 C 
ATOM     22  N   UNL     1      -2.235  -2.823   0.319  0.00  0.00    -0.180 NA
BRANCH  21  24
ATOM     23  N   UNL     1       0.002  -0.004   0.002  0.00  0.00    -0.281 N 
ATOM     24  C   UNL     1      -1.150  -0.694   0.111  0.00  0.00    +0.261 C 
ATOM     25  O   UNL     1      -2.214  -0.104   0.125  0.00  0.00    -0.269 OA
ATOM     26  H   UNL     1       0.844  -0.477  -0.086  0.00  0.00    +0.155 HD
BRANCH  23  30
ATOM     27  C   UNL     1      -0.052   4.160   0.043  0.00  0.00    -0.048 A 
ATOM     28  C   UNL     1      -0.974   3.451   0.790  0.00  0.00    +0.005 A 
ATOM     29  C   UNL     1      -0.959   2.070   0.779  0.00  0.00    +0.023 A 
ATOM     30  C   UNL     1      -0.016   1.394   0.015  0.00  0.00    +0.034 A 
ATOM     31  C   UNL     1       0.912   2.109  -0.730  0.00  0.00    +0.023 A 
ATOM     32  C   UNL     1       0.887   3.490  -0.719  0.00  0.00    +0.005 A 
BRANCH  27  34
ATOM     33  C   UNL     1       0.829   6.178   1.183  0.00  0.00    +0.009 C 
ATOM     34  C   UNL     1      -0.072   5.667   0.057  0.00  0.00    +0.032 C 
ENDBRANCH  27  34
ENDBRANCH  23  30
ENDBRANCH  21  24
ENDBRANCH   1  22
TORSDOF 4
