REMARK  Name = ZINC29664807
REMARK  10 active torsions:
REMARK  status: ('A' for Active; 'I' for Inactive)
REMARK    1  A    between atoms: C_1  and  C_2
REMARK    2  A    between atoms: C_2  and  C_4
REMARK    3  A    between atoms: C_2  and  N_12
REMARK    4  A    between atoms: C_13  and  C_15
REMARK    5  A    between atoms: C_15  and  S_16
REMARK    6  A    between atoms: S_16  and  C_17
REMARK    7  A    between atoms: C_20  and  C_27
REMARK    8  A    between atoms: N_21  and  C_22
REMARK    9  A    between atoms: C_22  and  C_23
REMARK   10  A    between atoms: C_23  and  C_24
REMARK                            x       y       z     vdW  Elec       q    Type
REMARK                         _______ _______ _______ _____ _____    ______ ____
ROOT
ATOM      1  C   UNL     1       6.322   1.181  -1.534  0.00  0.00    +0.192 A 
ATOM      2  N   UNL     1       6.553   2.286  -0.863  0.00  0.00    -0.122 NA
ATOM      3  N   UNL     1       7.793   2.610  -0.955  0.00  0.00    -0.125 NA
ATOM      4  C   UNL     1       8.431   1.734  -1.700  0.00  0.00    +0.200 A 
ATOM      5  N   UNL     1       7.507   0.791  -2.094  0.00  0.00    -0.299 N 
ENDROOT
BRANCH   4   6
ATOM      6  C   UNL     1       9.861   1.756  -2.047  0.00  0.00    +0.172 A 
ATOM      7  C   UNL     1      10.701   2.820  -1.909  0.00  0.00    +0.053 A 
ATOM      8  C   UNL     1      11.967   2.397  -2.358  0.00  0.00    +0.042 A 
ATOM      9  C   UNL     1      11.839   1.115  -2.753  0.00  0.00    +0.196 A 
ATOM     10  O   UNL     1      10.566   0.731  -2.564  0.00  0.00    -0.460 OA
ENDBRANCH   4   6
BRANCH   1  11
ATOM     11  S   UNL     1       4.773   0.357  -1.690  0.00  0.00    -0.077 S 
BRANCH  11  12
ATOM     12  C   UNL     1       3.732   1.454  -0.695  0.00  0.00    +0.173 C 
BRANCH  12  14
ATOM     13  N   UNL     1       1.362   1.593  -0.002  0.00  0.00    -0.308 N 
ATOM     14  C   UNL     1       2.318   0.933  -0.685  0.00  0.00    +0.224 C 
ATOM     15  O   UNL     1       2.042  -0.081  -1.290  0.00  0.00    -0.275 OA
ATOM     16  H   UNL     1       1.613   2.513   0.547  0.00  0.00    +0.149 HD
BRANCH  13  18
ATOM     17  C   UNL     1      -0.753   1.593  -1.232  0.00  0.00    +0.033 C 
ATOM     18  C   UNL     1      -0.013   1.086   0.008  0.00  0.00    +0.102 C 
BRANCH  18  19
ATOM     19  C   UNL     1      -0.718   1.572   1.248  0.00  0.00    -0.009 A 
ATOM     20  C   UNL     1      -0.295   2.729   1.875  0.00  0.00    +0.008 A 
ATOM     21  C   UNL     1      -0.942   3.176   3.012  0.00  0.00    +0.020 A 
ATOM     22  C   UNL     1      -2.012   2.464   3.524  0.00  0.00    +0.042 A 
ATOM     23  C   UNL     1      -2.436   1.306   2.897  0.00  0.00    +0.040 A 
ATOM     24  C   UNL     1      -1.792   0.863   1.755  0.00  0.00    +0.047 A 
ATOM     25 CL   UNL     1      -2.327  -0.587   0.964  0.00  0.00    -0.083 Cl
ATOM     26 CL   UNL     1      -2.824   3.025   4.952  0.00  0.00    -0.083 Cl
ENDBRANCH  18  19
ENDBRANCH  13  18
ENDBRANCH  12  14
ENDBRANCH  11  12
ENDBRANCH   1  11
BRANCH   5  27
ATOM     27  C   UNL     1       7.744  -0.384  -2.936  0.00  0.00    +0.135 C 
BRANCH  27  28
ATOM     28  C   UNL     1       7.530  -0.010  -4.404  0.00  0.00    +0.117 C 
BRANCH  28  29
ATOM     29  C   UNL     1       7.774  -1.218  -5.271  0.00  0.00    +0.212 C 
ATOM     30  O   UNL     1       8.088  -2.274  -4.765  0.00  0.00    -0.276 OA
ATOM     31  N   UNL     1       7.643  -1.125  -6.609  0.00  0.00    -0.329 N 
ATOM     32  H   UNL     1       7.821  -2.007  -7.242  0.00  0.00    +0.145 HD
ATOM     33  H   UNL     1       7.358  -0.167  -7.069  0.00  0.00    +0.145 HD
ENDBRANCH  28  29
ENDBRANCH  27  28
ENDBRANCH   5  27
TORSDOF 9
