REMARK  Name = ZINC20181666
REMARK  11 active torsions:
REMARK  status: ('A' for Active; 'I' for Inactive)
REMARK    1  A    between atoms: C_1  and  C_2
REMARK    2  A    between atoms: C_2  and  C_3
REMARK    3  A    between atoms: C_6  and  C_9
REMARK    4  A    between atoms: N_13  and  C_21
REMARK    5  A    between atoms: C_21  and  C_22
REMARK    6  A    between atoms: N_24  and  C_25
REMARK    7  A    between atoms: C_25  and  C_26
REMARK    8  A    between atoms: C_26  and  C_27
REMARK    9  A    between atoms: C_27  and  N_28
REMARK   10  A    between atoms: C_30  and  C_37
REMARK   11  A    between atoms: C_33  and  C_36
REMARK                            x       y       z     vdW  Elec       q    Type
REMARK                         _______ _______ _______ _____ _____    ______ ____
ROOT
ATOM      1  C   UNL     1       2.692  -1.859  -4.726  0.00  0.00    +0.028 C 
ATOM      2  C   UNL     1       1.976  -2.185  -5.829  0.00  0.00    +0.076 C 
ATOM      3  C   UNL     1       0.512  -1.977  -5.903  0.00  0.00    +0.258 C 
ATOM      4  O   UNL     1      -0.151  -1.991  -4.883  0.00  0.00    -0.269 OA
ATOM      5  N   UNL     1      -0.086  -1.774  -7.079  0.00  0.00    -0.257 N 
ATOM      6  C   UNL     1       0.536  -1.637  -8.313  0.00  0.00    +0.051 A 
ATOM      7  C   UNL     1      -0.165  -1.018  -9.347  0.00  0.00    +0.024 A 
ATOM      8  C   UNL     1       0.415  -0.859 -10.589  0.00  0.00    +0.002 A 
ATOM      9  C   UNL     1       1.700  -1.311 -10.826  0.00  0.00    +0.001 A 
ATOM     10  C   UNL     1       2.410  -1.928  -9.813  0.00  0.00    +0.017 A 
ATOM     11  C   UNL     1       1.832  -2.092  -8.565  0.00  0.00    +0.034 A 
ATOM     12  S   UNL     1       2.739  -2.878  -7.273  0.00  0.00    -0.082 S 
ENDROOT
BRANCH   1  16
ATOM     13  C   UNL     1       0.861   0.303  -1.571  0.00  0.00    -0.048 A 
ATOM     14  C   UNL     1       1.799  -0.673  -1.283  0.00  0.00    +0.004 A 
ATOM     15  C   UNL     1       2.395  -1.385  -2.303  0.00  0.00    +0.008 A 
ATOM     16  C   UNL     1       2.057  -1.110  -3.632  0.00  0.00    -0.024 A 
ATOM     17  C   UNL     1       1.112  -0.118  -3.915  0.00  0.00    +0.008 A 
ATOM     18  C   UNL     1       0.521   0.581  -2.884  0.00  0.00    +0.004 A 
BRANCH  13  20
ATOM     19  C   UNL     1      -1.062   0.347  -0.006  0.00  0.00    +0.009 C 
ATOM     20  C   UNL     1       0.211   1.072  -0.450  0.00  0.00    +0.032 C 
ENDBRANCH  13  20
ENDBRANCH   1  16
BRANCH   5  21
ATOM     21  C   UNL     1      -1.548  -1.686  -7.067  0.00  0.00    +0.209 C 
BRANCH  21  22
ATOM     22  C   UNL     1      -1.964  -0.251  -6.864  0.00  0.00    +0.231 C 
ATOM     23  O   UNL     1      -1.121   0.612  -6.742  0.00  0.00    -0.274 OA
ATOM     24  N   UNL     1      -3.271   0.072  -6.818  0.00  0.00    -0.314 N 
ATOM     25  H   UNL     1      -4.036  -0.712  -6.929  0.00  0.00    +0.149 HD
BRANCH  24  26
ATOM     26  C   UNL     1      -3.675   1.466  -6.621  0.00  0.00    +0.102 C 
BRANCH  26  27
ATOM     27  C   UNL     1      -5.202   1.558  -6.608  0.00  0.00    +0.000 C 
BRANCH  27  28
ATOM     28  C   UNL     1      -5.623   3.015  -6.402  0.00  0.00    -0.077 C 
BRANCH  28  29
ATOM     29  N   UNL     1      -7.090   3.103  -6.389  0.00  0.00    +0.380 N 
ATOM     30  C   UNL     1      -7.649   2.754  -7.701  0.00  0.00    -0.076 C 
ATOM     31  C   UNL     1      -9.176   2.715  -7.612  0.00  0.00    -0.031 C 
ATOM     32  C   UNL     1      -9.692   4.086  -7.165  0.00  0.00    +0.003 C 
ATOM     33  C   UNL     1      -9.057   4.447  -5.819  0.00  0.00    -0.031 C 
ATOM     34  C   UNL     1      -7.533   4.436  -5.960  0.00  0.00    -0.076 C 
ATOM     35  C   UNL     1      -9.520   5.842  -5.393  0.00  0.00    +0.005 C 
ATOM     36  C   UNL     1      -9.602   1.653  -6.596  0.00  0.00    +0.005 C 
ATOM     37  H   UNL     1      -7.468   2.373  -5.659  0.00  0.00    -0.082 HD
ENDBRANCH  28  29
ENDBRANCH  27  28
ENDBRANCH  26  27
ENDBRANCH  24  26
ENDBRANCH  21  22
ENDBRANCH   5  21
TORSDOF 8
