REMARK  Name = ZINC20718691
REMARK  4 active torsions:
REMARK  status: ('A' for Active; 'I' for Inactive)
REMARK    1  A    between atoms: C_1  and  C_2
REMARK    2  A    between atoms: C_10  and  C_12
REMARK    3  A    between atoms: C_20  and  C_23
REMARK    4  A    between atoms: C_28  and  O_29
REMARK                            x       y       z     vdW  Elec       q    Type
REMARK                         _______ _______ _______ _____ _____    ______ ____
ROOT
ATOM      1  C   UNL     1      -2.551   3.834   5.711  0.00  0.00    +0.069 C 
ATOM      2  C   UNL     1      -1.859   2.673   5.045  0.00  0.00    +0.087 A 
ATOM      3  C   UNL     1      -1.688   2.474   3.678  0.00  0.00    +0.049 A 
ATOM      4  C   UNL     1      -1.005   1.288   3.587  0.00  0.00    +0.226 A 
ATOM      5  O   UNL     1      -0.820   0.868   4.834  0.00  0.00    -0.339 OA
ATOM      6  N   UNL     1      -1.298   1.647   5.635  0.00  0.00    -0.081 NA
ATOM      7  N   UNL     1      -0.647   0.763   2.362  0.00  0.00    -0.286 N 
ATOM      8  C   UNL     1      -0.719   1.573   1.254  0.00  0.00    +0.019 C 
ATOM      9  C   UNL     1      -1.377   2.751   1.257  0.00  0.00    +0.024 C 
ATOM     10  C   UNL     1      -2.097   3.272   2.484  0.00  0.00    +0.091 C 
ATOM     11  C   UNL     1      -1.427   3.555   0.104  0.00  0.00    +0.162 C 
ATOM     12  O   UNL     1      -2.005   4.623   0.149  0.00  0.00    -0.292 OA
ATOM     13  C   UNL     1      -0.781   3.123  -1.183  0.00  0.00    +0.088 C 
ATOM     14  C   UNL     1      -0.751   1.592  -1.233  0.00  0.00    +0.035 C 
ATOM     15  C   UNL     1      -0.013   1.086   0.008  0.00  0.00    +0.060 C 
ATOM     16  H   UNL     1      -0.313  -0.283   2.289  0.00  0.00    +0.155 HD
ENDROOT
BRANCH  14  17
ATOM     17  C   UNL     1      -0.027   1.138  -2.474  0.00  0.00    -0.002 A 
ATOM     18  C   UNL     1       1.283   1.521  -2.690  0.00  0.00    +0.007 A 
ATOM     19  C   UNL     1       1.948   1.105  -3.829  0.00  0.00    +0.001 A 
ATOM     20  C   UNL     1       1.304   0.304  -4.754  0.00  0.00    +0.004 A 
ATOM     21  C   UNL     1      -0.006  -0.082  -4.543  0.00  0.00    +0.046 A 
ATOM     22  C   UNL     1      -0.673   0.331  -3.399  0.00  0.00    +0.120 A 
BRANCH  22  23
ATOM     23  O   UNL     1      -1.960  -0.052  -3.186  0.00  0.00    -0.506 OA
ATOM     24  H   UNL     1      -2.472  -0.693  -3.919  0.00  0.00    +0.292 HD
ENDBRANCH  22  23
ENDBRANCH  14  17
BRANCH  10  25
ATOM     25  C   UNL     1      -3.585   3.147   2.284  0.00  0.00    -0.028 A 
ATOM     26  C   UNL     1      -4.394   4.268   2.315  0.00  0.00    +0.012 A 
ATOM     27  C   UNL     1      -5.729   4.121   2.131  0.00  0.00    +0.045 A 
ATOM     28  S   UNL     1      -5.878   2.357   1.905  0.00  0.00    -0.105 S 
ATOM     29  C   UNL     1      -4.151   1.935   2.065  0.00  0.00    +0.049 A 
ENDBRANCH  10  25
TORSDOF 3
