REMARK  Name = ZINC36586013
REMARK  20 active torsions:
REMARK  status: ('A' for Active; 'I' for Inactive)
REMARK    1  A    between atoms: C_1  and  C_2
REMARK    2  A    between atoms: C_2  and  C_3
REMARK    3  A    between atoms: C_2  and  C_4
REMARK    4  A    between atoms: C_2  and  C_5
REMARK    5  A    between atoms: C_5  and  C_6
REMARK    6  A    between atoms: C_6  and  C_7
REMARK    7  A    between atoms: C_6  and  C_8
REMARK    8  A    between atoms: C_6  and  N_9
REMARK    9  A    between atoms: C_10  and  C_12
REMARK   10  A    between atoms: C_12  and  C_14
REMARK   11  A    between atoms: C_12  and  N_23
REMARK   12  A    between atoms: C_17  and  O_22
REMARK   13  A    between atoms: C_18  and  O_20
REMARK   14  A    between atoms: O_20  and  C_21
REMARK   15  A    between atoms: N_23  and  C_36
REMARK   16  A    between atoms: C_24  and  C_26
REMARK   17  A    between atoms: C_28  and  N_33
REMARK   18  A    between atoms: C_36  and  C_37
REMARK   19  A    between atoms: C_36  and  C_38
REMARK   20  A    between atoms: C_36  and  C_39
REMARK                            x       y       z     vdW  Elec       q    Type
REMARK                         _______ _______ _______ _____ _____    ______ ____
ROOT
ATOM      1  C   UNL     1       5.227  -1.550  -1.945  0.00  0.00    +0.193 C 
ENDROOT
BRANCH   1   2
ATOM      2  C   UNL     1       5.674  -2.985  -2.052  0.00  0.00    -0.014 A 
ATOM      3  C   UNL     1       6.502  -3.523  -1.084  0.00  0.00    +0.010 A 
ATOM      4  C   UNL     1       6.914  -4.839  -1.178  0.00  0.00    +0.049 A 
ATOM      5  C   UNL     1       6.498  -5.622  -2.243  0.00  0.00    +0.158 A 
ATOM      6  C   UNL     1       5.665  -5.080  -3.217  0.00  0.00    +0.162 A 
ATOM      7  C   UNL     1       5.251  -3.761  -3.114  0.00  0.00    +0.055 A 
BRANCH   6   8
ATOM      8  O   UNL     1       5.255  -5.844  -4.264  0.00  0.00    -0.491 OA
ATOM      9  C   UNL     1       4.400  -5.221  -5.226  0.00  0.00    +0.277 C 
ENDBRANCH   6   8
BRANCH   5  10
ATOM     10  O   UNL     1       6.904  -6.917  -2.337  0.00  0.00    -0.503 OA
ATOM     11  H   UNL     1       6.314  -7.546  -1.900  0.00  0.00    +0.292 HD
ENDBRANCH   5  10
ENDBRANCH   1   2
BRANCH   1  13
ATOM     12  N   UNL     1       2.897  -2.209  -1.443  0.00  0.00    -0.308 N 
ATOM     13  C   UNL     1       3.975  -1.474  -1.109  0.00  0.00    +0.239 C 
ATOM     14  O   UNL     1       3.939  -0.752  -0.135  0.00  0.00    -0.273 OA
ATOM     15  H   UNL     1       2.926  -2.787  -2.222  0.00  0.00    +0.149 HD
BRANCH  12  16
ATOM     16  C   UNL     1       1.680  -2.136  -0.631  0.00  0.00    +0.030 C 
ATOM     17  C   UNL     1       1.167  -0.695  -0.610  0.00  0.00    +0.031 C 
ATOM     18  C   UNL     1       1.992  -2.587   0.797  0.00  0.00    +0.031 C 
BRANCH  16  19
ATOM     19  C   UNL     1       0.610  -3.050  -1.232  0.00  0.00    +0.031 C 
BRANCH  19  21
ATOM     20  C   UNL     1       1.615  -3.226  -3.512  0.00  0.00    +0.010 C 
ATOM     21  C   UNL     1       0.419  -2.708  -2.711  0.00  0.00    -0.036 C 
ATOM     22  C   UNL     1       0.314  -1.190  -2.874  0.00  0.00    +0.010 C 
ATOM     23  C   UNL     1      -0.863  -3.366  -3.225  0.00  0.00    +0.010 C 
ENDBRANCH  19  21
ENDBRANCH  16  19
ENDBRANCH  12  16
ENDBRANCH   1  13
BRANCH   1  24
ATOM     24  N   UNL     1       6.284  -0.755  -1.314  0.00  0.00    -0.277 N 
ATOM     25  C   UNL     1       6.670  -1.027  -0.052  0.00  0.00    +0.252 C 
ATOM     26  O   UNL     1       6.132  -1.924   0.568  0.00  0.00    -0.270 OA
BRANCH  25  27
ATOM     27  C   UNL     1       7.745  -0.237   0.578  0.00  0.00    +0.086 A 
ATOM     28  C   UNL     1       8.406   0.756  -0.151  0.00  0.00    +0.049 A 
ATOM     29  C   UNL     1       9.409   1.490   0.443  0.00  0.00    +0.127 A 
ATOM     30  C   UNL     1       9.767   1.249   1.760  0.00  0.00    +0.036 A 
ATOM     31  C   UNL     1       9.122   0.271   2.491  0.00  0.00    +0.054 A 
ATOM     32  C   UNL     1       8.105  -0.473   1.911  0.00  0.00    +0.191 A 
ATOM     33  O   UNL     1       7.467  -1.431   2.630  0.00  0.00    -0.287 OA
BRANCH  29  34
ATOM     34  N   UNL     1      10.109   2.541  -0.330  0.00  0.00    +0.056 N 
ATOM     35  O   UNL     1       9.864   2.692  -1.504  0.00  0.00    -0.126 OA
ATOM     36  O   UNL     1      10.926   3.248   0.213  0.00  0.00    -0.126 OA
ENDBRANCH  29  34
ENDBRANCH  25  27
BRANCH  24  37
ATOM     37  C   UNL     1       6.921   0.336  -2.056  0.00  0.00    +0.030 C 
ATOM     38  C   UNL     1       6.288   0.448  -3.444  0.00  0.00    +0.031 C 
ATOM     39  C   UNL     1       6.724   1.651  -1.298  0.00  0.00    +0.031 C 
ATOM     40  C   UNL     1       8.417   0.050  -2.199  0.00  0.00    +0.031 C 
ENDBRANCH  24  37
ENDBRANCH   1  24
TORSDOF 11
