REMARK  Name = ZINC28954677
REMARK  2 active torsions:
REMARK  status: ('A' for Active; 'I' for Inactive)
REMARK    1  A    between atoms: C_4  and  C_7
REMARK    2  A    between atoms: N_10  and  C_13
REMARK                            x       y       z     vdW  Elec       q    Type
REMARK                         _______ _______ _______ _____ _____    ______ ____
ROOT
ATOM      1  C   UNL     1      -2.446   3.906   0.333  0.00  0.00    -0.049 C 
ATOM      2  C   UNL     1      -2.325   5.288   1.015  0.00  0.00    +0.005 C 
ATOM      3  C   UNL     1      -3.699   5.448   1.716  0.00  0.00    +0.106 C 
ATOM      4  N   UNL     1      -4.003   4.073   2.188  0.00  0.00    -0.303 N 
ATOM      5  C   UNL     1      -3.552   3.167   1.109  0.00  0.00    +0.093 C 
ATOM      6  C   UNL     1      -5.346   3.921   2.427  0.00  0.00    +0.199 A 
ATOM      7  N   UNL     1      -5.945   4.758   3.323  0.00  0.00    -0.294 N 
ATOM      8  H   UNL     1      -5.353   5.531   3.835  0.00  0.00    +0.172 HD
ATOM      9  C   UNL     1      -7.267   4.646   3.592  0.00  0.00    +0.260 A 
ATOM     10  O   UNL     1      -7.813   5.386   4.389  0.00  0.00    -0.267 OA
ATOM     11  C   UNL     1      -8.017   3.599   2.885  0.00  0.00    +0.065 A 
ATOM     12  C   UNL     1      -9.382   3.404   3.092  0.00  0.00    +0.015 A 
ATOM     13  C   UNL     1     -10.032   2.414   2.407  0.00  0.00    +0.001 A 
ATOM     14  C   UNL     1      -9.347   1.605   1.510  0.00  0.00    +0.002 A 
ATOM     15  C   UNL     1      -8.010   1.775   1.288  0.00  0.00    +0.028 A 
ATOM     16  C   UNL     1      -7.317   2.777   1.973  0.00  0.00    +0.080 A 
ATOM     17  N   UNL     1      -5.993   2.985   1.780  0.00  0.00    -0.216 NA
ENDROOT
BRANCH   1  21
ATOM     18  C   UNL     1       1.135   1.718   0.001  0.00  0.00    -0.048 C 
ATOM     19  C   UNL     1      -0.013   1.076   0.008  0.00  0.00    -0.041 C 
ATOM     20  C   UNL     1      -1.342   1.774   0.018  0.00  0.00    -0.050 C 
ATOM     21  N   UNL     1      -1.176   3.174   0.434  0.00  0.00    +0.385 N 
ATOM     22  C   UNL     1      -0.129   3.821  -0.373  0.00  0.00    -0.073 C 
ATOM     23  C   UNL     1       1.225   3.219   0.014  0.00  0.00    +0.017 C 
ATOM     24  H   UNL     1      -0.868   3.191   1.490  0.00  0.00    -0.081 HD
BRANCH  18  28
ATOM     25  C   UNL     1       4.732  -0.538  -0.066  0.00  0.00    +0.000 A 
ATOM     26  C   UNL     1       3.866  -0.591  -1.144  0.00  0.00    +0.001 A 
ATOM     27  C   UNL     1       2.696   0.140  -1.129  0.00  0.00    +0.008 A 
ATOM     28  C   UNL     1       2.387   0.933  -0.023  0.00  0.00    -0.022 A 
ATOM     29  C   UNL     1       3.267   0.986   1.058  0.00  0.00    +0.008 A 
ATOM     30  C   UNL     1       4.431   0.246   1.033  0.00  0.00    +0.001 A 
ENDBRANCH  18  28
ENDBRANCH   1  21
TORSDOF 2
