REMARK  Name = ZINC02761937
REMARK  7 active torsions:
REMARK  status: ('A' for Active; 'I' for Inactive)
REMARK    1  A    between atoms: C_1  and  N_2
REMARK    2  A    between atoms: C_13  and  C_15
REMARK    3  A    between atoms: C_17  and  C_38
REMARK    4  A    between atoms: C_18  and  N_37
REMARK    5  A    between atoms: N_19  and  C_27
REMARK    6  A    between atoms: C_30  and  S_33
REMARK    7  A    between atoms: S_33  and  N_36
REMARK                            x       y       z     vdW  Elec       q    Type
REMARK                         _______ _______ _______ _____ _____    ______ ____
ROOT
ATOM      1  C   UNL     1       1.544   2.124  -0.133  0.00  0.00    +0.097 C 
ATOM      2  C   UNL     1       0.283   1.473   0.354  0.00  0.00    +0.077 C 
ATOM      3  C   UNL     1       0.166   0.121   0.406  0.00  0.00    +0.107 C 
ATOM      4  N   UNL     1       1.210  -0.679   0.000  0.00  0.00    -0.260 N 
ATOM      5  C   UNL     1       2.197  -0.179  -0.809  0.00  0.00    +0.024 C 
ATOM      6  C   UNL     1       2.391   1.152  -0.915  0.00  0.00    +0.025 C 
ATOM      7  C   UNL     1       3.390   1.674  -1.756  0.00  0.00    +0.162 C 
ATOM      8  O   UNL     1       3.544   2.877  -1.823  0.00  0.00    -0.292 OA
ATOM      9  C   UNL     1       4.272   0.771  -2.574  0.00  0.00    +0.080 C 
ATOM     10  C   UNL     1       3.508  -0.520  -2.890  0.00  0.00    +0.014 C 
ATOM     11  C   UNL     1       3.060  -1.154  -1.572  0.00  0.00    +0.052 C 
ENDROOT
BRANCH   1  24
ATOM     12  C   UNL     1       5.092   3.642   5.401  0.00  0.00    +0.149 C 
ATOM     13  N   UNL     1       4.479   4.232   4.208  0.00  0.00    -0.343 N 
ATOM     14  C   UNL     1       4.511   5.577   3.886  0.00  0.00    +0.050 A 
ATOM     15  C   UNL     1       5.073   6.680   4.522  0.00  0.00    +0.026 A 
ATOM     16  C   UNL     1       4.950   7.934   3.965  0.00  0.00    +0.002 A 
ATOM     17  C   UNL     1       4.269   8.112   2.770  0.00  0.00    +0.001 A 
ATOM     18  C   UNL     1       3.706   7.032   2.125  0.00  0.00    +0.010 A 
ATOM     19  C   UNL     1       3.822   5.758   2.678  0.00  0.00    +0.008 A 
ATOM     20  C   UNL     1       3.351   4.425   2.260  0.00  0.00    +0.008 A 
ATOM     21  C   UNL     1       3.786   3.523   3.243  0.00  0.00    +0.050 A 
ATOM     22  C   UNL     1       3.482   2.172   3.110  0.00  0.00    +0.027 A 
ATOM     23  C   UNL     1       2.756   1.732   2.024  0.00  0.00    +0.006 A 
ATOM     24  C   UNL     1       2.332   2.623   1.051  0.00  0.00    -0.034 A 
ATOM     25  C   UNL     1       2.623   3.966   1.165  0.00  0.00    +0.015 A 
ENDBRANCH   1  24
BRANCH   4  26
ATOM     26  C   UNL     1       1.265  -2.013   0.419  0.00  0.00    +0.040 A 
ATOM     27  C   UNL     1       1.981  -2.356   1.558  0.00  0.00    +0.026 A 
ATOM     28  C   UNL     1       2.029  -3.673   1.972  0.00  0.00    +0.030 A 
ATOM     29  C   UNL     1       1.374  -4.651   1.246  0.00  0.00    +0.105 A 
ATOM     30  C   UNL     1       0.665  -4.314   0.108  0.00  0.00    +0.030 A 
ATOM     31  C   UNL     1       0.608  -2.998  -0.308  0.00  0.00    +0.026 A 
BRANCH  29  32
ATOM     32  S   UNL     1       1.444  -6.332   1.772  0.00  0.00    +0.056 S 
ATOM     33  O   UNL     1       1.717  -6.309   3.167  0.00  0.00    -0.153 OA
ATOM     34  O   UNL     1       0.299  -6.975   1.230  0.00  0.00    -0.153 OA
BRANCH  32  35
ATOM     35  N   UNL     1       2.762  -7.019   1.043  0.00  0.00    -0.204 NA
ATOM     36  H   UNL     1       3.321  -6.490   0.452  0.00  0.00    +0.144 HD
ATOM     37  H   UNL     1       2.976  -7.951   1.206  0.00  0.00    +0.144 HD
ENDBRANCH  32  35
ENDBRANCH  29  32
ENDBRANCH   4  26
BRANCH   3  38
ATOM     38  N   UNL     1      -0.998  -0.449   0.862  0.00  0.00    -0.345 N 
ATOM     39  H   UNL     1      -1.701   0.110   1.229  0.00  0.00    +0.144 HD
ATOM     40  H   UNL     1      -1.117  -1.411   0.817  0.00  0.00    +0.144 HD
ENDBRANCH   3  38
BRANCH   2  41
ATOM     41  C   UNL     1      -0.817   2.292   0.767  0.00  0.00    +0.099 C 
ATOM     42  N   UNL     1      -1.690   2.941   1.094  0.00  0.00    -0.191 NA
ENDBRANCH   2  41
TORSDOF 6
