REMARK  Name = ZINC65198935
REMARK  8 active torsions:
REMARK  status: ('A' for Active; 'I' for Inactive)
REMARK    1  A    between atoms: C_7  and  C_11
REMARK    2  A    between atoms: N_13  and  C_14
REMARK    3  A    between atoms: C_14  and  C_15
REMARK    4  A    between atoms: C_15  and  C_16
REMARK    5  A    between atoms: N_18  and  N_19
REMARK    6  A    between atoms: N_22  and  C_23
REMARK    7  A    between atoms: C_23  and  C_24
REMARK    8  A    between atoms: C_24  and  C_25
REMARK                            x       y       z     vdW  Elec       q    Type
REMARK                         _______ _______ _______ _____ _____    ______ ____
ROOT
ATOM      1  C   UNL     1       0.187  -8.137  -0.039  0.00  0.00    +0.231 C 
ATOM      2  O   UNL     1      -1.014  -7.965  -0.026  0.00  0.00    -0.274 OA
ATOM      3  N   UNL     1       0.689  -9.387  -0.051  0.00  0.00    -0.233 N 
ATOM      4  H   UNL     1       1.649  -9.524  -0.061  0.00  0.00    +0.173 HD
ENDROOT
BRANCH   3   5
ATOM      5  N   UNL     1      -0.176 -10.489  -0.047  0.00  0.00    -0.218 N 
ATOM      6  C   UNL     1       0.326 -11.740  -0.059  0.00  0.00    +0.316 C 
ATOM      7  O   UNL     1      -0.424 -12.697  -0.056  0.00  0.00    -0.251 OA
ATOM      8  N   UNL     1       1.661 -11.930  -0.073  0.00  0.00    -0.298 N 
ATOM      9  H   UNL     1      -1.136 -10.353  -0.036  0.00  0.00    +0.174 HD
ATOM     10  H   UNL     1       2.259 -11.167  -0.076  0.00  0.00    +0.150 HD
BRANCH   8  11
ATOM     11  C   UNL     1       2.207 -13.290  -0.086  0.00  0.00    +0.111 C 
BRANCH  11  12
ATOM     12  C   UNL     1       3.735 -13.226  -0.101  0.00  0.00    +0.061 C 
BRANCH  12  13
ATOM     13  C   UNL     1       4.297 -14.624  -0.114  0.00  0.00    -0.009 A 
ATOM     14  C   UNL     1       4.609 -15.409  -1.174  0.00  0.00    +0.011 A 
ATOM     15  C   UNL     1       5.118 -16.673  -0.945  0.00  0.00    +0.008 A 
ATOM     16  C   UNL     1       5.290 -17.091   0.333  0.00  0.00    +0.045 A 
ATOM     17  S   UNL     1       4.731 -15.674   1.263  0.00  0.00    -0.102 S 
ENDBRANCH  12  13
ENDBRANCH  11  12
ENDBRANCH   8  11
ENDBRANCH   3   5
BRANCH   1  18
ATOM     18  C   UNL     1       1.117  -6.951  -0.043  0.00  0.00    +0.116 C 
BRANCH  18  19
ATOM     19  C   UNL     1       0.297  -5.659  -0.028  0.00  0.00    +0.114 C 
BRANCH  19  22
ATOM     20  C   UNL     1       0.699  -3.256  -0.021  0.00  0.00    +0.246 C 
ATOM     21  O   UNL     1      -0.505  -3.084  -0.007  0.00  0.00    -0.270 OA
ATOM     22  N   UNL     1       1.201  -4.507  -0.032  0.00  0.00    -0.311 N 
ATOM     23  H   UNL     1       2.161  -4.644  -0.043  0.00  0.00    +0.149 HD
BRANCH  20  30
ATOM     24  C   UNL     1      -0.017   1.373   0.010  0.00  0.00    +0.001 A 
ATOM     25  C   UNL     1       1.172   2.090   0.002  0.00  0.00    +0.002 A 
ATOM     26  C   UNL     1       2.385   1.437  -0.013  0.00  0.00    +0.026 A 
ATOM     27  C   UNL     1       2.425   0.046  -0.021  0.00  0.00    +0.047 A 
ATOM     28  C   UNL     1       1.221  -0.677  -0.013  0.00  0.00    +0.012 A 
ATOM     29  C   UNL     1       0.002  -0.004   0.002  0.00  0.00    +0.011 A 
ATOM     30  C   UNL     1       1.606  -2.100  -0.024  0.00  0.00    +0.062 A 
ATOM     31  C   UNL     1       2.969  -2.132  -0.038  0.00  0.00    +0.096 A 
ATOM     32  N   UNL     1       3.457  -0.869  -0.036  0.00  0.00    -0.360 N 
ATOM     33  H   UNL     1       4.400  -0.639  -0.044  0.00  0.00    +0.165 HD
ENDBRANCH  20  30
ENDBRANCH  19  22
ENDBRANCH  18  19
ENDBRANCH   1  18
TORSDOF 8
