REMARK  Name = ZINC21682862
REMARK  6 active torsions:
REMARK  status: ('A' for Active; 'I' for Inactive)
REMARK    1  A    between atoms: C_1  and  C_2
REMARK    2  A    between atoms: C_2  and  C_4
REMARK    3  A    between atoms: C_2  and  S_17
REMARK    4  A    between atoms: N_6  and  C_7
REMARK    5  A    between atoms: C_11  and  N_13
REMARK    6  A    between atoms: S_17  and  C_18
REMARK                            x       y       z     vdW  Elec       q    Type
REMARK                         _______ _______ _______ _____ _____    ______ ____
ROOT
ATOM      1  C   UNL     1       5.291   4.282  -1.702  0.00  0.00    +0.029 C 
ATOM      2  C   UNL     1       4.863   4.233  -0.234  0.00  0.00    +0.137 C 
ENDROOT
BRANCH   2   3
ATOM      3  C   UNL     1       3.569   3.470  -0.113  0.00  0.00    +0.230 C 
ATOM      4  O   UNL     1       2.513   4.067  -0.101  0.00  0.00    -0.274 OA
ATOM      5  N   UNL     1       3.585   2.126  -0.019  0.00  0.00    -0.285 N 
ATOM      6  H   UNL     1       4.543   1.591   0.056  0.00  0.00    +0.155 HD
BRANCH   5   7
ATOM      7  C   UNL     1       2.381   1.410  -0.018  0.00  0.00    +0.036 A 
ATOM      8  C   UNL     1       2.269   0.239   0.720  0.00  0.00    +0.026 A 
ATOM      9  C   UNL     1       1.082  -0.466   0.719  0.00  0.00    +0.042 A 
ATOM     10  C   UNL     1       0.003  -0.006  -0.018  0.00  0.00    +0.154 A 
ATOM     11  C   UNL     1       0.112   1.161  -0.754  0.00  0.00    +0.163 A 
ATOM     12  C   UNL     1       1.298   1.869  -0.756  0.00  0.00    +0.059 A 
ATOM     13  F   UNL     1      -1.158  -0.697  -0.018  0.00  0.00    -0.203 F 
BRANCH  11  14
ATOM     14  N   UNL     1      -1.042   1.651  -1.540  0.00  0.00    +0.059 N 
ATOM     15  O   UNL     1      -0.947   2.678  -2.188  0.00  0.00    -0.126 OA
ATOM     16  O   UNL     1      -2.088   1.026  -1.539  0.00  0.00    -0.126 OA
ENDBRANCH  11  14
ENDBRANCH   5   7
ENDBRANCH   2   3
BRANCH   2  17
ATOM     17  S   UNL     1       4.630   5.922   0.384  0.00  0.00    -0.073 S 
BRANCH  17  18
ATOM     18  C   UNL     1       6.243   6.627   0.316  0.00  0.00    +0.197 A 
ATOM     19  N   UNL     1       7.339   6.027  -0.091  0.00  0.00    -0.122 NA
ATOM     20  N   UNL     1       8.342   6.829  -0.016  0.00  0.00    -0.127 NA
ATOM     21  C   UNL     1       7.943   7.996   0.457  0.00  0.00    +0.180 A 
ATOM     22  N   UNL     1       6.587   7.895   0.681  0.00  0.00    -0.275 N 
ATOM     23  C   UNL     1       5.886   8.960   1.177  0.00  0.00    +0.115 A 
ATOM     24  C   UNL     1       6.512  10.123   1.453  0.00  0.00    +0.059 A 
ATOM     25  C   UNL     1       7.897  10.256   1.234  0.00  0.00    +0.045 A 
ATOM     26  C   UNL     1       8.608   9.207   0.742  0.00  0.00    +0.087 A 
ATOM     27 CL   UNL     1      10.316   9.356   0.466  0.00  0.00    -0.080 Cl
ATOM     28 CL   UNL     1       5.606  11.463   2.082  0.00  0.00    -0.082 Cl
ENDBRANCH  17  18
ENDBRANCH   2  17
TORSDOF 5
