REMARK  Name = ZINC63537961
REMARK  6 active torsions:
REMARK  status: ('A' for Active; 'I' for Inactive)
REMARK    1  A    between atoms: C_1  and  C_2
REMARK    2  A    between atoms: C_5  and  C_8
REMARK    3  A    between atoms: C_11  and  C_35
REMARK    4  A    between atoms: C_16  and  C_19
REMARK    5  A    between atoms: N_21  and  C_22
REMARK    6  A    between atoms: C_22  and  C_23
REMARK                            x       y       z     vdW  Elec       q    Type
REMARK                         _______ _______ _______ _____ _____    ______ ____
ROOT
ATOM      1  C   UNL     1       0.059  -4.275  -0.021  0.00  0.00    +0.112 C 
ATOM      2  C   UNL     1      -1.355  -4.801   0.226  0.00  0.00    +0.062 C 
ATOM      3  C   UNL     1      -1.826  -4.371   1.622  0.00  0.00    +0.198 C 
ATOM      4  N   UNL     1      -0.797  -4.806   2.584  0.00  0.00    -0.243 N 
ATOM      5  C   UNL     1       0.518  -4.973   2.212  0.00  0.00    +0.087 C 
ATOM      6  C   UNL     1       1.292  -5.428   3.428  0.00  0.00    +0.100 C 
ATOM      7  C   UNL     1       0.316  -5.092   4.582  0.00  0.00    +0.165 C 
ATOM      8  N   UNL     1      -0.997  -5.099   3.898  0.00  0.00    -0.226 NA
ATOM      9  N   UNL     1       0.968  -4.755   1.026  0.00  0.00    -0.369 N 
ATOM     10  H   UNL     1      -1.455  -5.992   4.004  0.00  0.00    +0.145 HD
ATOM     11  H   UNL     1       1.905  -4.907   0.827  0.00  0.00    +0.161 HD
ENDROOT
BRANCH   1  16
ATOM     12  C   UNL     1      -0.018   1.503   0.010  0.00  0.00    +0.044 C 
ATOM     13  C   UNL     1       0.002  -0.004   0.002  0.00  0.00    -0.050 A 
ATOM     14  C   UNL     1       0.006  -0.689  -1.199  0.00  0.00    +0.004 A 
ATOM     15  C   UNL     1       0.025  -2.071  -1.206  0.00  0.00    +0.006 A 
ATOM     16  C   UNL     1       0.040  -2.768  -0.013  0.00  0.00    -0.025 A 
ATOM     17  C   UNL     1       0.037  -2.084   1.188  0.00  0.00    +0.006 A 
ATOM     18  C   UNL     1       0.023  -0.702   1.195  0.00  0.00    +0.004 A 
ENDBRANCH   1  16
BRANCH   7  19
ATOM     19  C   UNL     1       0.372  -6.148   5.656  0.00  0.00    +0.232 C 
ATOM     20  O   UNL     1      -0.481  -7.009   5.705  0.00  0.00    -0.274 OA
ATOM     21  N   UNL     1       1.369  -6.135   6.563  0.00  0.00    -0.312 N 
ATOM     22  H   UNL     1       2.051  -5.446   6.524  0.00  0.00    +0.149 HD
BRANCH  21  23
ATOM     23  C   UNL     1       1.423  -7.162   7.606  0.00  0.00    +0.133 C 
BRANCH  23  24
ATOM     24  C   UNL     1       2.644  -6.920   8.497  0.00  0.00    +0.120 C 
ATOM     25  C   UNL     1       2.617  -7.856   9.684  0.00  0.00    +0.009 C 
ATOM     26  C   UNL     1       2.566  -7.067  10.782  0.00  0.00    -0.003 A 
ATOM     27  C   UNL     1       2.519  -7.365  12.219  0.00  0.00    +0.029 A 
ATOM     28  C   UNL     1       2.472  -6.340  13.100  0.00  0.00    +0.042 A 
ATOM     29  C   UNL     1       2.466  -5.003  12.676  0.00  0.00    +0.022 A 
ATOM     30  C   UNL     1       2.506  -4.651  11.374  0.00  0.00    +0.027 A 
ATOM     31  C   UNL     1       2.558  -5.648  10.361  0.00  0.00    +0.043 A 
ATOM     32  N   UNL     1       2.604  -5.562   9.052  0.00  0.00    -0.376 N 
ATOM     33 CL   UNL     1       2.417  -6.688  14.800  0.00  0.00    -0.084 Cl
ATOM     34  H   UNL     1       2.610  -4.740   8.538  0.00  0.00    +0.160 HD
ENDBRANCH  23  24
ENDBRANCH  21  23
ENDBRANCH   7  19
BRANCH   3  35
ATOM     35  C   UNL     1      -3.163  -5.039   1.950  0.00  0.00    +0.409 C 
ATOM     36  F   UNL     1      -3.009  -6.429   1.923  0.00  0.00    -0.169 F 
ATOM     37  F   UNL     1      -3.584  -4.641   3.223  0.00  0.00    -0.169 F 
ATOM     38  F   UNL     1      -4.120  -4.658   1.003  0.00  0.00    -0.169 F 
ENDBRANCH   3  35
TORSDOF 5
