REMARK  Name = ZINC22579697
REMARK  4 active torsions:
REMARK  status: ('A' for Active; 'I' for Inactive)
REMARK    1  A    between atoms: C_1  and  C_2
REMARK    2  A    between atoms: C_4  and  C_31
REMARK    3  A    between atoms: C_13  and  C_18
REMARK    4  A    between atoms: C_20  and  C_24
REMARK                            x       y       z     vdW  Elec       q    Type
REMARK                         _______ _______ _______ _____ _____    ______ ____
ROOT
ATOM      1  C   UNL     1       2.492   1.050  -0.015  0.00  0.00    +0.044 C 
ATOM      2  C   UNL     1       1.173   1.777   0.000  0.00  0.00    -0.037 A 
ATOM      3  C   UNL     1      -0.013   1.076   0.008  0.00  0.00    +0.033 A 
ATOM      4  C   UNL     1      -1.223   1.749   0.017  0.00  0.00    +0.108 A 
ATOM      5  N   UNL     1      -1.254   3.068   0.030  0.00  0.00    -0.239 NA
ATOM      6  C   UNL     1      -0.147   3.779   0.023  0.00  0.00    +0.112 A 
ATOM      7  C   UNL     1       1.131   3.191   0.008  0.00  0.00    +0.037 A 
ATOM      8  C   UNL     1       2.273   4.124   0.002  0.00  0.00    +0.093 A 
ATOM      9  C   UNL     1       1.951   5.479   0.013  0.00  0.00    +0.084 A 
ATOM     10  S   UNL     1       0.180   5.525   0.029  0.00  0.00    -0.063 S 
ATOM     11  C   UNL     1       2.954   6.460   0.009  0.00  0.00    +0.174 A 
ATOM     12  N   UNL     1       2.963   7.782   0.016  0.00  0.00    -0.204 NA
ATOM     13  C   UNL     1       4.222   8.225   0.007  0.00  0.00    +0.202 A 
ATOM     14  N   UNL     1       5.048   7.196  -0.005  0.00  0.00    -0.142 NA
ATOM     15  N   UNL     1       4.261   6.038  -0.005  0.00  0.00    -0.200 N 
ATOM     16  C   UNL     1       4.530   4.707  -0.014  0.00  0.00    +0.225 A 
ATOM     17  N   UNL     1       3.598   3.807  -0.011  0.00  0.00    -0.234 NA
ENDROOT
BRANCH  13  18
ATOM     18  C   UNL     1       4.629   9.652   0.011  0.00  0.00    +0.132 A 
ATOM     19  C   UNL     1       5.950  10.130   0.001  0.00  0.00    +0.061 A 
ATOM     20  C   UNL     1       5.900  11.494   0.009  0.00  0.00    +0.066 A 
ATOM     21  N   UNL     1       4.585  11.856   0.022  0.00  0.00    -0.276 N 
ATOM     22  H   UNL     1       4.308  12.921   0.034  0.00  0.00    +0.189 HD
ATOM     23  N   UNL     1       3.815  10.687   0.018  0.00  0.00    -0.170 NA
BRANCH  20  24
ATOM     24  C   UNL     1       7.060  12.412   0.003  0.00  0.00    -0.000 A 
ATOM     25  C   UNL     1       8.358  11.900  -0.005  0.00  0.00    +0.011 A 
ATOM     26  C   UNL     1       9.436  12.761  -0.015  0.00  0.00    +0.020 A 
ATOM     27  C   UNL     1       9.232  14.130  -0.007  0.00  0.00    +0.041 A 
ATOM     28  C   UNL     1       7.946  14.644   0.006  0.00  0.00    +0.020 A 
ATOM     29  C   UNL     1       6.861  13.793   0.011  0.00  0.00    +0.011 A 
ATOM     30 CL   UNL     1      10.593  15.207  -0.012  0.00  0.00    -0.084 Cl
ENDBRANCH  20  24
ENDBRANCH  13  18
BRANCH   4  31
ATOM     31  C   UNL     1      -2.513   0.970   0.019  0.00  0.00    +0.390 C 
ATOM     32  F   UNL     1      -3.506   1.710  -0.632  0.00  0.00    -0.202 F 
ATOM     33  F   UNL     1      -2.325  -0.246  -0.648  0.00  0.00    -0.202 F 
ENDBRANCH   4  31
TORSDOF 3
