REMARK  Name = ZINC17193818
REMARK  9 active torsions:
REMARK  status: ('A' for Active; 'I' for Inactive)
REMARK    1  A    between atoms: C_1  and  C_2
REMARK    2  A    between atoms: C_2  and  C_3
REMARK    3  A    between atoms: C_3  and  C_5
REMARK    4  A    between atoms: C_3  and  N_6
REMARK    5  A    between atoms: C_8  and  C_15
REMARK    6  A    between atoms: C_18  and  C_31
REMARK    7  A    between atoms: C_19  and  C_29
REMARK    8  A    between atoms: C_23  and  C_26
REMARK    9  A    between atoms: C_24  and  C_25
REMARK                            x       y       z     vdW  Elec       q    Type
REMARK                         _______ _______ _______ _____ _____    ______ ____
ROOT
ATOM      1  C   UNL     1       2.192   1.263  -0.153  0.00  0.00    +0.019 C 
ATOM      2  C   UNL     1       2.606   0.148   0.564  0.00  0.00    -0.011 C 
ATOM      3  C   UNL     1       2.019  -0.341   1.827  0.00  0.00    +0.013 A 
ATOM      4  C   UNL     1       0.973   0.104   2.628  0.00  0.00    -0.020 A 
ATOM      5  C   UNL     1       0.677  -0.618   3.788  0.00  0.00    +0.095 A 
ATOM      6  C   UNL     1       1.443  -1.759   4.100  0.00  0.00    +0.135 A 
ATOM      7  N   UNL     1       2.423  -2.157   3.312  0.00  0.00    -0.230 NA
ATOM      8  C   UNL     1       2.740  -1.495   2.200  0.00  0.00    +0.092 A 
ATOM      9  C   UNL     1       3.773  -1.709   1.175  0.00  0.00    +0.081 C 
ATOM     10  C   UNL     1       3.663  -0.715   0.219  0.00  0.00    -0.023 C 
ATOM     11  C   UNL     1       4.538  -0.577  -1.001  0.00  0.00    +0.046 C 
ATOM     12  N   UNL     1       1.156  -2.480   5.248  0.00  0.00    -0.342 N 
ATOM     13  C   UNL     1       0.180   1.330   2.255  0.00  0.00    +0.046 C 
ATOM     14  H   UNL     1       1.748  -3.372   5.500  0.00  0.00    +0.144 HD
ATOM     15  H   UNL     1       0.337  -2.159   5.908  0.00  0.00    +0.144 HD
ENDROOT
BRANCH   1  18
ATOM     16  N   UNL     1      -1.394   1.431  -0.373  0.00  0.00    -0.343 N 
ATOM     17  C   UNL     1      -0.242   0.734  -0.371  0.00  0.00    +0.095 A 
ATOM     18  C   UNL     1       0.824   1.601  -0.204  0.00  0.00    +0.001 A 
ATOM     19  C   UNL     1       0.238   2.953  -0.090  0.00  0.00    +0.007 A 
ATOM     20  C   UNL     1      -1.150   2.780  -0.200  0.00  0.00    +0.050 A 
ATOM     21  C   UNL     1      -1.982   3.892  -0.130  0.00  0.00    +0.026 A 
ATOM     22  C   UNL     1      -1.441   5.147   0.047  0.00  0.00    +0.002 A 
ATOM     23  C   UNL     1      -0.069   5.315   0.156  0.00  0.00    +0.001 A 
ATOM     24  C   UNL     1       0.773   4.225   0.088  0.00  0.00    +0.010 A 
BRANCH  16  25
ATOM     25  C   UNL     1      -2.724   0.840  -0.533  0.00  0.00    +0.084 C 
ATOM     26  C   UNL     1      -2.930  -0.246   0.525  0.00  0.00    +0.031 C 
BRANCH  25  28
ATOM     27  C   UNL     1      -4.271  -0.285  -2.140  0.00  0.00    +0.006 C 
ATOM     28  C   UNL     1      -2.844   0.222  -1.928  0.00  0.00    +0.021 C 
ENDBRANCH  25  28
ENDBRANCH  16  25
ENDBRANCH   1  18
BRANCH   9  29
ATOM     29  C   UNL     1       4.733  -2.772   1.167  0.00  0.00    +0.102 C 
ATOM     30  N   UNL     1       5.494  -3.614   1.160  0.00  0.00    -0.191 NA
ENDBRANCH   9  29
BRANCH   5  31
ATOM     31  C   UNL     1      -0.390  -0.203   4.648  0.00  0.00    +0.103 C 
ATOM     32  N   UNL     1      -1.237   0.127   5.330  0.00  0.00    -0.191 NA
ENDBRANCH   5  31
TORSDOF 5
