REMARK  Name = ZINC36252561
REMARK  3 active torsions:
REMARK  status: ('A' for Active; 'I' for Inactive)
REMARK    1  A    between atoms: C_1  and  C_2
REMARK    2  A    between atoms: C_3  and  N_19
REMARK    3  A    between atoms: C_8  and  C_11
REMARK                            x       y       z     vdW  Elec       q    Type
REMARK                         _______ _______ _______ _____ _____    ______ ____
ROOT
ATOM      1  C   UNL     1      -2.013   1.179   1.020  0.00  0.00    +0.066 C 
ATOM      2  C   UNL     1      -1.650  -0.272   0.838  0.00  0.00    +0.045 A 
ATOM      3  C   UNL     1      -2.346  -1.036  -0.041  0.00  0.00    +0.044 A 
ATOM      4  C   UNL     1      -2.012  -2.394  -0.217  0.00  0.00    +0.028 A 
ATOM      5  C   UNL     1      -0.989  -2.936   0.497  0.00  0.00    +0.050 A 
ATOM      6  C   UNL     1      -0.278  -2.129   1.404  0.00  0.00    +0.162 A 
ATOM      7  N   UNL     1      -0.619  -0.808   1.554  0.00  0.00    -0.278 N 
ATOM      8  C   UNL     1       0.247  -0.300   2.484  0.00  0.00    +0.169 A 
ATOM      9  N   UNL     1       1.050  -1.281   2.847  0.00  0.00    -0.128 NA
ATOM     10  N   UNL     1       0.740  -2.362   2.221  0.00  0.00    -0.129 NA
ENDROOT
BRANCH   8  11
ATOM     11  C   UNL     1       0.277   1.088   2.988  0.00  0.00    +0.021 A 
ATOM     12  C   UNL     1       0.202   1.338   4.360  0.00  0.00    +0.013 A 
ATOM     13  C   UNL     1       0.230   2.636   4.824  0.00  0.00    +0.022 A 
ATOM     14  C   UNL     1       0.334   3.692   3.934  0.00  0.00    +0.059 A 
ATOM     15  C   UNL     1       0.409   3.451   2.571  0.00  0.00    +0.060 A 
ATOM     16  C   UNL     1       0.386   2.155   2.095  0.00  0.00    +0.033 A 
ATOM     17 CL   UNL     1       0.538   4.780   1.462  0.00  0.00    -0.082 Cl
ATOM     18 CL   UNL     1       0.368   5.323   4.527  0.00  0.00    -0.082 Cl
ENDBRANCH   8  11
BRANCH   3  19
ATOM     19  N   UNL     1      -3.399  -0.474  -0.773  0.00  0.00    -0.357 N 
ATOM     20  H   UNL     1      -3.629   0.460  -0.653  0.00  0.00    +0.142 HD
ATOM     21  H   UNL     1      -3.897  -1.019  -1.402  0.00  0.00    +0.142 HD
ENDBRANCH   3  19
TORSDOF 2
