REMARK  Name = ZINC39655795
REMARK  10 active torsions:
REMARK  status: ('A' for Active; 'I' for Inactive)
REMARK    1  A    between atoms: C_1  and  C_2
REMARK    2  A    between atoms: C_8  and  C_11
REMARK    3  A    between atoms: C_11  and  C_12
REMARK    4  A    between atoms: C_12  and  N_13
REMARK    5  A    between atoms: C_14  and  C_16
REMARK    6  A    between atoms: C_27  and  C_29
REMARK    7  A    between atoms: C_31  and  O_37
REMARK    8  A    between atoms: C_33  and  O_35
REMARK    9  A    between atoms: O_35  and  C_36
REMARK   10  A    between atoms: O_37  and  C_38
REMARK                            x       y       z     vdW  Elec       q    Type
REMARK                         _______ _______ _______ _____ _____    ______ ____
ROOT
ATOM      1  C   UNL     1       4.079  -0.091  -7.933  0.00  0.00    +0.100 C 
ATOM      2  C   UNL     1       4.509   0.829  -9.097  0.00  0.00    +0.121 C 
ATOM      3  N   UNL     1       5.456   0.010  -9.890  0.00  0.00    -0.296 N 
ATOM      4  C   UNL     1       4.867  -1.350  -9.879  0.00  0.00    +0.115 C 
ATOM      5  C   UNL     1       4.315  -1.520  -8.450  0.00  0.00    -0.004 C 
ATOM      6  C   UNL     1       3.001  -2.295  -8.482  0.00  0.00    -0.010 C 
ATOM      7  C   UNL     1       3.270  -3.730  -8.943  0.00  0.00    -0.082 C 
ATOM      8  N   UNL     1       4.217  -4.372  -8.024  0.00  0.00    +0.379 N 
ATOM      9  C   UNL     1       5.509  -3.676  -8.070  0.00  0.00    -0.082 C 
ATOM     10  C   UNL     1       5.334  -2.238  -7.571  0.00  0.00    -0.010 C 
ATOM     11  C   UNL     1       6.596   0.412 -10.487  0.00  0.00    +0.247 C 
ATOM     12  O   UNL     1       7.016   1.537 -10.299  0.00  0.00    -0.270 OA
ATOM     13  H   UNL     1       3.850  -4.335  -7.085  0.00  0.00    -0.086 HD
ATOM     14  H   UNL     1       4.346  -5.335  -8.295  0.00  0.00    -0.086 HD
ENDROOT
BRANCH  11  15
ATOM     15  C   UNL     1       7.335  -0.515 -11.370  0.00  0.00    +0.044 A 
ATOM     16  C   UNL     1       6.683  -1.611 -11.936  0.00  0.00    +0.059 A 
ATOM     17  C   UNL     1       7.379  -2.477 -12.763  0.00  0.00    +0.124 A 
ATOM     18  C   UNL     1       8.723  -2.257 -13.028  0.00  0.00    +0.091 A 
ATOM     19  C   UNL     1       9.375  -1.168 -12.468  0.00  0.00    +0.124 A 
ATOM     20  C   UNL     1       8.685  -0.294 -11.644  0.00  0.00    +0.059 A 
BRANCH  19  21
ATOM     21  O   UNL     1      10.691  -0.957 -12.731  0.00  0.00    -0.495 OA
ATOM     22  C   UNL     1      11.339  -1.894 -13.593  0.00  0.00    +0.277 C 
ENDBRANCH  19  21
BRANCH  17  23
ATOM     23  O   UNL     1       6.745  -3.545 -13.315  0.00  0.00    -0.495 OA
ATOM     24  C   UNL     1       7.523  -4.397 -14.158  0.00  0.00    +0.277 C 
ENDBRANCH  17  23
ENDBRANCH  11  15
BRANCH   1  26
ATOM     25  N   UNL     1       2.176  -0.067  -6.352  0.00  0.00    -0.315 N 
ATOM     26  C   UNL     1       2.621   0.116  -7.611  0.00  0.00    +0.218 C 
ATOM     27  O   UNL     1       1.848   0.449  -8.485  0.00  0.00    -0.275 OA
ATOM     28  H   UNL     1       2.794  -0.333  -5.653  0.00  0.00    +0.149 HD
BRANCH  25  29
ATOM     29  C   UNL     1       0.759   0.134  -6.039  0.00  0.00    +0.109 C 
BRANCH  29  30
ATOM     30  C   UNL     1       0.521  -0.137  -4.552  0.00  0.00    +0.056 C 
BRANCH  30  38
ATOM     31  C   UNL     1      -3.306  -4.328  -5.331  0.00  0.00    +0.044 C 
ATOM     32  C   UNL     1      -3.254  -2.900  -4.850  0.00  0.00    -0.050 A 
ATOM     33  C   UNL     1      -4.419  -2.271  -4.434  0.00  0.00    +0.005 A 
ATOM     34  C   UNL     1      -4.393  -0.966  -3.992  0.00  0.00    +0.026 A 
ATOM     35  C   UNL     1      -3.189  -0.271  -3.960  0.00  0.00    +0.047 A 
ATOM     36  N   UNL     1      -2.841   1.007  -3.583  0.00  0.00    -0.360 N 
ATOM     37  C   UNL     1      -1.496   1.192  -3.751  0.00  0.00    +0.087 A 
ATOM     38  C   UNL     1      -0.936   0.070  -4.231  0.00  0.00    -0.021 A 
ATOM     39  C   UNL     1      -2.011  -0.914  -4.383  0.00  0.00    +0.003 A 
ATOM     40  C   UNL     1      -2.059  -2.238  -4.822  0.00  0.00    +0.013 A 
ATOM     41  H   UNL     1      -3.459   1.676  -3.248  0.00  0.00    +0.165 HD
ENDBRANCH  30  38
ENDBRANCH  29  30
ENDBRANCH  25  29
ENDBRANCH   1  26
TORSDOF 7
