REMARK  Name = ZINC39663286
REMARK  5 active torsions:
REMARK  status: ('A' for Active; 'I' for Inactive)
REMARK    1  A    between atoms: C_1  and  O_2
REMARK    2  A    between atoms: O_2  and  C_3
REMARK    3  A    between atoms: C_6  and  C_10
REMARK    4  A    between atoms: C_14  and  C_23
REMARK    5  A    between atoms: N_25  and  C_26
REMARK                            x       y       z     vdW  Elec       q    Type
REMARK                         _______ _______ _______ _____ _____    ______ ____
ROOT
ATOM      1  C   UNL     1       2.492  -2.502  -4.373  0.00  0.00    +0.247 C 
ATOM      2  O   UNL     1       1.963  -1.903  -3.457  0.00  0.00    -0.270 OA
ATOM      3  N   UNL     1       3.782  -2.880  -4.276  0.00  0.00    -0.296 N 
ATOM      4  C   UNL     1       4.687  -2.731  -3.112  0.00  0.00    +0.121 C 
ATOM      5  C   UNL     1       5.505  -4.041  -3.083  0.00  0.00    +0.100 C 
ATOM      6  C   UNL     1       5.456  -4.567  -4.527  0.00  0.00    -0.004 C 
ATOM      7  C   UNL     1       4.614  -3.546  -5.306  0.00  0.00    +0.115 C 
ATOM      8  C   UNL     1       4.786  -5.936  -4.569  0.00  0.00    -0.010 C 
ATOM      9  C   UNL     1       4.800  -6.463  -6.007  0.00  0.00    -0.082 C 
ATOM     10  N   UNL     1       6.186  -6.559  -6.481  0.00  0.00    +0.379 N 
ATOM     11  C   UNL     1       6.794  -5.224  -6.525  0.00  0.00    -0.082 C 
ATOM     12  C   UNL     1       6.864  -4.645  -5.109  0.00  0.00    -0.010 C 
ATOM     13  H   UNL     1       6.714  -7.147  -5.854  0.00  0.00    -0.086 HD
ATOM     14  H   UNL     1       6.197  -6.963  -7.405  0.00  0.00    -0.086 HD
ENDROOT
BRANCH   1  18
ATOM     15  C   UNL     1       0.274  -3.401  -7.883  0.00  0.00    +0.157 A 
ATOM     16  C   UNL     1       1.631  -3.109  -7.976  0.00  0.00    +0.085 A 
ATOM     17  C   UNL     1       2.353  -2.817  -6.839  0.00  0.00    +0.036 A 
ATOM     18  C   UNL     1       1.721  -2.814  -5.593  0.00  0.00    +0.040 A 
ATOM     19  C   UNL     1       0.358  -3.107  -5.504  0.00  0.00    +0.036 A 
ATOM     20  C   UNL     1      -0.359  -3.393  -6.646  0.00  0.00    +0.085 A 
ATOM     21 CL   UNL     1      -2.054  -3.751  -6.537  0.00  0.00    -0.080 Cl
ATOM     22 CL   UNL     1       2.415  -3.114  -9.524  0.00  0.00    -0.080 Cl
BRANCH  15  24
ATOM     23  C   UNL     1      -1.043  -2.589  -9.687  0.00  0.00    +0.277 C 
ATOM     24  O   UNL     1      -0.434  -3.687  -9.005  0.00  0.00    -0.492 OA
ENDBRANCH  15  24
ENDBRANCH   1  18
BRANCH   5  25
ATOM     25  C   UNL     1       4.874  -5.033  -2.140  0.00  0.00    +0.218 C 
ATOM     26  O   UNL     1       3.667  -5.079  -2.026  0.00  0.00    -0.275 OA
ATOM     27  N   UNL     1       5.651  -5.869  -1.423  0.00  0.00    -0.314 N 
ATOM     28  H   UNL     1       6.616  -5.833  -1.513  0.00  0.00    +0.149 HD
BRANCH  27  29
ATOM     29  C   UNL     1       5.037  -6.833  -0.506  0.00  0.00    +0.059 C 
ATOM     30  C   UNL     1       4.778  -6.163   0.845  0.00  0.00    -0.056 C 
ATOM     31  N   UNL     1       5.513  -6.862   1.902  0.00  0.00    +0.381 N 
ATOM     32  C   UNL     1       6.956  -6.801   1.652  0.00  0.00    -0.078 C 
ATOM     33  C   UNL     1       7.288  -7.493   0.328  0.00  0.00    -0.014 C 
ATOM     34  C   UNL     1       5.986  -8.021  -0.298  0.00  0.00    +0.004 C 
ATOM     35  C   UNL     1       5.334  -8.993   0.694  0.00  0.00    -0.014 C 
ATOM     36  C   UNL     1       5.066  -8.252   2.008  0.00  0.00    -0.078 C 
ATOM     37  H   UNL     1       5.329  -6.399   2.779  0.00  0.00    -0.082 HD
ENDBRANCH  27  29
ENDBRANCH   5  25
TORSDOF 4
