REMARK  Name = ZINC39977349
REMARK  6 active torsions:
REMARK  status: ('A' for Active; 'I' for Inactive)
REMARK    1  A    between atoms: C_1  and  C_2
REMARK    2  A    between atoms: C_2  and  C_3
REMARK    3  A    between atoms: C_2  and  C_4
REMARK    4  A    between atoms: C_4  and  C_5
REMARK    5  A    between atoms: C_7  and  C_11
REMARK    6  A    between atoms: C_19  and  C_21
REMARK                            x       y       z     vdW  Elec       q    Type
REMARK                         _______ _______ _______ _____ _____    ______ ____
ROOT
ATOM      1  C   UNL     1      -1.046  -0.750   5.601  0.00  0.00    +0.206 C 
ATOM      2  N   UNL     1       0.421  -0.747   5.808  0.00  0.00    -0.231 NA
ATOM      3  N   UNL     1       0.662  -0.065   7.091  0.00  0.00    -0.224 NA
ATOM      4  C   UNL     1      -0.614  -0.252   7.811  0.00  0.00    +0.240 C 
ATOM      5  N   UNL     1      -1.610   0.031   6.725  0.00  0.00    -0.206 N 
ATOM      6  N   UNL     1      -2.591   0.926   7.094  0.00  0.00    -0.173 NA
ATOM      7  C   UNL     1      -2.492   1.693   8.141  0.00  0.00    +0.125 C 
ATOM      8  S   UNL     1      -0.956   1.143   8.947  0.00  0.00    -0.063 S 
ATOM      9  H   UNL     1       0.893  -0.273   5.053  0.00  0.00    +0.143 HD
ATOM     10  H   UNL     1       1.425  -0.495   7.592  0.00  0.00    +0.144 HD
ENDROOT
BRANCH   7  11
ATOM     11  C   UNL     1      -3.416   2.759   8.581  0.00  0.00    +0.012 A 
ATOM     12  C   UNL     1      -3.143   3.490   9.738  0.00  0.00    +0.014 A 
ATOM     13  C   UNL     1      -4.007   4.483  10.146  0.00  0.00    +0.050 A 
ATOM     14  C   UNL     1      -5.151   4.761   9.409  0.00  0.00    +0.162 A 
ATOM     15  C   UNL     1      -5.429   4.038   8.254  0.00  0.00    +0.163 A 
ATOM     16  C   UNL     1      -4.562   3.042   7.837  0.00  0.00    +0.060 A 
ATOM     17  O   UNL     1      -6.542   4.303   7.516  0.00  0.00    -0.485 OA
ATOM     18  C   UNL     1      -7.576   5.057   8.159  0.00  0.00    +0.270 C 
ATOM     19  C   UNL     1      -6.927   6.250   8.874  0.00  0.00    +0.270 C 
ATOM     20  O   UNL     1      -5.993   5.744   9.833  0.00  0.00    -0.485 OA
ENDBRANCH   7  11
BRANCH   1  23
ATOM     21  C   UNL     1      -0.030  -0.130   2.478  0.00  0.00    +0.062 C 
ATOM     22  C   UNL     1      -0.901  -0.924   3.103  0.00  0.00    +0.029 C 
ATOM     23  C   UNL     1      -1.393  -0.084   4.268  0.00  0.00    +0.190 C 
ATOM     24  N   UNL     1      -0.650   1.178   4.103  0.00  0.00    -0.177 NA
ATOM     25  N   UNL     1       0.071   1.062   3.109  0.00  0.00    -0.159 NA
BRANCH  21  26
ATOM     26  C   UNL     1       0.742  -0.511   1.242  0.00  0.00    +0.060 C 
BRANCH  26  28
ATOM     27  C   UNL     1      -0.019   1.526   0.010  0.00  0.00    +0.007 C 
ATOM     28  C   UNL     1       0.002  -0.004   0.002  0.00  0.00    -0.011 C 
ATOM     29  C   UNL     1       0.718  -0.497  -1.257  0.00  0.00    +0.007 C 
ENDBRANCH  26  28
ENDBRANCH  21  26
ENDBRANCH   1  23
TORSDOF 4
