REMARK  Name = ZINC32397696
REMARK  6 active torsions:
REMARK  status: ('A' for Active; 'I' for Inactive)
REMARK    1  A    between atoms: C_4  and  N_7
REMARK    2  A    between atoms: C_8  and  C_28
REMARK    3  A    between atoms: C_11  and  C_13
REMARK    4  A    between atoms: N_15  and  C_16
REMARK    5  A    between atoms: C_16  and  C_18
REMARK    6  A    between atoms: C_16  and  C_23
REMARK                            x       y       z     vdW  Elec       q    Type
REMARK                         _______ _______ _______ _____ _____    ______ ____
ROOT
ATOM      1  N   UNL     1       1.126   8.283   3.800  0.00  0.00    -0.212 N 
ATOM      2  C   UNL     1       1.599   7.668   5.050  0.00  0.00    +0.189 C 
ATOM      3  C   UNL     1       2.112   6.285   4.605  0.00  0.00    +0.096 C 
ATOM      4  C   UNL     1       1.868   6.267   3.113  0.00  0.00    +0.123 C 
ATOM      5  N   UNL     1       1.334   7.389   2.751  0.00  0.00    -0.178 NA
ENDROOT
BRANCH   1   9
ATOM      6  C   UNL     1      -0.547  12.079   3.449  0.00  0.00    +0.000 A 
ATOM      7  C   UNL     1      -0.398  11.284   2.327  0.00  0.00    +0.002 A 
ATOM      8  C   UNL     1       0.156  10.024   2.439  0.00  0.00    +0.025 A 
ATOM      9  C   UNL     1       0.565   9.556   3.682  0.00  0.00    +0.052 A 
ATOM     10  C   UNL     1       0.410  10.355   4.808  0.00  0.00    +0.025 A 
ATOM     11  C   UNL     1      -0.140  11.616   4.687  0.00  0.00    +0.002 A 
ENDBRANCH   1   9
BRANCH   2  12
ATOM     12  C   UNL     1       0.466   7.522   6.034  0.00  0.00    +0.233 C 
ATOM     13  O   UNL     1      -0.681   7.644   5.660  0.00  0.00    -0.274 OA
ATOM     14  N   UNL     1       0.728   7.255   7.328  0.00  0.00    -0.328 N 
ATOM     15  H   UNL     1      -0.099   7.149   8.046  0.00  0.00    +0.145 HD
ATOM     16  H   UNL     1       1.769   7.144   7.668  0.00  0.00    +0.145 HD
ENDBRANCH   2  12
BRANCH   4  17
ATOM     17  C   UNL     1       2.190   5.156   2.217  0.00  0.00    +0.260 C 
ATOM     18  O   UNL     1       2.697   4.143   2.662  0.00  0.00    -0.269 OA
ATOM     19  N   UNL     1       1.925   5.255   0.900  0.00  0.00    -0.303 N 
ATOM     20  H   UNL     1       1.467   6.170   0.498  0.00  0.00    +0.150 HD
BRANCH  19  21
ATOM     21  C   UNL     1       2.248   4.142   0.003  0.00  0.00    +0.113 C 
BRANCH  21  22
ATOM     22  C   UNL     1       1.115   3.148   0.008  0.00  0.00    +0.010 A 
ATOM     23  C   UNL     1       1.169   1.793   0.001  0.00  0.00    +0.013 A 
ATOM     24  C   UNL     1      -0.013   1.076   0.008  0.00  0.00    +0.008 A 
ATOM     25  C   UNL     1      -1.190   1.748   0.017  0.00  0.00    +0.045 A 
ATOM     26  S   UNL     1      -0.644   3.448   0.027  0.00  0.00    -0.100 S 
ENDBRANCH  21  22
BRANCH  21  27
ATOM     27  C   UNL     1       2.451   4.675  -1.417  0.00  0.00    +0.014 C 
ATOM     28  C   UNL     1       2.861   3.524  -2.360  0.00  0.00    +0.006 C 
ATOM     29  C   UNL     1       3.888   4.169  -3.323  0.00  0.00    +0.000 C 
ATOM     30  C   UNL     1       4.676   5.124  -2.392  0.00  0.00    +0.000 C 
ATOM     31  C   UNL     1       3.605   5.692  -1.438  0.00  0.00    +0.006 C 
ENDBRANCH  21  27
ENDBRANCH  19  21
ENDBRANCH   4  17
TORSDOF 6
