REMARK  Name = ZINC24275349
REMARK  8 active torsions:
REMARK  status: ('A' for Active; 'I' for Inactive)
REMARK    1  A    between atoms: C_3  and  C_6
REMARK    2  A    between atoms: C_8  and  C_11
REMARK    3  A    between atoms: C_11  and  C_12
REMARK    4  A    between atoms: C_12  and  C_13
REMARK    5  A    between atoms: N_15  and  C_16
REMARK    6  A    between atoms: C_19  and  N_22
REMARK    7  A    between atoms: N_22  and  S_23
REMARK    8  A    between atoms: S_23  and  C_26
REMARK                            x       y       z     vdW  Elec       q    Type
REMARK                         _______ _______ _______ _____ _____    ______ ____
ROOT
ATOM      1  C   UNL     1      -2.561   1.321  -0.215  0.00  0.00    +0.033 A 
ATOM      2  C   UNL     1      -2.378  -0.046  -0.047  0.00  0.00    +0.025 A 
ATOM      3  C   UNL     1      -3.469  -0.868   0.156  0.00  0.00    +0.026 A 
ATOM      4  C   UNL     1      -4.749  -0.331   0.182  0.00  0.00    +0.048 A 
ATOM      5  C   UNL     1      -4.932   1.035   0.008  0.00  0.00    +0.026 A 
ATOM      6  C   UNL     1      -3.841   1.858  -0.190  0.00  0.00    +0.025 A 
ENDROOT
BRANCH   1   9
ATOM      7  C   UNL     1      -1.449   3.402   0.096  0.00  0.00    +0.218 C 
ATOM      8  O   UNL     1      -2.434   3.832   0.658  0.00  0.00    -0.275 OA
ATOM      9  N   UNL     1      -1.454   2.156  -0.416  0.00  0.00    -0.285 N 
ATOM     10  H   UNL     1      -0.590   1.794  -0.993  0.00  0.00    +0.155 HD
BRANCH   7  11
ATOM     11  C   UNL     1      -0.216   4.261  -0.024  0.00  0.00    +0.105 C 
BRANCH  11  12
ATOM     12  C   UNL     1      -0.471   5.615   0.641  0.00  0.00    +0.108 C 
BRANCH  12  15
ATOM     13  C   UNL     1       2.239   7.846  -0.138  0.00  0.00    +0.209 A 
ATOM     14  N   UNL     1       1.042   7.299  -0.456  0.00  0.00    -0.191 NA
ATOM     15  C   UNL     1       0.762   6.474   0.521  0.00  0.00    +0.228 A 
ATOM     16  O   UNL     1       1.771   6.539   1.396  0.00  0.00    -0.338 OA
ATOM     17  N   UNL     1       2.610   7.323   1.005  0.00  0.00    -0.056 NA
BRANCH  13  20
ATOM     18  C   UNL     1       4.701  10.344  -1.558  0.00  0.00    +0.008 A 
ATOM     19  C   UNL     1       4.192   9.434  -0.659  0.00  0.00    +0.019 A 
ATOM     20  C   UNL     1       2.987   8.843  -0.931  0.00  0.00    +0.060 A 
ATOM     21  S   UNL     1       2.550   9.599  -2.488  0.00  0.00    -0.093 S 
ATOM     22  C   UNL     1       3.990  10.636  -2.678  0.00  0.00    +0.046 A 
ENDBRANCH  13  20
ENDBRANCH  12  15
ENDBRANCH  11  12
ENDBRANCH   7  11
ENDBRANCH   1   9
BRANCH   4  23
ATOM     23  N   UNL     1      -5.854  -1.165   0.382  0.00  0.00    -0.216 N 
ATOM     24  H   UNL     1      -6.644  -0.871   1.089  0.00  0.00    +0.174 HD
BRANCH  23  25
ATOM     25  S   UNL     1      -5.973  -2.594  -0.445  0.00  0.00    +0.072 S 
ATOM     26  O   UNL     1      -4.739  -3.273  -0.262  0.00  0.00    -0.150 OA
ATOM     27  O   UNL     1      -7.221  -3.170  -0.083  0.00  0.00    -0.150 OA
BRANCH  25  28
ATOM     28  C   UNL     1      -6.080  -2.197  -2.158  0.00  0.00    +0.111 A 
ATOM     29  C   UNL     1      -7.306  -1.892  -2.721  0.00  0.00    +0.032 A 
ATOM     30  C   UNL     1      -7.392  -1.575  -4.064  0.00  0.00    +0.043 A 
ATOM     31  C   UNL     1      -6.252  -1.573  -4.848  0.00  0.00    +0.159 A 
ATOM     32  C   UNL     1      -5.024  -1.885  -4.285  0.00  0.00    +0.160 A 
ATOM     33  C   UNL     1      -4.940  -2.196  -2.939  0.00  0.00    +0.070 A 
ATOM     34  F   UNL     1      -3.910  -1.883  -5.050  0.00  0.00    -0.202 F 
ATOM     35  F   UNL     1      -6.336  -1.268  -6.162  0.00  0.00    -0.202 F 
ENDBRANCH  25  28
ENDBRANCH  23  25
ENDBRANCH   4  23
TORSDOF 8
