REMARK  Name = ZINC07523966
REMARK  9 active torsions:
REMARK  status: ('A' for Active; 'I' for Inactive)
REMARK    1  A    between atoms: C_3  and  C_6
REMARK    2  A    between atoms: C_6  and  O_7
REMARK    3  A    between atoms: O_7  and  C_8
REMARK    4  A    between atoms: C_11  and  C_14
REMARK    5  A    between atoms: C_14  and  N_44
REMARK    6  A    between atoms: C_15  and  C_16
REMARK    7  A    between atoms: C_15  and  N_44
REMARK    8  A    between atoms: C_16  and  N_17
REMARK    9  A    between atoms: C_18  and  C_20
REMARK                            x       y       z     vdW  Elec       q    Type
REMARK                         _______ _______ _______ _____ _____    ______ ____
ROOT
ATOM      1  N   UNL     1      -9.185   0.117   2.191  0.00  0.00    +0.383 N 
ATOM      2  H   UNL     1      -9.143   0.655   1.317  0.00  0.00    -0.085 HD
ATOM      3  H   UNL     1      -8.931   0.724   2.979  0.00  0.00    -0.085 HD
ENDROOT
BRANCH   1   4
ATOM      4  C   UNL     1      -8.233  -1.008   2.117  0.00  0.00    -0.047 C 
BRANCH   4   8
ATOM      5  C   UNL     1      -4.287   0.531   1.549  0.00  0.00    +0.121 A 
ATOM      6  C   UNL     1      -5.083   0.237   0.451  0.00  0.00    +0.046 A 
ATOM      7  C   UNL     1      -6.356  -0.267   0.637  0.00  0.00    +0.005 A 
ATOM      8  C   UNL     1      -6.842  -0.465   1.916  0.00  0.00    -0.064 A 
ATOM      9  C   UNL     1      -6.053  -0.167   3.012  0.00  0.00    +0.005 A 
ATOM     10  C   UNL     1      -4.777   0.331   2.831  0.00  0.00    +0.046 A 
BRANCH   5  11
ATOM     11  O   UNL     1      -3.032   1.021   1.368  0.00  0.00    -0.487 OA
BRANCH  11  12
ATOM     12  C   UNL     1      -2.594   1.202   0.020  0.00  0.00    +0.271 C 
BRANCH  12  15
ATOM     13  C   UNL     1       1.169   1.793   0.001  0.00  0.00    +0.008 A 
ATOM     14  C   UNL     1      -0.013   1.076   0.008  0.00  0.00    +0.014 A 
ATOM     15  C   UNL     1      -1.190   1.748   0.017  0.00  0.00    +0.027 A 
ATOM     16  S   UNL     1      -0.644   3.448   0.027  0.00  0.00    -0.098 S 
ATOM     17  C   UNL     1       1.115   3.148   0.008  0.00  0.00    +0.045 A 
ENDBRANCH  12  15
ENDBRANCH  11  12
ENDBRANCH   5  11
ENDBRANCH   4   8
ENDBRANCH   1   4
BRANCH   1  18
ATOM     18  C   UNL     1     -10.557  -0.386   2.387  0.00  0.00    -0.063 C 
BRANCH  18  19
ATOM     19  C   UNL     1     -11.520   0.801   2.460  0.00  0.00    +0.085 C 
BRANCH  19  20
ATOM     20  N   UNL     1     -12.887   0.310   2.655  0.00  0.00    -0.312 N 
ATOM     21  C   UNL     1     -13.909   1.183   2.749  0.00  0.00    +0.269 C 
ATOM     22  O   UNL     1     -13.698   2.377   2.672  0.00  0.00    -0.268 OA
ATOM     23  H   UNL     1     -13.056  -0.643   2.717  0.00  0.00    +0.149 HD
BRANCH  21  24
ATOM     24  C   UNL     1     -15.291   0.686   2.946  0.00  0.00    +0.209 A 
ATOM     25  C   UNL     1     -16.545   1.463   3.074  0.00  0.00    +0.192 A 
ATOM     26  N   UNL     1     -17.449   0.522   3.228  0.00  0.00    -0.033 NA
ATOM     27  O   UNL     1     -16.911  -0.560   3.205  0.00  0.00    -0.240 OA
ATOM     28  N   UNL     1     -15.713  -0.555   3.046  0.00  0.00    -0.042 NA
ATOM     29  N   UNL     1     -16.722   2.839   3.038  0.00  0.00    -0.339 N 
ATOM     30  H   UNL     1     -15.957   3.423   2.916  0.00  0.00    +0.144 HD
ATOM     31  H   UNL     1     -17.610   3.217   3.135  0.00  0.00    +0.144 HD
ENDBRANCH  21  24
ENDBRANCH  19  20
ENDBRANCH  18  19
ENDBRANCH   1  18
TORSDOF 9
