REMARK  Name = ZINC66115363
REMARK  9 active torsions:
REMARK  status: ('A' for Active; 'I' for Inactive)
REMARK    1  A    between atoms: C_1  and  C_2
REMARK    2  A    between atoms: C_2  and  C_3
REMARK    3  A    between atoms: C_2  and  O_4
REMARK    4  A    between atoms: O_4  and  C_5
REMARK    5  A    between atoms: C_9  and  C_11
REMARK    6  A    between atoms: C_11  and  N_12
REMARK    7  A    between atoms: C_18  and  C_20
REMARK    8  A    between atoms: C_20  and  C_21
REMARK    9  A    between atoms: N_23  and  N_24
REMARK                            x       y       z     vdW  Elec       q    Type
REMARK                         _______ _______ _______ _____ _____    ______ ____
ROOT
ATOM      1  N   UNL     1      -4.831  -4.643  -0.612  0.00  0.00    +0.391 N 
ATOM      2  C   UNL     1      -4.923  -3.860   0.630  0.00  0.00    -0.058 C 
ATOM      3  C   UNL     1      -4.892  -4.820   1.821  0.00  0.00    +0.085 C 
ATOM      4  N   UNL     1      -5.882  -5.877   1.633  0.00  0.00    -0.318 N 
ATOM      5  C   UNL     1      -6.425  -6.153   0.442  0.00  0.00    +0.200 C 
ATOM      6  O   UNL     1      -7.224  -7.062   0.363  0.00  0.00    -0.278 OA
ATOM      7  C   UNL     1      -6.085  -5.382  -0.802  0.00  0.00    +0.028 C 
ATOM      8  H   UNL     1      -6.157  -6.400   2.402  0.00  0.00    +0.149 HD
ATOM      9  H   UNL     1      -4.062  -5.293  -0.548  0.00  0.00    -0.080 HD
ENDROOT
BRANCH   1  10
ATOM     10  C   UNL     1      -4.616  -3.739  -1.749  0.00  0.00    -0.042 C 
BRANCH  10  15
ATOM     11  C   UNL     1      -1.881  -1.297  -0.833  0.00  0.00    +0.121 A 
ATOM     12  C   UNL     1      -0.770  -1.903  -1.403  0.00  0.00    +0.045 A 
ATOM     13  C   UNL     1      -0.909  -3.098  -2.081  0.00  0.00    +0.004 A 
ATOM     14  C   UNL     1      -2.153  -3.691  -2.192  0.00  0.00    +0.002 A 
ATOM     15  C   UNL     1      -3.261  -3.090  -1.626  0.00  0.00    -0.060 A 
ATOM     16  C   UNL     1      -3.127  -1.897  -0.942  0.00  0.00    +0.047 A 
BRANCH  11  17
ATOM     17  O   UNL     1      -1.747  -0.121  -0.165  0.00  0.00    -0.489 OA
BRANCH  17  19
ATOM     18  C   UNL     1      -0.609   2.002   0.024  0.00  0.00    +0.051 C 
ATOM     19  C   UNL     1      -0.458   0.494  -0.187  0.00  0.00    +0.167 C 
ATOM     20  C   UNL     1       0.407  -0.093   0.930  0.00  0.00    +0.051 C 
ENDBRANCH  17  19
ENDBRANCH  11  17
ENDBRANCH  10  15
ENDBRANCH   1  10
BRANCH   7  21
ATOM     21  C   UNL     1      -5.930  -6.353  -1.974  0.00  0.00    +0.091 C 
BRANCH  21  22
ATOM     22  C   UNL     1      -4.864  -7.368  -1.647  0.00  0.00    +0.225 C 
ATOM     23  O   UNL     1      -4.359  -7.384  -0.545  0.00  0.00    -0.275 OA
ATOM     24  N   UNL     1      -4.472  -8.258  -2.581  0.00  0.00    -0.254 N 
ATOM     25  H   UNL     1      -4.876  -8.245  -3.463  0.00  0.00    +0.169 HD
BRANCH  24  26
ATOM     26  N   UNL     1      -3.506  -9.177  -2.285  0.00  0.00    -0.254 NA
ATOM     27  H   UNL     1      -3.763  -9.723  -1.475  0.00  0.00    +0.140 HD
ATOM     28  H   UNL     1      -3.319  -9.773  -3.078  0.00  0.00    +0.140 HD
ENDBRANCH  24  26
ENDBRANCH  21  22
ENDBRANCH   7  21
TORSDOF 7
