REMARK  Name = ZINC12925263
REMARK  13 active torsions:
REMARK  status: ('A' for Active; 'I' for Inactive)
REMARK    1  A    between atoms: C_1  and  C_2
REMARK    2  A    between atoms: C_5  and  C_8
REMARK    3  A    between atoms: N_15  and  C_18
REMARK    4  A    between atoms: C_18  and  C_19
REMARK    5  A    between atoms: C_19  and  C_20
REMARK    6  A    between atoms: N_22  and  C_23
REMARK    7  A    between atoms: C_23  and  C_24
REMARK    8  A    between atoms: C_24  and  C_26
REMARK    9  A    between atoms: C_24  and  N_65
REMARK   10  A    between atoms: C_29  and  O_32
REMARK   11  A    between atoms: O_32  and  C_33
REMARK   12  A    between atoms: C_34  and  N_65
REMARK   13  A    between atoms: C_35  and  N_65
REMARK                            x       y       z     vdW  Elec       q    Type
REMARK                         _______ _______ _______ _____ _____    ______ ____
ROOT
ATOM      1  C   UNL     1       0.677   1.839   0.169  0.00  0.00    +0.117 C 
ENDROOT
BRANCH   1   2
ATOM      2  C   UNL     1      -0.284   1.998   1.318  0.00  0.00    +0.215 C 
ATOM      3  O   UNL     1      -1.380   2.483   1.130  0.00  0.00    -0.276 OA
ATOM      4  N   UNL     1       0.073   1.600   2.555  0.00  0.00    -0.316 N 
ATOM      5  H   UNL     1       0.949   1.212   2.706  0.00  0.00    +0.149 HD
BRANCH   4   6
ATOM      6  C   UNL     1      -0.861   1.755   3.673  0.00  0.00    +0.093 C 
BRANCH   6   7
ATOM      7  C   UNL     1      -0.278   1.090   4.921  0.00  0.00    -0.021 C 
BRANCH   7   8
ATOM      8  C   UNL     1      -1.211   1.302   6.086  0.00  0.00    -0.059 A 
ATOM      9  C   UNL     1      -2.381   0.571   6.174  0.00  0.00    +0.005 A 
ATOM     10  C   UNL     1      -3.235   0.758   7.244  0.00  0.00    +0.046 A 
ATOM     11  C   UNL     1      -2.924   1.690   8.223  0.00  0.00    +0.120 A 
ATOM     12  C   UNL     1      -1.752   2.427   8.129  0.00  0.00    +0.046 A 
ATOM     13  C   UNL     1      -0.898   2.231   7.061  0.00  0.00    +0.005 A 
BRANCH  11  14
ATOM     14  O   UNL     1      -3.766   1.881   9.273  0.00  0.00    -0.495 OA
ATOM     15  C   UNL     1      -4.954   1.088   9.304  0.00  0.00    +0.277 C 
ENDBRANCH  11  14
ENDBRANCH   7   8
BRANCH   7  18
ATOM     16  C   UNL     1      -1.101  -0.834   3.704  0.00  0.00    -0.096 C 
ATOM     17  C   UNL     1       1.253  -0.659   4.243  0.00  0.00    -0.096 C 
ATOM     18  N   UNL     1      -0.120  -0.363   4.704  0.00  0.00    +0.382 N 
ATOM     19  H   UNL     1      -0.287  -0.853   5.591  0.00  0.00    -0.082 HD
ENDBRANCH   7  18
ENDBRANCH   6   7
ENDBRANCH   4   6
ENDBRANCH   1   2
BRANCH   1  20
ATOM     20  C   UNL     1       0.030   2.365  -1.114  0.00  0.00    +0.135 C 
BRANCH  20  28
ATOM     21  C   UNL     1       2.042  -0.189  -4.959  0.00  0.00    +0.004 A 
ATOM     22  C   UNL     1       2.986  -0.097  -5.926  0.00  0.00    +0.056 A 
ATOM     23  S   UNL     1       3.697   1.515  -5.657  0.00  0.00    -0.076 S 
ATOM     24  C   UNL     1       2.720   2.023  -4.265  0.00  0.00    +0.116 A 
ATOM     25  C   UNL     1       1.866   0.931  -4.042  0.00  0.00    +0.080 A 
ATOM     26  C   UNL     1       0.949   1.073  -2.952  0.00  0.00    +0.263 A 
ATOM     27  O   UNL     1       0.167   0.179  -2.680  0.00  0.00    -0.267 OA
ATOM     28  N   UNL     1       0.964   2.210  -2.232  0.00  0.00    -0.298 N 
ATOM     29  C   UNL     1       1.825   3.219  -2.524  0.00  0.00    +0.203 A 
ATOM     30  N   UNL     1       2.676   3.116  -3.509  0.00  0.00    -0.230 NA
BRANCH  21  35
ATOM     31  C   UNL     1      -1.213  -4.914  -4.479  0.00  0.00    +0.044 C 
ATOM     32  C   UNL     1      -0.362  -3.677  -4.604  0.00  0.00    -0.050 A 
ATOM     33  C   UNL     1      -0.225  -3.057  -5.833  0.00  0.00    +0.004 A 
ATOM     34  C   UNL     1       0.554  -1.924  -5.954  0.00  0.00    +0.009 A 
ATOM     35  C   UNL     1       1.204  -1.405  -4.835  0.00  0.00    -0.017 A 
ATOM     36  C   UNL     1       1.067  -2.038  -3.601  0.00  0.00    +0.009 A 
ATOM     37  C   UNL     1       0.281  -3.167  -3.490  0.00  0.00    +0.004 A 
ENDBRANCH  21  35
ENDBRANCH  20  28
ENDBRANCH   1  20
TORSDOF 9
