REMARK  Name = ZINC23966928
REMARK  9 active torsions:
REMARK  status: ('A' for Active; 'I' for Inactive)
REMARK    1  A    between atoms: C_1  and  C_2
REMARK    2  A    between atoms: C_2  and  C_4
REMARK    3  A    between atoms: C_2  and  S_14
REMARK    4  A    between atoms: N_9  and  C_10
REMARK    5  A    between atoms: C_10  and  C_11
REMARK    6  A    between atoms: C_11  and  O_12
REMARK    7  A    between atoms: O_12  and  C_13
REMARK    8  A    between atoms: S_14  and  C_15
REMARK    9  A    between atoms: C_18  and  C_21
REMARK                            x       y       z     vdW  Elec       q    Type
REMARK                         _______ _______ _______ _____ _____    ______ ____
ROOT
ATOM      1  C   UNL     1       0.969  -2.690   1.399  0.00  0.00    +0.029 C 
ATOM      2  C   UNL     1       1.199  -2.169  -0.021  0.00  0.00    +0.137 C 
ENDROOT
BRANCH   2   3
ATOM      3  C   UNL     1       1.178  -0.662  -0.013  0.00  0.00    +0.233 C 
ATOM      4  O   UNL     1       2.220  -0.042  -0.019  0.00  0.00    -0.274 OA
ATOM      5  N   UNL     1       0.002  -0.004   0.002  0.00  0.00    -0.239 N 
ATOM      6  C   UNL     1      -0.016   1.344   0.009  0.00  0.00    +0.306 C 
ATOM      7  O   UNL     1       1.028   1.966   0.003  0.00  0.00    -0.252 OA
ATOM      8  N   UNL     1      -1.192   2.002   0.019  0.00  0.00    -0.297 N 
ATOM      9  H   UNL     1      -0.943  -0.567   0.008  0.00  0.00    +0.159 HD
ATOM     10  H   UNL     1      -2.138   1.439   0.020  0.00  0.00    +0.150 HD
BRANCH   8  11
ATOM     11  C   UNL     1      -1.212   3.466   0.027  0.00  0.00    +0.133 C 
BRANCH  11  12
ATOM     12  C   UNL     1      -2.662   3.957   0.036  0.00  0.00    +0.178 C 
BRANCH  12  13
ATOM     13  O   UNL     1      -3.289   3.563   1.258  0.00  0.00    -0.381 OA
ATOM     14  C   UNL     1      -4.654   3.974   1.369  0.00  0.00    +0.194 C 
ENDBRANCH  12  13
ENDBRANCH  11  12
ENDBRANCH   8  11
ENDBRANCH   2   3
BRANCH   2  15
ATOM     15  S   UNL     1       2.805  -2.747  -0.623  0.00  0.00    -0.074 S 
BRANCH  15  16
ATOM     16  C   UNL     1       2.506  -4.483  -0.673  0.00  0.00    +0.185 A 
ATOM     17  N   UNL     1       3.392  -5.447  -1.062  0.00  0.00    -0.201 NA
ATOM     18  H   UNL     1       0.440  -4.674   0.025  0.00  0.00    +0.191 HD
ATOM     19  C   UNL     1       2.720  -6.641  -0.936  0.00  0.00    +0.182 A 
ATOM     20  N   UNL     1       1.512  -6.360  -0.506  0.00  0.00    -0.152 NA
ATOM     21  N   UNL     1       1.388  -5.091  -0.343  0.00  0.00    -0.253 N 
BRANCH  19  22
ATOM     22  C   UNL     1       3.258  -7.986  -1.230  0.00  0.00    +0.021 A 
ATOM     23  C   UNL     1       4.564  -8.132  -1.700  0.00  0.00    +0.013 A 
ATOM     24  C   UNL     1       5.061  -9.390  -1.968  0.00  0.00    +0.021 A 
ATOM     25  C   UNL     1       4.264 -10.507  -1.781  0.00  0.00    +0.041 A 
ATOM     26  C   UNL     1       2.966 -10.369  -1.320  0.00  0.00    +0.021 A 
ATOM     27  C   UNL     1       2.459  -9.116  -1.044  0.00  0.00    +0.013 A 
ATOM     28 CL   UNL     1       4.895 -12.087  -2.126  0.00  0.00    -0.084 Cl
ENDBRANCH  19  22
ENDBRANCH  15  16
ENDBRANCH   2  15
TORSDOF 7
