REMARK  Name = ZINC38599162
REMARK  7 active torsions:
REMARK  status: ('A' for Active; 'I' for Inactive)
REMARK    1  A    between atoms: C_1  and  O_2
REMARK    2  A    between atoms: O_2  and  C_3
REMARK    3  A    between atoms: C_6  and  S_9
REMARK    4  A    between atoms: S_9  and  C_12
REMARK    5  A    between atoms: N_24  and  N_28
REMARK    6  A    between atoms: C_25  and  N_27
REMARK    7  A    between atoms: C_29  and  C_30
REMARK                            x       y       z     vdW  Elec       q    Type
REMARK                         _______ _______ _______ _____ _____    ______ ____
ROOT
ATOM      1  C   UNL     1       4.255  -3.052  -4.077  0.00  0.00    +0.224 C 
ATOM      2  C   UNL     1       4.535  -1.606  -3.727  0.00  0.00    +0.111 A 
ATOM      3  C   UNL     1       5.660  -1.190  -4.456  0.00  0.00    +0.166 A 
ATOM      4  N   UNL     1       6.107   0.054  -4.319  0.00  0.00    -0.227 NA
ATOM      5  C   UNL     1       5.488   0.901  -3.493  0.00  0.00    +0.091 A 
ATOM      6  C   UNL     1       5.944   2.222  -3.334  0.00  0.00    +0.030 A 
ATOM      7  C   UNL     1       5.292   3.064  -2.486  0.00  0.00    +0.002 A 
ATOM      8  C   UNL     1       4.177   2.637  -1.768  0.00  0.00    +0.002 A 
ATOM      9  C   UNL     1       3.707   1.365  -1.897  0.00  0.00    +0.030 A 
ATOM     10  C   UNL     1       4.353   0.468  -2.763  0.00  0.00    +0.090 A 
ATOM     11  N   UNL     1       3.915  -0.788  -2.911  0.00  0.00    -0.245 NA
ATOM     12  N   UNL     1       6.156  -2.210  -5.253  0.00  0.00    -0.186 N 
ATOM     13  C   UNL     1       5.348  -3.424  -5.090  0.00  0.00    +0.195 C 
ENDROOT
BRANCH   1  14
ATOM     14  S   UNL     1       2.612  -3.214  -4.829  0.00  0.00    +0.008 S 
ATOM     15  O   UNL     1       2.263  -4.586  -4.950  0.00  0.00    -0.169 OA
ATOM     16  O   UNL     1       2.493  -2.335  -5.939  0.00  0.00    -0.169 OA
BRANCH  14  20
ATOM     17  C   UNL     1      -0.253  -1.562  -1.735  0.00  0.00    +0.120 A 
ATOM     18  C   UNL     1       0.298  -0.721  -2.691  0.00  0.00    +0.047 A 
ATOM     19  C   UNL     1       1.172  -1.227  -3.633  0.00  0.00    +0.030 A 
ATOM     20  C   UNL     1       1.497  -2.571  -3.625  0.00  0.00    +0.089 A 
ATOM     21  C   UNL     1       0.948  -3.412  -2.674  0.00  0.00    +0.030 A 
ATOM     22  C   UNL     1       0.079  -2.909  -1.726  0.00  0.00    +0.047 A 
BRANCH  17  24
ATOM     23  C   UNL     1      -1.410   0.330  -0.877  0.00  0.00    +0.277 C 
ATOM     24  O   UNL     1      -1.113  -1.066  -0.807  0.00  0.00    -0.495 OA
ENDBRANCH  17  24
ENDBRANCH  14  20
ENDBRANCH   1  14
BRANCH  13  25
ATOM     25  N   UNL     1       6.174  -4.521  -4.567  0.00  0.00    -0.309 NA
ATOM     26  H   UNL     1       6.832  -4.841  -5.262  0.00  0.00    +0.120 HD
ATOM     27  H   UNL     1       6.648  -4.244  -3.721  0.00  0.00    +0.120 HD
ENDBRANCH  13  25
BRANCH  12  28
ATOM     28  N   UNL     1       7.182  -2.108  -6.028  0.00  0.00    -0.185 NA
ATOM     29  C   UNL     1       7.500  -3.096  -6.831  0.00  0.00    +0.136 C 
BRANCH  29  30
ATOM     30  C   UNL     1       8.672  -3.031  -7.590  0.00  0.00    +0.000 C 
ATOM     31  C   UNL     1       9.149  -3.986  -8.490  0.00  0.00    +0.004 A 
ATOM     32  C   UNL     1       8.650  -5.239  -8.903  0.00  0.00    +0.010 A 
ATOM     33  C   UNL     1       9.341  -5.972  -9.814  0.00  0.00    +0.001 A 
ATOM     34  C   UNL     1      10.543  -5.516 -10.359  0.00  0.00    +0.002 A 
ATOM     35  C   UNL     1      11.081  -4.322 -10.008  0.00  0.00    +0.026 A 
ATOM     36  C   UNL     1      10.416  -3.500  -9.061  0.00  0.00    +0.043 A 
ATOM     37  N   UNL     1      10.725  -2.320  -8.562  0.00  0.00    -0.380 N 
ATOM     38  C   UNL     1       9.685  -1.908  -7.614  0.00  0.00    +0.150 C 
ATOM     39  H   UNL     1      11.514  -1.804  -8.789  0.00  0.00    +0.160 HD
ENDBRANCH  29  30
ENDBRANCH  12  28
TORSDOF 6
