REMARK  Name = ZINC62564634
REMARK  6 active torsions:
REMARK  status: ('A' for Active; 'I' for Inactive)
REMARK    1  A    between atoms: C_1  and  C_2
REMARK    2  A    between atoms: C_2  and  C_3
REMARK    3  A    between atoms: C_2  and  C_4
REMARK    4  A    between atoms: C_7  and  C_10
REMARK    5  A    between atoms: N_14  and  C_24
REMARK    6  A    between atoms: C_17  and  N_23
REMARK                            x       y       z     vdW  Elec       q    Type
REMARK                         _______ _______ _______ _____ _____    ______ ____
ROOT
ATOM      1  C   UNL     1       2.797  -1.919   4.683  0.00  0.00    +0.289 C 
ATOM      2  C   UNL     1       3.361  -3.289   4.405  0.00  0.00    +0.265 C 
ATOM      3  O   UNL     1       4.485  -3.407   3.963  0.00  0.00    -0.271 OA
ATOM      4  N   UNL     1       2.610  -4.385   4.649  0.00  0.00    -0.268 N 
ATOM      5  C   UNL     1       1.328  -4.223   5.192  0.00  0.00    +0.083 A 
ATOM      6  C   UNL     1       0.412  -5.262   5.162  0.00  0.00    +0.050 A 
ATOM      7  C   UNL     1      -0.853  -5.083   5.706  0.00  0.00    +0.029 A 
ATOM      8  C   UNL     1      -1.198  -3.866   6.279  0.00  0.00    +0.065 A 
ATOM      9  C   UNL     1      -0.283  -2.827   6.309  0.00  0.00    +0.168 A 
ATOM     10  C   UNL     1       0.980  -3.002   5.766  0.00  0.00    +0.178 A 
ATOM     11  O   UNL     1       1.889  -1.989   5.785  0.00  0.00    -0.470 OA
ATOM     12  F   UNL     1      -0.622  -1.644   6.866  0.00  0.00    -0.202 F 
ATOM     13  C   UNL     1       3.128  -5.722   4.350  0.00  0.00    +0.138 C 
ENDROOT
BRANCH   1  17
ATOM     14  C   UNL     1       0.731  -0.503   1.223  0.00  0.00    -0.045 A 
ATOM     15  C   UNL     1       2.050  -0.148   1.434  0.00  0.00    +0.004 A 
ATOM     16  C   UNL     1       2.719  -0.606   2.554  0.00  0.00    +0.008 A 
ATOM     17  C   UNL     1       2.068  -1.419   3.463  0.00  0.00    +0.002 A 
ATOM     18  C   UNL     1       0.749  -1.773   3.252  0.00  0.00    +0.008 A 
ATOM     19  C   UNL     1       0.079  -1.312   2.135  0.00  0.00    +0.004 A 
BRANCH  14  21
ATOM     20  C   UNL     1      -0.019   1.526   0.010  0.00  0.00    +0.012 C 
ATOM     21  C   UNL     1       0.002  -0.004   0.002  0.00  0.00    +0.013 C 
ATOM     22  C   UNL     1       0.718  -0.497  -1.257  0.00  0.00    +0.012 C 
ENDBRANCH  14  21
ENDBRANCH   1  17
BRANCH   7  23
ATOM     23  N   UNL     1      -1.781  -6.130   5.677  0.00  0.00    -0.358 N 
ATOM     24  H   UNL     1      -1.541  -6.980   5.277  0.00  0.00    +0.142 HD
ATOM     25  H   UNL     1      -2.665  -6.005   6.057  0.00  0.00    +0.142 HD
ENDBRANCH   7  23
TORSDOF 3
