REMARK  Name = ZINC35264352
REMARK  4 active torsions:
REMARK  status: ('A' for Active; 'I' for Inactive)
REMARK    1  A    between atoms: C_11  and  C_14
REMARK    2  A    between atoms: C_14  and  C_15
REMARK    3  A    between atoms: N_17  and  C_18
REMARK    4  A    between atoms: C_20  and  N_25
REMARK                            x       y       z     vdW  Elec       q    Type
REMARK                         _______ _______ _______ _____ _____    ______ ____
ROOT
ATOM      1  C   UNL     1       5.673   1.134  -0.046  0.00  0.00    +0.135 C 
ENDROOT
BRANCH   1  12
ATOM      2  C   UNL     1      -0.001   1.333  -0.025  0.00  0.00    +0.001 A 
ATOM      3  C   UNL     1       1.181   2.069  -0.027  0.00  0.00    +0.001 A 
ATOM      4  C   UNL     1       2.393   1.445  -0.033  0.00  0.00    +0.009 A 
ATOM      5  C   UNL     1       2.454   0.047  -0.036  0.00  0.00    -0.007 A 
ATOM      6  C   UNL     1       1.252  -0.704  -0.033  0.00  0.00    -0.017 A 
ATOM      7  C   UNL     1       0.021  -0.029  -0.028  0.00  0.00    +0.008 A 
ATOM      8  C   UNL     1       1.315  -2.111  -0.037  0.00  0.00    +0.012 A 
ATOM      9  C   UNL     1       2.505  -2.760  -0.043  0.00  0.00    +0.047 A 
ATOM     10  C   UNL     1       3.721  -2.067  -0.046  0.00  0.00    +0.136 A 
ATOM     11  C   UNL     1       3.723  -0.669  -0.043  0.00  0.00    +0.031 A 
ATOM     12  C   UNL     1       5.129  -0.272  -0.047  0.00  0.00    +0.007 A 
ATOM     13  C   UNL     1       5.839  -1.412  -0.053  0.00  0.00    +0.200 A 
ATOM     14  O   UNL     1       5.008  -2.468  -0.052  0.00  0.00    -0.463 OA
ENDBRANCH   1  12
BRANCH   1  15
ATOM     15  C   UNL     1       5.744   1.644   1.370  0.00  0.00    +0.222 C 
ATOM     16  O   UNL     1       5.388   0.936   2.288  0.00  0.00    -0.275 OA
ATOM     17  N   UNL     1       6.204   2.887   1.616  0.00  0.00    -0.284 N 
ATOM     18  H   UNL     1       6.549   3.429   0.889  0.00  0.00    +0.155 HD
BRANCH  17  19
ATOM     19  C   UNL     1       6.182   3.396   2.920  0.00  0.00    +0.050 A 
ATOM     20  C   UNL     1       6.400   2.551   4.000  0.00  0.00    +0.057 A 
ATOM     21  C   UNL     1       6.378   3.056   5.285  0.00  0.00    +0.128 A 
ATOM     22  C   UNL     1       6.139   4.402   5.497  0.00  0.00    +0.034 A 
ATOM     23  C   UNL     1       5.921   5.246   4.425  0.00  0.00    +0.019 A 
ATOM     24  C   UNL     1       5.948   4.748   3.135  0.00  0.00    +0.039 A 
ATOM     25 BR   UNL     1       5.659   5.905   1.668  0.00  0.00    -0.048 Br
BRANCH  21  26
ATOM     26  N   UNL     1       6.610   2.156   6.437  0.00  0.00    +0.056 N 
ATOM     27  O   UNL     1       6.819   0.980   6.252  0.00  0.00    -0.126 OA
ATOM     28  O   UNL     1       6.591   2.597   7.562  0.00  0.00    -0.126 OA
ENDBRANCH  21  26
ENDBRANCH  17  19
ENDBRANCH   1  15
TORSDOF 4
