REMARK  Name = ZINC32284733
REMARK  8 active torsions:
REMARK  status: ('A' for Active; 'I' for Inactive)
REMARK    1  A    between atoms: C_1  and  C_2
REMARK    2  A    between atoms: C_4  and  S_9
REMARK    3  A    between atoms: S_9  and  N_12
REMARK    4  A    between atoms: N_12  and  C_13
REMARK    5  A    between atoms: C_16  and  C_19
REMARK    6  A    between atoms: N_21  and  C_22
REMARK    7  A    between atoms: C_22  and  C_24
REMARK    8  A    between atoms: C_22  and  C_25
REMARK                            x       y       z     vdW  Elec       q    Type
REMARK                         _______ _______ _______ _____ _____    ______ ____
ROOT
ATOM      1  C   UNL     1      -3.802   2.293  -5.122  0.00  0.00    +0.048 A 
ATOM      2  C   UNL     1      -4.155   1.087  -4.525  0.00  0.00    +0.025 A 
ATOM      3  C   UNL     1      -3.463   0.633  -3.425  0.00  0.00    +0.015 A 
ATOM      4  C   UNL     1      -2.405   1.387  -2.907  0.00  0.00    +0.037 A 
ATOM      5  C   UNL     1      -2.057   2.601  -3.505  0.00  0.00    +0.015 A 
ATOM      6  C   UNL     1      -2.749   3.046  -4.609  0.00  0.00    +0.025 A 
ENDROOT
BRANCH   4   7
ATOM      7  C   UNL     1      -1.662   0.904  -1.728  0.00  0.00    +0.245 C 
ATOM      8  O   UNL     1      -1.969  -0.150  -1.205  0.00  0.00    -0.270 OA
ATOM      9  N   UNL     1      -0.642   1.631  -1.230  0.00  0.00    -0.305 N 
ATOM     10  H   UNL     1      -0.364   2.585  -1.702  0.00  0.00    +0.150 HD
BRANCH   9  11
ATOM     11  C   UNL     1       0.096   1.152  -0.059  0.00  0.00    +0.101 C 
ATOM     12  C   UNL     1      -0.636   1.577   1.215  0.00  0.00    +0.033 C 
BRANCH  11  13
ATOM     13  C   UNL     1       1.482   1.743  -0.062  0.00  0.00    -0.024 A 
ATOM     14  C   UNL     1       1.668   3.061  -0.435  0.00  0.00    +0.009 A 
ATOM     15  C   UNL     1       2.938   3.611  -0.440  0.00  0.00    +0.050 A 
ATOM     16  C   UNL     1       4.023   2.836  -0.069  0.00  0.00    +0.162 A 
ATOM     17  C   UNL     1       3.837   1.512   0.305  0.00  0.00    +0.162 A 
ATOM     18  C   UNL     1       2.564   0.967   0.313  0.00  0.00    +0.055 A 
ATOM     19  O   UNL     1       4.913   0.756   0.668  0.00  0.00    -0.488 OA
ATOM     20  C   UNL     1       5.837   0.442  -0.376  0.00  0.00    +0.232 C 
ATOM     21  C   UNL     1       6.837   1.571  -0.570  0.00  0.00    +0.082 C 
ATOM     22  C   UNL     1       6.176   2.852  -1.055  0.00  0.00    +0.232 C 
ATOM     23  O   UNL     1       5.280   3.366  -0.067  0.00  0.00    -0.488 OA
ENDBRANCH  11  13
ENDBRANCH   9  11
ENDBRANCH   4   7
BRANCH   1  24
ATOM     24  N   UNL     1      -4.503   2.748  -6.233  0.00  0.00    -0.216 N 
ATOM     25  H   UNL     1      -4.725   2.061  -7.063  0.00  0.00    +0.174 HD
BRANCH  24  26
ATOM     26  S   UNL     1      -5.002   4.326  -6.309  0.00  0.00    +0.072 S 
ATOM     27  O   UNL     1      -3.857   5.127  -6.053  0.00  0.00    -0.150 OA
ATOM     28  O   UNL     1      -5.771   4.452  -7.497  0.00  0.00    -0.150 OA
BRANCH  26  32
ATOM     29  C   UNL     1      -5.996   5.894  -1.423  0.00  0.00    +0.047 C 
ATOM     30  C   UNL     1      -6.508   5.319  -2.719  0.00  0.00    -0.013 A 
ATOM     31  C   UNL     1      -5.640   5.114  -3.775  0.00  0.00    +0.035 A 
ATOM     32  C   UNL     1      -6.109   4.586  -4.963  0.00  0.00    +0.109 A 
ATOM     33  C   UNL     1      -7.448   4.268  -5.098  0.00  0.00    +0.031 A 
ATOM     34  C   UNL     1      -8.316   4.467  -4.042  0.00  0.00    +0.040 A 
ATOM     35  C   UNL     1      -7.847   4.996  -2.851  0.00  0.00    +0.126 A 
ATOM     36  F   UNL     1      -8.696   5.196  -1.820  0.00  0.00    -0.205 F 
ENDBRANCH  26  32
ENDBRANCH  24  26
ENDBRANCH   1  24
TORSDOF 6
