REMARK  Name = ZINC39413378
REMARK  8 active torsions:
REMARK  status: ('A' for Active; 'I' for Inactive)
REMARK    1  A    between atoms: C_1  and  C_2
REMARK    2  A    between atoms: C_2  and  O_3
REMARK    3  A    between atoms: O_3  and  C_4
REMARK    4  A    between atoms: C_9  and  C_10
REMARK    5  A    between atoms: C_13  and  C_19
REMARK    6  A    between atoms: C_15  and  C_18
REMARK    7  A    between atoms: C_19  and  N_20
REMARK    8  A    between atoms: C_24  and  C_26
REMARK                            x       y       z     vdW  Elec       q    Type
REMARK                         _______ _______ _______ _____ _____    ______ ____
ROOT
ATOM      1  C   UNL     1       2.795  -2.180   6.888  0.00  0.00    -0.056 C 
ENDROOT
BRANCH   1   4
ATOM      2  C   UNL     1       2.055  -1.434   3.442  0.00  0.00    +0.222 C 
ATOM      3  N   UNL     1       2.872  -2.206   4.414  0.00  0.00    -0.284 NA
ATOM      4  C   UNL     1       2.897  -1.336   5.616  0.00  0.00    +0.068 C 
ATOM      5  C   UNL     1       1.659  -0.430   5.469  0.00  0.00    +0.133 C 
ATOM      6  O   UNL     1       1.015  -0.836   4.245  0.00  0.00    -0.353 OA
ATOM      7  C   UNL     1       0.715  -0.630   6.657  0.00  0.00    +0.039 C 
ATOM      8  H   UNL     1       2.443  -3.096   4.621  0.00  0.00    +0.125 HD
BRANCH   2  14
ATOM      9  C   UNL     1       0.822  -1.824   1.294  0.00  0.00    +0.127 A 
ATOM     10  C   UNL     1       0.280  -2.673   0.340  0.00  0.00    +0.046 A 
ATOM     11  C   UNL     1       0.372  -4.041   0.501  0.00  0.00    +0.004 A 
ATOM     12  C   UNL     1       1.004  -4.566   1.614  0.00  0.00    +0.001 A 
ATOM     13  C   UNL     1       1.545  -3.723   2.567  0.00  0.00    +0.011 A 
ATOM     14  C   UNL     1       1.460  -2.353   2.406  0.00  0.00    +0.037 A 
BRANCH   9  15
ATOM     15  O   UNL     1       0.733  -0.477   1.137  0.00  0.00    -0.492 OA
BRANCH  15  17
ATOM     16  C   UNL     1       0.061   1.526  -0.036  0.00  0.00    +0.048 C 
ATOM     17  C   UNL     1       0.062  -0.004  -0.033  0.00  0.00    +0.225 C 
ENDBRANCH  15  17
ENDBRANCH   9  15
ENDBRANCH   2  14
ENDBRANCH   1   4
BRANCH   1  18
ATOM     18  N   UNL     1       3.881  -3.170   6.907  0.00  0.00    +0.387 N 
ATOM     19  C   UNL     1       5.182  -2.479   7.024  0.00  0.00    -0.078 C 
ATOM     20  C   UNL     1       5.507  -2.500   8.539  0.00  0.00    -0.020 C 
ATOM     21  C   UNL     1       4.969  -3.895   8.955  0.00  0.00    -0.010 C 
ATOM     22  C   UNL     1       3.717  -4.063   8.069  0.00  0.00    -0.001 C 
ATOM     23  H   UNL     1       3.861  -3.712   6.056  0.00  0.00    -0.081 HD
BRANCH  22  24
ATOM     24  C   UNL     1       3.606  -5.493   7.605  0.00  0.00    +0.095 A 
ATOM     25  N   UNL     1       2.983  -6.489   8.291  0.00  0.00    -0.343 N 
ATOM     26  H   UNL     1       2.541  -6.406   9.150  0.00  0.00    +0.167 HD
ATOM     27  C   UNL     1       3.098  -7.641   7.538  0.00  0.00    +0.069 A 
ATOM     28  C   UNL     1       2.676  -8.952   7.707  0.00  0.00    +0.066 A 
ATOM     29  C   UNL     1       2.961  -9.893   6.738  0.00  0.00    +0.125 A 
ATOM     30  C   UNL     1       3.668  -9.534   5.597  0.00  0.00    +0.040 A 
ATOM     31  C   UNL     1       4.091  -8.248   5.415  0.00  0.00    +0.032 A 
ATOM     32  C   UNL     1       3.813  -7.279   6.384  0.00  0.00    +0.089 A 
ATOM     33  N   UNL     1       4.086  -5.953   6.487  0.00  0.00    -0.234 NA
ATOM     34  F   UNL     1       2.552 -11.170   6.900  0.00  0.00    -0.205 F 
ENDBRANCH  22  24
ENDBRANCH   1  18
TORSDOF 6
