REMARK  Name = ZINC00184605
REMARK  4 active torsions:
REMARK  status: ('A' for Active; 'I' for Inactive)
REMARK    1  A    between atoms: C_1  and  C_2
REMARK    2  A    between atoms: C_2  and  C_3
REMARK    3  A    between atoms: C_6  and  N_9
REMARK    4  A    between atoms: N_19  and  O_20
REMARK                            x       y       z     vdW  Elec       q    Type
REMARK                         _______ _______ _______ _____ _____    ______ ____
ROOT
ATOM      1  N   UNL     1      -3.648   3.063   0.035  0.00  0.00    -0.140 N 
ATOM      2  C   UNL     1      -3.587   1.756  -0.276  0.00  0.00    +0.331 C 
ATOM      3  O   UNL     1      -4.612   1.161  -0.546  0.00  0.00    -0.250 OA
ATOM      4  N   UNL     1      -2.417   1.092  -0.296  0.00  0.00    -0.266 N 
ATOM      5  C   UNL     1      -1.220   1.754   0.011  0.00  0.00    +0.064 A 
ATOM      6  C   UNL     1      -0.012   1.078  -0.008  0.00  0.00    +0.047 A 
ATOM      7  C   UNL     1       1.159   1.751   0.293  0.00  0.00    +0.061 A 
ATOM      8  C   UNL     1       1.127   3.097   0.617  0.00  0.00    +0.061 A 
ATOM      9  C   UNL     1      -0.078   3.778   0.643  0.00  0.00    +0.053 A 
ATOM     10  C   UNL     1      -1.252   3.109   0.343  0.00  0.00    +0.110 A 
ATOM     11  N   UNL     1      -2.484   3.775   0.361  0.00  0.00    -0.157 N 
ATOM     12 CL   UNL     1       2.602   3.932   0.993  0.00  0.00    -0.082 Cl
ATOM     13 CL   UNL     1       2.675   0.905   0.263  0.00  0.00    -0.082 Cl
ATOM     14  H   UNL     1      -2.401   0.150  -0.524  0.00  0.00    +0.157 HD
ENDROOT
BRANCH   1  18
ATOM     15  C   UNL     1      -7.332   5.008   0.063  0.00  0.00    -0.047 A 
ATOM     16  C   UNL     1      -6.481   5.128   1.146  0.00  0.00    +0.005 A 
ATOM     17  C   UNL     1      -5.259   4.484   1.140  0.00  0.00    +0.026 A 
ATOM     18  C   UNL     1      -4.886   3.716   0.045  0.00  0.00    +0.062 A 
ATOM     19  C   UNL     1      -5.741   3.602  -1.043  0.00  0.00    +0.026 A 
ATOM     20  C   UNL     1      -6.963   4.244  -1.029  0.00  0.00    +0.005 A 
BRANCH  15  22
ATOM     21  C   UNL     1      -8.507   7.110  -0.530  0.00  0.00    +0.009 C 
ATOM     22  C   UNL     1      -8.664   5.713   0.072  0.00  0.00    +0.032 C 
ENDBRANCH  15  22
ENDBRANCH   1  18
BRANCH  11  23
ATOM     23  O   UNL     1      -2.552   5.151   0.689  0.00  0.00    -0.268 OA
ATOM     24  H   UNL     1      -1.695   5.551   0.887  0.00  0.00    +0.246 HD
ENDBRANCH  11  23
TORSDOF 3
