REMARK  Name = ZINC60368221
REMARK  7 active torsions:
REMARK  status: ('A' for Active; 'I' for Inactive)
REMARK    1  A    between atoms: C_1  and  C_2
REMARK    2  A    between atoms: C_2  and  C_3
REMARK    3  A    between atoms: C_2  and  C_4
REMARK    4  A    between atoms: C_8  and  N_13
REMARK    5  A    between atoms: C_14  and  C_16
REMARK    6  A    between atoms: C_16  and  N_17
REMARK    7  A    between atoms: C_18  and  C_20
REMARK                            x       y       z     vdW  Elec       q    Type
REMARK                         _______ _______ _______ _____ _____    ______ ____
ROOT
ATOM      1  N   UNL     1       2.320  -3.064   6.220  0.00  0.00    -0.284 N 
ATOM      2  C   UNL     1       3.465  -3.206   6.917  0.00  0.00    +0.234 C 
ATOM      3  O   UNL     1       4.465  -2.616   6.567  0.00  0.00    -0.274 OA
ATOM      4  H   UNL     1       1.502  -3.474   6.542  0.00  0.00    +0.155 HD
ENDROOT
BRANCH   1   9
ATOM      5  C   UNL     1       3.798  -0.603   1.140  0.00  0.00    +0.199 A 
ATOM      6  N   UNL     1       4.319  -1.391   2.031  0.00  0.00    -0.213 NA
ATOM      7  C   UNL     1       3.412  -1.590   3.025  0.00  0.00    +0.111 A 
ATOM      8  C   UNL     1       3.425  -2.327   4.210  0.00  0.00    +0.055 A 
ATOM      9  C   UNL     1       2.311  -2.325   5.030  0.00  0.00    +0.036 A 
ATOM     10  C   UNL     1       1.181  -1.592   4.677  0.00  0.00    +0.027 A 
ATOM     11  C   UNL     1       1.160  -0.861   3.508  0.00  0.00    +0.050 A 
ATOM     12  C   UNL     1       2.269  -0.854   2.676  0.00  0.00    +0.155 A 
ATOM     13  O   UNL     1       2.554  -0.251   1.500  0.00  0.00    -0.439 OA
BRANCH   5  15
ATOM     14  C   UNL     1       3.688  -0.594  -1.337  0.00  0.00    +0.017 C 
ATOM     15  C   UNL     1       4.493  -0.144  -0.116  0.00  0.00    +0.069 C 
ATOM     16  C   UNL     1       4.602   1.382  -0.111  0.00  0.00    +0.017 C 
ENDBRANCH   5  15
ENDBRANCH   1   9
BRANCH   2  17
ATOM     17  C   UNL     1       3.502  -4.097   8.131  0.00  0.00    +0.200 C 
BRANCH  17  18
ATOM     18  N   UNL     1       4.849  -4.082   8.707  0.00  0.00    -0.302 N 
ATOM     19  C   UNL     1       5.120  -4.812   9.807  0.00  0.00    +0.251 C 
ATOM     20  O   UNL     1       4.245  -5.483  10.323  0.00  0.00    -0.270 OA
ATOM     21  H   UNL     1       5.546  -3.547   8.296  0.00  0.00    +0.150 HD
BRANCH  19  22
ATOM     22  C   UNL     1       6.468  -4.797  10.383  0.00  0.00    +0.074 A 
ATOM     23  C   UNL     1       6.950  -5.470  11.491  0.00  0.00    +0.024 A 
ATOM     24  C   UNL     1       8.284  -5.269  11.813  0.00  0.00    -0.036 A 
ATOM     25  C   UNL     1       8.989  -4.426  11.005  0.00  0.00    -0.006 A 
ATOM     26  S   UNL     1       7.915  -3.913   9.834  0.00  0.00    -0.088 S 
ATOM     27  C   UNL     1      10.435  -4.049  11.145  0.00  0.00    +0.043 C 
ATOM     28  C   UNL     1      10.909  -4.454  12.548  0.00  0.00    +0.005 C 
ATOM     29  C   UNL     1      10.468  -5.895  12.820  0.00  0.00    +0.005 C 
ATOM     30  C   UNL     1       8.951  -5.947  13.007  0.00  0.00    +0.036 C 
ENDBRANCH  19  22
ENDBRANCH  17  18
ENDBRANCH   2  17
TORSDOF 5
