REMARK  Name = ZINC36657833
REMARK  9 active torsions:
REMARK  status: ('A' for Active; 'I' for Inactive)
REMARK    1  A    between atoms: C_1  and  C_2
REMARK    2  A    between atoms: C_5  and  S_8
REMARK    3  A    between atoms: S_8  and  N_11
REMARK    4  A    between atoms: C_15  and  C_17
REMARK    5  A    between atoms: C_23  and  C_25
REMARK    6  A    between atoms: C_25  and  C_26
REMARK    7  A    between atoms: C_29  and  C_32
REMARK    8  A    between atoms: C_32  and  C_33
REMARK    9  A    between atoms: C_32  and  C_34
REMARK                            x       y       z     vdW  Elec       q    Type
REMARK                         _______ _______ _______ _____ _____    ______ ____
ROOT
ATOM      1  C   UNL     1       1.893  -6.379   1.960  0.00  0.00    +0.239 C 
ATOM      2  O   UNL     1       0.880  -6.930   1.584  0.00  0.00    -0.274 OA
ATOM      3  N   UNL     1       2.494  -6.779   3.098  0.00  0.00    -0.237 N 
ATOM      4  C   UNL     1       1.954  -7.819   3.840  0.00  0.00    +0.314 A 
ATOM      5  N   UNL     1       0.875  -8.502   3.549  0.00  0.00    -0.092 NA
ATOM      6  N   UNL     1       0.674  -9.389   4.458  0.00  0.00    -0.111 NA
ATOM      7  C   UNL     1       1.610  -9.308   5.359  0.00  0.00    +0.223 A 
ATOM      8  O   UNL     1       2.446  -8.319   4.988  0.00  0.00    -0.409 OA
ATOM      9  H   UNL     1       3.304  -6.338   3.399  0.00  0.00    +0.159 HD
ENDROOT
BRANCH   1  14
ATOM     10  N   UNL     1       1.651  -4.999  -0.034  0.00  0.00    -0.165 NA
ATOM     11  C   UNL     1       2.470  -5.230  -1.238  0.00  0.00    +0.110 C 
ATOM     12  C   UNL     1       3.932  -5.027  -0.768  0.00  0.00    +0.019 C 
ATOM     13  C   UNL     1       3.888  -5.637   0.658  0.00  0.00    +0.031 C 
ATOM     14  C   UNL     1       2.479  -5.249   1.155  0.00  0.00    +0.166 C 
BRANCH  10  15
ATOM     15  S   UNL     1       0.063  -4.530  -0.023  0.00  0.00    +0.062 S 
ATOM     16  O   UNL     1      -0.476  -4.950   1.223  0.00  0.00    -0.153 OA
ATOM     17  O   UNL     1      -0.490  -4.937  -1.267  0.00  0.00    -0.153 OA
BRANCH  15  22
ATOM     18  C   UNL     1      -0.018   1.503   0.010  0.00  0.00    +0.044 C 
ATOM     19  C   UNL     1       0.002  -0.004   0.002  0.00  0.00    -0.050 A 
ATOM     20  C   UNL     1       0.006  -0.689  -1.199  0.00  0.00    +0.005 A 
ATOM     21  C   UNL     1       0.025  -2.071  -1.206  0.00  0.00    +0.029 A 
ATOM     22  C   UNL     1       0.040  -2.768  -0.013  0.00  0.00    +0.106 A 
ATOM     23  C   UNL     1       0.037  -2.084   1.188  0.00  0.00    +0.029 A 
ATOM     24  C   UNL     1       0.023  -0.702   1.195  0.00  0.00    +0.005 A 
ENDBRANCH  15  22
ENDBRANCH  10  15
ENDBRANCH   1  14
BRANCH   7  25
ATOM     25  C   UNL     1       1.739 -10.169   6.589  0.00  0.00    +0.132 C 
BRANCH  25  26
ATOM     26  C   UNL     1       2.568 -11.386   6.266  0.00  0.00    -0.038 A 
ATOM     27  C   UNL     1       1.956 -12.535   5.802  0.00  0.00    +0.004 A 
ATOM     28  C   UNL     1       2.716 -13.651   5.506  0.00  0.00    +0.004 A 
ATOM     29  C   UNL     1       4.088 -13.617   5.674  0.00  0.00    -0.045 A 
ATOM     30  C   UNL     1       4.699 -12.468   6.138  0.00  0.00    +0.004 A 
ATOM     31  C   UNL     1       3.940 -11.350   6.429  0.00  0.00    +0.004 A 
BRANCH  29  32
ATOM     32  C   UNL     1       4.916 -14.835   5.352  0.00  0.00    +0.013 C 
ATOM     33  C   UNL     1       5.928 -14.488   4.258  0.00  0.00    +0.012 C 
ATOM     34  C   UNL     1       5.660 -15.292   6.609  0.00  0.00    +0.012 C 
ENDBRANCH  29  32
ENDBRANCH  25  26
ENDBRANCH   7  25
TORSDOF 6
