REMARK  Name = ZINC02472077
REMARK  5 active torsions:
REMARK  status: ('A' for Active; 'I' for Inactive)
REMARK    1  A    between atoms: C_1  and  C_2
REMARK    2  A    between atoms: C_2  and  O_3
REMARK    3  A    between atoms: O_3  and  C_4
REMARK    4  A    between atoms: C_7  and  C_10
REMARK    5  A    between atoms: C_13  and  C_22
REMARK                            x       y       z     vdW  Elec       q    Type
REMARK                         _______ _______ _______ _____ _____    ______ ____
ROOT
ATOM      1  C   UNL     1      -2.001  -6.092  -0.011  0.00  0.00    +0.106 C 
ATOM      2  C   UNL     1      -2.312  -6.579   1.409  0.00  0.00    +0.058 C 
ATOM      3  C   UNL     1      -2.439  -8.108   1.415  0.00  0.00    +0.143 C 
ATOM      4  N   UNL     1      -3.335  -8.512   0.332  0.00  0.00    -0.224 N 
ATOM      5  C   UNL     1      -3.647  -7.732  -0.731  0.00  0.00    +0.216 A 
ATOM      6  N   UNL     1      -4.468  -8.398  -1.498  0.00  0.00    -0.180 NA
ATOM      7  C   UNL     1      -4.702  -9.605  -0.960  0.00  0.00    +0.233 A 
ATOM      8  N   UNL     1      -4.024  -9.713   0.161  0.00  0.00    -0.132 NA
ATOM      9  N   UNL     1      -5.530 -10.588  -1.504  0.00  0.00    -0.326 N 
ATOM     10  N   UNL     1      -3.126  -6.454  -0.894  0.00  0.00    -0.307 N 
ATOM     11  H   UNL     1      -5.993 -10.423  -2.340  0.00  0.00    +0.145 HD
ATOM     12  H   UNL     1      -5.642 -11.435  -1.046  0.00  0.00    +0.145 HD
ATOM     13  H   UNL     1      -3.483  -5.834  -1.549  0.00  0.00    +0.149 HD
ENDROOT
BRANCH   3  14
ATOM     14  C   UNL     1      -3.003  -8.562   2.736  0.00  0.00    -0.023 A 
ATOM     15  C   UNL     1      -4.252  -8.128   3.140  0.00  0.00    +0.007 A 
ATOM     16  C   UNL     1      -4.771  -8.544   4.352  0.00  0.00    +0.020 A 
ATOM     17  C   UNL     1      -4.039  -9.396   5.161  0.00  0.00    +0.041 A 
ATOM     18  C   UNL     1      -2.790  -9.830   4.756  0.00  0.00    +0.020 A 
ATOM     19  C   UNL     1      -2.275  -9.417   3.542  0.00  0.00    +0.007 A 
ATOM     20 CL   UNL     1      -4.689  -9.918   6.683  0.00  0.00    -0.084 Cl
ENDBRANCH   3  14
BRANCH   1  24
ATOM     21  C   UNL     1      -1.498  -1.848   0.006  0.00  0.00    +0.121 A 
ATOM     22  C   UNL     1      -0.388  -2.679  -0.003  0.00  0.00    +0.046 A 
ATOM     23  C   UNL     1      -0.553  -4.051  -0.008  0.00  0.00    +0.009 A 
ATOM     24  C   UNL     1      -1.823  -4.596  -0.005  0.00  0.00    -0.027 A 
ATOM     25  C   UNL     1      -2.932  -3.769   0.004  0.00  0.00    +0.009 A 
ATOM     26  C   UNL     1      -2.772  -2.397   0.016  0.00  0.00    +0.046 A 
BRANCH  21  27
ATOM     27  O   UNL     1      -1.339  -0.499   0.012  0.00  0.00    -0.492 OA
BRANCH  27  29
ATOM     28  C   UNL     1      -0.019   1.526   0.010  0.00  0.00    +0.048 C 
ATOM     29  C   UNL     1       0.002  -0.004   0.002  0.00  0.00    +0.225 C 
ENDBRANCH  27  29
ENDBRANCH  21  27
ENDBRANCH   1  24
TORSDOF 4
