REMARK  Name = ZINC60411599
REMARK  8 active torsions:
REMARK  status: ('A' for Active; 'I' for Inactive)
REMARK    1  A    between atoms: C_1  and  C_2
REMARK    2  A    between atoms: C_2  and  C_3
REMARK    3  A    between atoms: C_2  and  C_4
REMARK    4  A    between atoms: C_7  and  C_10
REMARK    5  A    between atoms: C_12  and  C_15
REMARK    6  A    between atoms: N_17  and  N_18
REMARK    7  A    between atoms: N_21  and  C_22
REMARK    8  A    between atoms: C_22  and  C_23
REMARK                            x       y       z     vdW  Elec       q    Type
REMARK                         _______ _______ _______ _____ _____    ______ ____
ROOT
ATOM      1  C   UNL     1       2.735  -3.868   7.727  0.00  0.00    +0.279 C 
ATOM      2  O   UNL     1       3.504  -4.148   8.626  0.00  0.00    -0.267 OA
ATOM      3  N   UNL     1       1.476  -4.351   7.741  0.00  0.00    -0.228 N 
ATOM      4  H   UNL     1       0.863  -4.128   7.024  0.00  0.00    +0.173 HD
ENDROOT
BRANCH   3   5
ATOM      5  N   UNL     1       1.055  -5.175   8.793  0.00  0.00    -0.218 N 
ATOM      6  C   UNL     1      -0.203  -5.658   8.808  0.00  0.00    +0.316 C 
ATOM      7  O   UNL     1      -0.569  -6.373   9.720  0.00  0.00    -0.251 OA
ATOM      8  N   UNL     1      -1.056  -5.348   7.811  0.00  0.00    -0.290 N 
ATOM      9  H   UNL     1       1.668  -5.398   9.510  0.00  0.00    +0.174 HD
ATOM     10  H   UNL     1      -0.764  -4.777   7.083  0.00  0.00    +0.151 HD
BRANCH   8  11
ATOM     11  C   UNL     1      -2.424  -5.873   7.827  0.00  0.00    +0.219 C 
BRANCH  11  12
ATOM     12  C   UNL     1      -3.176  -5.374   6.592  0.00  0.00    +0.405 C 
ATOM     13  F   UNL     1      -2.521  -5.815   5.437  0.00  0.00    -0.169 F 
ATOM     14  F   UNL     1      -4.482  -5.875   6.607  0.00  0.00    -0.169 F 
ATOM     15  F   UNL     1      -3.213  -3.975   6.601  0.00  0.00    -0.169 F 
ENDBRANCH  11  12
ENDBRANCH   8  11
ENDBRANCH   3   5
BRANCH   1  18
ATOM     16  C   UNL     1       2.785  -1.910   4.665  0.00  0.00    +0.109 A 
ATOM     17  N   UNL     1       2.347  -2.690   5.636  0.00  0.00    -0.234 NA
ATOM     18  C   UNL     1       3.178  -3.001   6.621  0.00  0.00    +0.135 A 
ATOM     19  C   UNL     1       4.455  -2.505   6.596  0.00  0.00    +0.080 A 
ATOM     20  S   UNL     1       4.469  -1.608   5.173  0.00  0.00    -0.075 S 
BRANCH  16  24
ATOM     21  C   UNL     1       0.731  -0.503   1.223  0.00  0.00    -0.045 A 
ATOM     22  C   UNL     1       2.051  -0.146   1.431  0.00  0.00    +0.004 A 
ATOM     23  C   UNL     1       2.724  -0.599   2.547  0.00  0.00    +0.011 A 
ATOM     24  C   UNL     1       2.070  -1.420   3.467  0.00  0.00    +0.007 A 
ATOM     25  C   UNL     1       0.739  -1.777   3.251  0.00  0.00    +0.011 A 
ATOM     26  C   UNL     1       0.075  -1.312   2.134  0.00  0.00    +0.004 A 
BRANCH  21  28
ATOM     27  C   UNL     1      -0.019   1.526   0.010  0.00  0.00    +0.012 C 
ATOM     28  C   UNL     1       0.002  -0.004   0.002  0.00  0.00    +0.013 C 
ATOM     29  C   UNL     1       0.718  -0.497  -1.257  0.00  0.00    +0.012 C 
ENDBRANCH  21  28
ENDBRANCH  16  24
ENDBRANCH   1  18
TORSDOF 6
