REMARK  Name = ZINC63820552
REMARK  16 active torsions:
REMARK  status: ('A' for Active; 'I' for Inactive)
REMARK    1  A    between atoms: C_1  and  C_2
REMARK    2  A    between atoms: C_2  and  C_3
REMARK    3  A    between atoms: C_3  and  C_5
REMARK    4  A    between atoms: C_3  and  N_33
REMARK    5  A    between atoms: C_9  and  S_18
REMARK    6  A    between atoms: N_10  and  C_11
REMARK    7  A    between atoms: C_11  and  C_12
REMARK    8  A    between atoms: S_18  and  C_19
REMARK    9  A    between atoms: C_19  and  C_20
REMARK   10  A    between atoms: C_20  and  C_22
REMARK   11  A    between atoms: C_23  and  C_32
REMARK   12  A    between atoms: C_24  and  C_29
REMARK   13  A    between atoms: C_25  and  C_28
REMARK   14  A    between atoms: C_29  and  C_31
REMARK   15  A    between atoms: N_33  and  C_34
REMARK   16  A    between atoms: N_33  and  C_35
REMARK                            x       y       z     vdW  Elec       q    Type
REMARK                         _______ _______ _______ _____ _____    ______ ____
ROOT
ATOM      1  C   UNL     1       0.015  -0.957  -1.631  0.00  0.00    +0.164 C 
ATOM      2  N   UNL     1       0.757  -1.389  -2.827  0.00  0.00    -0.248 N 
ATOM      3  N   UNL     1       1.440  -2.556  -2.462  0.00  0.00    -0.163 NA
ATOM      4  C   UNL     1       1.210  -2.873  -1.233  0.00  0.00    +0.176 C 
ATOM      5  N   UNL     1       0.350  -1.972  -0.617  0.00  0.00    -0.286 N 
ATOM      6  H   UNL     1       0.771  -0.953  -3.694  0.00  0.00    +0.170 HD
ENDROOT
BRANCH   1   7
ATOM      7  C   UNL     1       0.483   0.428  -1.179  0.00  0.00    -0.029 C 
BRANCH   7   8
ATOM      8  N   UNL     1       1.951   0.456  -1.128  0.00  0.00    +0.380 N 
ATOM      9  C   UNL     1       2.422  -0.468  -0.087  0.00  0.00    -0.096 C 
ATOM     10  C   UNL     1       2.494   0.045  -2.430  0.00  0.00    -0.096 C 
ATOM     11  H   UNL     1       2.263   1.391  -0.913  0.00  0.00    -0.082 HD
ENDBRANCH   7   8
BRANCH   7  13
ATOM     12  C   UNL     1       0.357   2.876  -1.660  0.00  0.00    +0.002 C 
ATOM     13  C   UNL     1      -0.012   1.482  -2.171  0.00  0.00    -0.015 C 
ENDBRANCH   7  13
ENDBRANCH   1   7
BRANCH   5  14
ATOM     14  C   UNL     1      -0.129  -2.018   0.767  0.00  0.00    +0.144 C 
BRANCH  14  15
ATOM     15  C   UNL     1      -1.378  -2.859   0.838  0.00  0.00    -0.030 A 
ATOM     16  C   UNL     1      -2.617  -2.271   0.667  0.00  0.00    +0.005 A 
ATOM     17  C   UNL     1      -3.763  -3.042   0.733  0.00  0.00    +0.000 A 
ATOM     18  C   UNL     1      -3.669  -4.401   0.968  0.00  0.00    +0.000 A 
ATOM     19  C   UNL     1      -2.429  -4.989   1.138  0.00  0.00    +0.000 A 
ATOM     20  C   UNL     1      -1.284  -4.219   1.068  0.00  0.00    +0.005 A 
ENDBRANCH  14  15
ENDBRANCH   5  14
BRANCH   4  21
ATOM     21  S   UNL     1       1.901  -4.282  -0.432  0.00  0.00    -0.081 S 
BRANCH  21  22
ATOM     22  C   UNL     1       2.919  -5.062  -1.715  0.00  0.00    +0.158 C 
BRANCH  22  23
ATOM     23  C   UNL     1       3.576  -6.296  -1.153  0.00  0.00    +0.190 C 
ATOM     24  O   UNL     1       3.377  -6.619   0.000  0.00  0.00    -0.290 OA
BRANCH  23  25
ATOM     25  C   UNL     1       4.426  -7.080  -1.971  0.00  0.00    +0.087 A 
ATOM     26  C   UNL     1       5.082  -8.229  -1.588  0.00  0.00    -0.012 A 
ATOM     27  C   UNL     1       5.812  -8.676  -2.713  0.00  0.00    +0.041 A 
ATOM     28  C   UNL     1       5.570  -7.777  -3.741  0.00  0.00    +0.024 A 
ATOM     29  N   UNL     1       4.736  -6.829  -3.293  0.00  0.00    -0.355 N 
ATOM     30  H   UNL     1       4.404  -6.081  -3.814  0.00  0.00    +0.166 HD
ATOM     31  C   UNL     1       6.144  -7.857  -5.132  0.00  0.00    +0.064 C 
ATOM     32  C   UNL     1       5.031  -8.882  -0.231  0.00  0.00    +0.047 C 
BRANCH  27  33
ATOM     33  C   UNL     1       6.665  -9.867  -2.780  0.00  0.00    +0.162 C 
ATOM     34  O   UNL     1       7.822  -9.806  -2.418  0.00  0.00    -0.292 OA
ATOM     35  C   UNL     1       6.106 -11.167  -3.297  0.00  0.00    +0.091 C 
ENDBRANCH  27  33
ENDBRANCH  23  25
ENDBRANCH  22  23
ENDBRANCH  21  22
ENDBRANCH   4  21
TORSDOF 10
