REMARK  Name = ZINC03670386
REMARK  12 active torsions:
REMARK  status: ('A' for Active; 'I' for Inactive)
REMARK    1  A    between atoms: C_1  and  C_2
REMARK    2  A    between atoms: C_2  and  C_3
REMARK    3  A    between atoms: C_3  and  C_4
REMARK    4  A    between atoms: C_4  and  N_5
REMARK    5  A    between atoms: N_5  and  C_6
REMARK    6  A    between atoms: N_5  and  C_7
REMARK    7  A    between atoms: C_7  and  C_8
REMARK    8  A    between atoms: C_8  and  C_9
REMARK    9  A    between atoms: C_9  and  N_10
REMARK   10  A    between atoms: C_11  and  C_13
REMARK   11  A    between atoms: C_13  and  O_31
REMARK   12  A    between atoms: N_23  and  C_24
REMARK                            x       y       z     vdW  Elec       q    Type
REMARK                         _______ _______ _______ _____ _____    ______ ____
ROOT
ATOM      1  C   UNL     1      -7.018  -8.036   0.711  0.00  0.00    +0.247 C 
ATOM      2  C   UNL     1      -7.709  -7.917  -0.627  0.00  0.00    +0.033 A 
ATOM      3  C   UNL     1      -7.045  -8.184  -1.802  0.00  0.00    +0.010 A 
ATOM      4  C   UNL     1      -7.712  -8.065  -3.010  0.00  0.00    +0.001 A 
ATOM      5  C   UNL     1      -9.039  -7.678  -3.033  0.00  0.00    +0.002 A 
ATOM      6  C   UNL     1      -9.708  -7.409  -1.855  0.00  0.00    +0.024 A 
ATOM      7  C   UNL     1      -9.044  -7.527  -0.641  0.00  0.00    +0.043 A 
ATOM      8  N   UNL     1      -9.703  -7.261   0.560  0.00  0.00    -0.269 N 
ATOM      9  C   UNL     1      -9.107  -7.362   1.755  0.00  0.00    +0.314 C 
ATOM     10  O   UNL     1      -9.759  -7.110   2.751  0.00  0.00    -0.252 OA
ATOM     11  N   UNL     1      -7.821  -7.727   1.906  0.00  0.00    -0.214 N 
ATOM     12  H   UNL     1     -10.634  -6.991   0.528  0.00  0.00    +0.156 HD
ENDROOT
BRANCH  11  13
ATOM     13  C   UNL     1      -7.254  -7.814   3.183  0.00  0.00    +0.041 A 
ATOM     14  C   UNL     1      -6.750  -6.676   3.799  0.00  0.00    +0.025 A 
ATOM     15  C   UNL     1      -6.192  -6.764   5.059  0.00  0.00    +0.022 A 
ATOM     16  C   UNL     1      -6.134  -7.985   5.708  0.00  0.00    +0.041 A 
ATOM     17  C   UNL     1      -6.635  -9.120   5.096  0.00  0.00    +0.022 A 
ATOM     18  C   UNL     1      -7.200  -9.037   3.839  0.00  0.00    +0.025 A 
ATOM     19 CL   UNL     1      -5.430  -8.092   7.291  0.00  0.00    -0.084 Cl
ENDBRANCH  11  13
BRANCH   1  21
ATOM     20  N   UNL     1      -6.004  -5.780   0.765  0.00  0.00    -0.311 N 
ATOM     21  C   UNL     1      -5.825  -7.114   0.702  0.00  0.00    +0.269 C 
ATOM     22  O   UNL     1      -4.705  -7.573   0.637  0.00  0.00    -0.270 OA
ATOM     23  H   UNL     1      -6.901  -5.413   0.817  0.00  0.00    +0.149 HD
BRANCH  20  24
ATOM     24  C   UNL     1      -4.845  -4.884   0.756  0.00  0.00    +0.102 C 
BRANCH  24  25
ATOM     25  C   UNL     1      -5.322  -3.432   0.837  0.00  0.00    +0.000 C 
BRANCH  25  26
ATOM     26  C   UNL     1      -4.112  -2.497   0.827  0.00  0.00    -0.078 C 
BRANCH  26  27
ATOM     27  N   UNL     1      -4.569  -1.103   0.904  0.00  0.00    +0.378 N 
ATOM     28  C   UNL     1      -5.328  -0.769  -0.308  0.00  0.00    -0.096 C 
ATOM     29  H   UNL     1      -5.161  -0.988   1.714  0.00  0.00    -0.082 HD
BRANCH  27  30
ATOM     30  C   UNL     1      -3.407  -0.211   1.016  0.00  0.00    -0.079 C 
BRANCH  30  31
ATOM     31  C   UNL     1      -3.886   1.227   1.221  0.00  0.00    -0.019 C 
BRANCH  31  33
ATOM     32  C   UNL     1      -3.155   3.595   1.543  0.00  0.00    +0.004 C 
ATOM     33  C   UNL     1      -2.676   2.156   1.337  0.00  0.00    -0.005 C 
ENDBRANCH  31  33
ENDBRANCH  30  31
ENDBRANCH  27  30
ENDBRANCH  26  27
ENDBRANCH  25  26
ENDBRANCH  24  25
ENDBRANCH  20  24
ENDBRANCH   1  21
BRANCH   1  34
ATOM     34  O   UNL     1      -6.534  -9.374   0.839  0.00  0.00    -0.360 OA
ATOM     35  H   UNL     1      -5.947  -9.650   0.122  0.00  0.00    +0.213 HD
ENDBRANCH   1  34
TORSDOF 10
