REMARK  Name = ZINC63526511
REMARK  10 active torsions:
REMARK  status: ('A' for Active; 'I' for Inactive)
REMARK    1  A    between atoms: C_1  and  C_2
REMARK    2  A    between atoms: C_4  and  C_12
REMARK    3  A    between atoms: C_12  and  C_13
REMARK    4  A    between atoms: C_13  and  N_14
REMARK    5  A    between atoms: C_15  and  C_17
REMARK    6  A    between atoms: N_21  and  C_24
REMARK    7  A    between atoms: C_27  and  O_30
REMARK    8  A    between atoms: O_30  and  C_31
REMARK    9  A    between atoms: C_33  and  C_37
REMARK   10  A    between atoms: C_33  and  C_38
REMARK                            x       y       z     vdW  Elec       q    Type
REMARK                         _______ _______ _______ _____ _____    ______ ____
ROOT
ATOM      1  C   UNL     1      -7.148  -0.993  -2.263  0.00  0.00    +0.102 A 
ATOM      2  C   UNL     1      -8.412  -1.540  -2.090  0.00  0.00    +0.031 A 
ATOM      3  C   UNL     1      -9.403  -1.289  -3.063  0.00  0.00    +0.038 A 
ATOM      4  C   UNL     1      -9.123  -0.505  -4.170  0.00  0.00    +0.038 A 
ATOM      5  N   UNL     1      -7.893   0.023  -4.342  0.00  0.00    -0.280 N 
ATOM      6  C   UNL     1      -6.905  -0.173  -3.453  0.00  0.00    +0.268 A 
ATOM      7  O   UNL     1      -5.809   0.325  -3.638  0.00  0.00    -0.266 OA
ATOM      8  C   UNL     1     -10.175  -0.209  -5.208  0.00  0.00    +0.061 C 
ATOM      9  C   UNL     1     -11.273  -1.268  -5.205  0.00  0.00    -0.023 C 
ATOM     10  C   UNL     1     -11.854  -1.389  -3.789  0.00  0.00    +0.086 C 
ATOM     11  C   UNL     1     -10.741  -1.879  -2.887  0.00  0.00    +0.165 C 
ATOM     12  O   UNL     1     -10.945  -2.729  -2.047  0.00  0.00    -0.292 OA
ATOM     13  C   UNL     1     -12.380  -0.860  -6.179  0.00  0.00    +0.011 C 
ATOM     14  C   UNL     1     -10.685  -2.615  -5.632  0.00  0.00    +0.011 C 
ENDROOT
BRANCH   5  15
ATOM     15  C   UNL     1      -7.640   0.803  -5.478  0.00  0.00    +0.050 A 
ATOM     16  C   UNL     1      -8.227   2.055  -5.605  0.00  0.00    +0.030 A 
ATOM     17  C   UNL     1      -7.977   2.823  -6.725  0.00  0.00    +0.047 A 
ATOM     18  C   UNL     1      -7.141   2.344  -7.723  0.00  0.00    +0.120 A 
ATOM     19  C   UNL     1      -6.555   1.093  -7.596  0.00  0.00    +0.047 A 
ATOM     20  C   UNL     1      -6.799   0.326  -6.474  0.00  0.00    +0.030 A 
BRANCH  18  21
ATOM     21  O   UNL     1      -6.896   3.100  -8.826  0.00  0.00    -0.495 OA
ATOM     22  C   UNL     1      -6.025   2.545  -9.813  0.00  0.00    +0.277 C 
ENDBRANCH  18  21
ENDBRANCH   5  15
BRANCH   1  24
ATOM     23  N   UNL     1      -4.899  -0.591  -1.399  0.00  0.00    -0.311 N 
ATOM     24  C   UNL     1      -6.082  -1.224  -1.275  0.00  0.00    +0.249 C 
ATOM     25  O   UNL     1      -6.269  -1.988  -0.347  0.00  0.00    -0.270 OA
ATOM     26  H   UNL     1      -4.725  -0.036  -2.175  0.00  0.00    +0.149 HD
BRANCH  23  27
ATOM     27  C   UNL     1      -3.875  -0.742  -0.362  0.00  0.00    +0.109 C 
BRANCH  27  28
ATOM     28  C   UNL     1      -2.639   0.074  -0.743  0.00  0.00    +0.052 C 
BRANCH  28  31
ATOM     29  C   UNL     1      -0.337   2.079   0.348  0.00  0.00    +0.035 C 
ATOM     30  C   UNL     1      -0.213   0.554   0.345  0.00  0.00    +0.103 C 
ATOM     31  C   UNL     1      -1.586  -0.080   0.324  0.00  0.00    -0.037 C 
ATOM     32  C   UNL     1      -1.677  -0.814   1.456  0.00  0.00    -0.001 A 
ATOM     33  C   UNL     1      -2.744  -1.656   2.012  0.00  0.00    +0.010 A 
ATOM     34  C   UNL     1      -2.538  -2.280   3.194  0.00  0.00    +0.001 A 
ATOM     35  C   UNL     1      -1.335  -2.143   3.900  0.00  0.00    +0.002 A 
ATOM     36  C   UNL     1      -0.309  -1.387   3.454  0.00  0.00    +0.026 A 
ATOM     37  C   UNL     1      -0.416  -0.686   2.221  0.00  0.00    +0.043 A 
ATOM     38  N   UNL     1       0.424   0.096   1.586  0.00  0.00    -0.378 N 
ATOM     39  H   UNL     1       1.315   0.333   1.885  0.00  0.00    +0.160 HD
ENDBRANCH  28  31
ENDBRANCH  27  28
ENDBRANCH  23  27
ENDBRANCH   1  24
TORSDOF 6
