REMARK  Name = ZINC44737434
REMARK  8 active torsions:
REMARK  status: ('A' for Active; 'I' for Inactive)
REMARK    1  A    between atoms: C_1  and  C_2
REMARK    2  A    between atoms: C_9  and  C_11
REMARK    3  A    between atoms: C_11  and  C_13
REMARK    4  A    between atoms: C_11  and  N_14
REMARK    5  A    between atoms: C_15  and  C_17
REMARK    6  A    between atoms: C_28  and  C_30
REMARK    7  A    between atoms: C_34  and  O_35
REMARK    8  A    between atoms: O_35  and  C_36
REMARK                            x       y       z     vdW  Elec       q    Type
REMARK                         _______ _______ _______ _____ _____    ______ ____
ROOT
ATOM      1  C   UNL     1      -1.628  -8.785   0.985  0.00  0.00    +0.100 C 
ATOM      2  C   UNL     1      -0.559  -9.308  -0.002  0.00  0.00    +0.121 C 
ATOM      3  N   UNL     1      -0.008 -10.519   0.650  0.00  0.00    -0.296 N 
ATOM      4  C   UNL     1      -1.188 -11.178   1.261  0.00  0.00    +0.115 C 
ATOM      5  C   UNL     1      -2.040 -10.016   1.809  0.00  0.00    -0.004 C 
ATOM      6  C   UNL     1      -1.733  -9.790   3.287  0.00  0.00    -0.010 C 
ATOM      7  C   UNL     1      -2.204 -11.004   4.093  0.00  0.00    -0.082 C 
ATOM      8  N   UNL     1      -3.646 -11.195   3.895  0.00  0.00    +0.379 N 
ATOM      9  C   UNL     1      -3.922 -11.504   2.487  0.00  0.00    -0.082 C 
ATOM     10  C   UNL     1      -3.524 -10.312   1.613  0.00  0.00    -0.010 C 
ATOM     11  C   UNL     1       1.275 -10.929   0.682  0.00  0.00    +0.251 C 
ATOM     12  O   UNL     1       2.150 -10.225   0.214  0.00  0.00    -0.270 OA
ATOM     13  H   UNL     1      -3.965 -11.958   4.474  0.00  0.00    -0.086 HD
ATOM     14  H   UNL     1      -4.134 -10.352   4.155  0.00  0.00    -0.086 HD
ENDROOT
BRANCH  11  15
ATOM     15  C   UNL     1       1.618 -12.227   1.281  0.00  0.00    +0.087 A 
ATOM     16  C   UNL     1       0.775 -13.313   1.182  0.00  0.00    +0.063 A 
ATOM     17  S   UNL     1       1.579 -14.536   2.002  0.00  0.00    -0.081 S 
ATOM     18  C   UNL     1       3.048 -13.666   2.503  0.00  0.00    +0.120 A 
ATOM     19  C   UNL     1       2.858 -12.427   1.996  0.00  0.00    +0.158 A 
ATOM     20 CL   UNL     1       4.399 -14.264   3.414  0.00  0.00    -0.072 Cl
BRANCH  19  21
ATOM     21  O   UNL     1       3.772 -11.430   2.155  0.00  0.00    -0.492 OA
ATOM     22  C   UNL     1       3.639 -10.605   3.314  0.00  0.00    +0.277 C 
ENDBRANCH  19  21
ENDBRANCH  11  15
BRANCH   1  24
ATOM     23  N   UNL     1      -1.823  -6.736   2.357  0.00  0.00    -0.305 N 
ATOM     24  C   UNL     1      -1.041  -7.726   1.882  0.00  0.00    +0.219 C 
ATOM     25  O   UNL     1       0.135  -7.764   2.175  0.00  0.00    -0.275 OA
ATOM     26  H   UNL     1      -2.763  -6.706   2.122  0.00  0.00    +0.149 HD
BRANCH  23  27
ATOM     27  C   UNL     1      -1.252  -5.706   3.228  0.00  0.00    +0.136 C 
ATOM     28  C   UNL     1      -0.627  -4.603   2.373  0.00  0.00    +0.036 C 
BRANCH  27  37
ATOM     29  C   UNL     1      -5.628  -2.506   8.326  0.00  0.00    +0.044 C 
ATOM     30  C   UNL     1      -5.154  -3.208   7.080  0.00  0.00    -0.048 A 
ATOM     31  C   UNL     1      -6.071  -3.581   6.108  0.00  0.00    +0.005 A 
ATOM     32  C   UNL     1      -5.661  -4.219   4.971  0.00  0.00    +0.030 A 
ATOM     33  C   UNL     1      -4.305  -4.499   4.781  0.00  0.00    +0.089 A 
ATOM     34  C   UNL     1      -3.376  -4.121   5.765  0.00  0.00    +0.067 A 
ATOM     35  C   UNL     1      -3.811  -3.470   6.912  0.00  0.00    +0.031 A 
ATOM     36  N   UNL     1      -2.141  -4.526   5.299  0.00  0.00    -0.340 N 
ATOM     37  C   UNL     1      -2.339  -5.119   4.090  0.00  0.00    +0.128 A 
ATOM     38  N   UNL     1      -3.604  -5.103   3.787  0.00  0.00    -0.231 NA
ATOM     39  H   UNL     1      -1.290  -4.410   5.750  0.00  0.00    +0.167 HD
ENDBRANCH  27  37
ENDBRANCH  23  27
ENDBRANCH   1  24
TORSDOF 5
