REMARK  Name = ZINC22052848
REMARK  10 active torsions:
REMARK  status: ('A' for Active; 'I' for Inactive)
REMARK    1  A    between atoms: C_1  and  C_2
REMARK    2  A    between atoms: C_2  and  C_3
REMARK    3  A    between atoms: C_6  and  S_9
REMARK    4  A    between atoms: S_9  and  N_12
REMARK    5  A    between atoms: N_15  and  C_18
REMARK    6  A    between atoms: C_18  and  C_20
REMARK    7  A    between atoms: C_18  and  C_21
REMARK    8  A    between atoms: C_29  and  N_31
REMARK    9  A    between atoms: N_31  and  C_32
REMARK   10  A    between atoms: C_32  and  C_33
REMARK                            x       y       z     vdW  Elec       q    Type
REMARK                         _______ _______ _______ _____ _____    ______ ____
ROOT
ATOM      1  C   UNL     1       3.611  -0.696  -0.036  0.00  0.00    -0.004 C 
ATOM      2  C   UNL     1       3.685  -1.177   1.414  0.00  0.00    -0.005 C 
ENDROOT
BRANCH   1   3
ATOM      3  C   UNL     1       2.405   0.192  -0.209  0.00  0.00    +0.096 A 
ATOM      4  N   UNL     1       1.216  -0.361  -0.214  0.00  0.00    -0.344 N 
ATOM      5  C   UNL     1       0.116   0.392  -0.366  0.00  0.00    +0.051 A 
ATOM      6  C   UNL     1      -1.170  -0.165  -0.376  0.00  0.00    +0.026 A 
ATOM      7  C   UNL     1      -2.253   0.647  -0.532  0.00  0.00    +0.002 A 
ATOM      8  C   UNL     1      -2.104   2.022  -0.683  0.00  0.00    +0.001 A 
ATOM      9  C   UNL     1      -0.867   2.598  -0.674  0.00  0.00    +0.013 A 
ATOM     10  C   UNL     1       0.266   1.792  -0.520  0.00  0.00    +0.038 A 
ATOM     11  C   UNL     1       1.576   2.330  -0.506  0.00  0.00    +0.130 A 
ATOM     12  N   UNL     1       2.595   1.494  -0.349  0.00  0.00    -0.221 NA
ATOM     13  H   UNL     1       1.115  -1.450  -0.094  0.00  0.00    +0.167 HD
BRANCH  11  14
ATOM     14  N   UNL     1       1.788   3.684  -0.652  0.00  0.00    -0.324 N 
ATOM     15  H   UNL     1       0.932   4.363  -0.781  0.00  0.00    +0.148 HD
BRANCH  14  16
ATOM     16  C   UNL     1       3.151   4.219  -0.635  0.00  0.00    +0.138 C 
BRANCH  16  17
ATOM     17  C   UNL     1       3.106   5.715  -0.812  0.00  0.00    -0.030 A 
ATOM     18  C   UNL     1       3.161   6.263  -2.080  0.00  0.00    +0.005 A 
ATOM     19  C   UNL     1       3.114   7.635  -2.243  0.00  0.00    +0.000 A 
ATOM     20  C   UNL     1       3.025   8.459  -1.137  0.00  0.00    +0.000 A 
ATOM     21  C   UNL     1       2.976   7.912   0.131  0.00  0.00    +0.000 A 
ATOM     22  C   UNL     1       3.017   6.539   0.294  0.00  0.00    +0.005 A 
ENDBRANCH  16  17
ENDBRANCH  14  16
ENDBRANCH  11  14
ENDBRANCH   1   3
BRANCH   1  26
ATOM     23  N   UNL     1       4.082  -3.637  -2.993  0.00  0.00    -0.180 NA
ATOM     24  C   UNL     1       3.006  -2.655  -3.193  0.00  0.00    +0.091 C 
ATOM     25  C   UNL     1       3.298  -1.428  -2.323  0.00  0.00    -0.060 C 
ATOM     26  N   UNL     1       3.498  -1.855  -0.931  0.00  0.00    +0.388 N 
ATOM     27  C   UNL     1       4.670  -2.732  -0.807  0.00  0.00    -0.060 C 
ATOM     28  C   UNL     1       4.433  -4.012  -1.615  0.00  0.00    +0.091 C 
ATOM     29  H   UNL     1       2.613  -2.433  -0.629  0.00  0.00    -0.081 HD
BRANCH  23  30
ATOM     30  S   UNL     1       4.876  -4.303  -4.284  0.00  0.00    +0.061 S 
ATOM     31  O   UNL     1       5.405  -5.544  -3.839  0.00  0.00    -0.153 OA
ATOM     32  O   UNL     1       3.997  -4.205  -5.396  0.00  0.00    -0.153 OA
BRANCH  30  36
ATOM     33  C   UNL     1       8.419  -1.637  -5.197  0.00  0.00    -0.048 A 
ATOM     34  C   UNL     1       8.555  -2.688  -4.309  0.00  0.00    +0.005 A 
ATOM     35  C   UNL     1       7.473  -3.502  -4.030  0.00  0.00    +0.029 A 
ATOM     36  C   UNL     1       6.255  -3.265  -4.639  0.00  0.00    +0.105 A 
ATOM     37  C   UNL     1       6.120  -2.218  -5.531  0.00  0.00    +0.029 A 
ATOM     38  C   UNL     1       7.201  -1.401  -5.807  0.00  0.00    +0.005 A 
BRANCH  33  40
ATOM     39  C   UNL     1      10.373  -1.319  -6.689  0.00  0.00    +0.009 C 
ATOM     40  C   UNL     1       9.598  -0.749  -5.500  0.00  0.00    +0.032 C 
ENDBRANCH  33  40
ENDBRANCH  30  36
ENDBRANCH  23  30
ENDBRANCH   1  26
TORSDOF 8
