REMARK  Name = ZINC22834368
REMARK  7 active torsions:
REMARK  status: ('A' for Active; 'I' for Inactive)
REMARK    1  A    between atoms: C_1  and  O_2
REMARK    2  A    between atoms: O_2  and  C_3
REMARK    3  A    between atoms: C_4  and  C_11
REMARK    4  A    between atoms: N_13  and  C_14
REMARK    5  A    between atoms: C_14  and  N_16
REMARK    6  A    between atoms: N_16  and  C_17
REMARK    7  A    between atoms: C_26  and  O_27
REMARK                            x       y       z     vdW  Elec       q    Type
REMARK                         _______ _______ _______ _____ _____    ______ ____
ROOT
ATOM      1  C   UNL     1      -3.636  -0.867  -3.365  0.00  0.00    +0.141 C 
ATOM      2  S   UNL     1      -4.455  -0.425  -1.928  0.00  0.00    -0.018 S 
ENDROOT
BRANCH   1   5
ATOM      3  C   UNL     1      -1.646  -1.084  -2.164  0.00  0.00    +0.253 C 
ATOM      4  O   UNL     1      -2.228  -0.770  -1.143  0.00  0.00    -0.270 OA
ATOM      5  N   UNL     1      -2.319  -1.149  -3.330  0.00  0.00    -0.263 N 
ATOM      6  H   UNL     1      -1.855  -1.399  -4.144  0.00  0.00    +0.157 HD
BRANCH   3   8
ATOM      7  C   UNL     1       0.498  -1.326  -0.915  0.00  0.00    +0.146 A 
ATOM      8  C   UNL     1      -0.205  -1.393  -2.126  0.00  0.00    +0.081 A 
ATOM      9  C   UNL     1       0.467  -1.754  -3.296  0.00  0.00    +0.032 A 
ATOM     10  C   UNL     1       1.815  -2.042  -3.254  0.00  0.00    +0.020 A 
ATOM     11  C   UNL     1       2.507  -1.976  -2.054  0.00  0.00    +0.034 A 
ATOM     12  C   UNL     1       1.855  -1.614  -0.891  0.00  0.00    +0.061 A 
ATOM     13 BR   UNL     1       2.812  -1.518   0.737  0.00  0.00    -0.046 Br
ATOM     14 BR   UNL     1       2.724  -2.531  -4.838  0.00  0.00    -0.050 Br
BRANCH   7  16
ATOM     15  C   UNL     1      -0.188   0.415   0.548  0.00  0.00    +0.277 C 
ATOM     16  O   UNL     1      -0.144  -0.977   0.228  0.00  0.00    -0.493 OA
ENDBRANCH   7  16
ENDBRANCH   3   8
ENDBRANCH   1   5
BRANCH   1  17
ATOM     17  N   UNL     1      -4.309  -0.932  -4.531  0.00  0.00    -0.296 N 
ATOM     18  H   UNL     1      -3.833  -1.121  -5.355  0.00  0.00    +0.154 HD
BRANCH  17  19
ATOM     19  C   UNL     1      -5.690  -0.728  -4.553  0.00  0.00    +0.040 A 
ATOM     20  C   UNL     1      -6.245   0.345  -3.889  0.00  0.00    +0.024 A 
ATOM     21  C   UNL     1      -7.620   0.557  -3.905  0.00  0.00    +0.003 A 
ATOM     22  C   UNL     1      -8.454  -0.287  -4.574  0.00  0.00    +0.012 A 
ATOM     23  C   UNL     1      -7.928  -1.392  -5.263  0.00  0.00    +0.025 A 
ATOM     24  C   UNL     1      -6.529  -1.615  -5.260  0.00  0.00    +0.007 A 
ATOM     25  C   UNL     1      -6.005  -2.717  -5.953  0.00  0.00    +0.010 A 
ATOM     26  C   UNL     1      -6.842  -3.555  -6.625  0.00  0.00    +0.004 A 
ATOM     27  C   UNL     1      -8.217  -3.337  -6.637  0.00  0.00    +0.046 A 
ATOM     28  C   UNL     1      -8.767  -2.283  -5.964  0.00  0.00    +0.125 A 
BRANCH  28  29
ATOM     29  O   UNL     1     -10.110  -2.084  -5.984  0.00  0.00    -0.506 OA
ATOM     30  H   UNL     1     -10.415  -1.533  -6.717  0.00  0.00    +0.292 HD
ENDBRANCH  28  29
ENDBRANCH  17  19
ENDBRANCH   1  17
TORSDOF 6
