REMARK  Name = ZINC08616099
REMARK  4 active torsions:
REMARK  status: ('A' for Active; 'I' for Inactive)
REMARK    1  A    between atoms: C_1  and  N_2
REMARK    2  A    between atoms: N_7  and  C_10
REMARK    3  A    between atoms: N_15  and  N_16
REMARK    4  A    between atoms: C_17  and  C_18
REMARK                            x       y       z     vdW  Elec       q    Type
REMARK                         _______ _______ _______ _____ _____    ______ ____
ROOT
ATOM      1  C   UNL     1       4.335   1.722  -0.030  0.00  0.00    +0.155 C 
ATOM      2  N   UNL     1       3.470   0.540  -0.028  0.00  0.00    -0.281 N 
ATOM      3  C   UNL     1       2.103   0.698  -0.014  0.00  0.00    +0.149 A 
ATOM      4  C   UNL     1       1.292  -0.429  -0.013  0.00  0.00    +0.172 A 
ATOM      5  C   UNL     1       1.931  -1.745  -0.026  0.00  0.00    +0.284 A 
ATOM      6  O   UNL     1       1.261  -2.762  -0.025  0.00  0.00    -0.265 OA
ATOM      7  N   UNL     1       3.280  -1.806  -0.039  0.00  0.00    -0.262 N 
ATOM      8  C   UNL     1       4.022  -0.686  -0.040  0.00  0.00    +0.333 A 
ATOM      9  O   UNL     1       5.234  -0.785  -0.052  0.00  0.00    -0.246 OA
ATOM     10  C   UNL     1       3.943  -3.112  -0.052  0.00  0.00    +0.157 C 
ATOM     11  N   UNL     1       0.002  -0.004   0.002  0.00  0.00    -0.206 NA
ATOM     12  C   UNL     1      -0.016   1.305   0.009  0.00  0.00    +0.215 A 
ATOM     13  N   UNL     1       1.270   1.776  -0.001  0.00  0.00    -0.311 N 
ATOM     14  H   UNL     1       1.548   2.737   0.002  0.00  0.00    +0.170 HD
ATOM     15  N   UNL     1      -1.155   2.090   0.019  0.00  0.00    -0.207 N 
ATOM     16  H   UNL     1      -1.078   3.057   0.024  0.00  0.00    +0.177 HD
ENDROOT
BRANCH  15  17
ATOM     17  N   UNL     1      -2.420   1.488   0.022  0.00  0.00    -0.188 NA
ATOM     18  C   UNL     1      -3.489   2.224   0.032  0.00  0.00    +0.139 C 
BRANCH  18  19
ATOM     19  C   UNL     1      -4.821   1.591   0.035  0.00  0.00    +0.008 A 
ATOM     20  C   UNL     1      -5.974   2.380   0.051  0.00  0.00    +0.010 A 
ATOM     21  C   UNL     1      -7.216   1.781   0.051  0.00  0.00    +0.001 A 
ATOM     22  C   UNL     1      -7.322   0.401   0.044  0.00  0.00    +0.001 A 
ATOM     23  C   UNL     1      -6.186  -0.388   0.033  0.00  0.00    +0.016 A 
ATOM     24  C   UNL     1      -4.936   0.198   0.029  0.00  0.00    +0.027 A 
ATOM     25 BR   UNL     1      -3.383  -0.881   0.015  0.00  0.00    -0.050 Br
ENDBRANCH  18  19
ENDBRANCH  15  17
TORSDOF 2
