REMARK  Name = ZINC32107162
REMARK  11 active torsions:
REMARK  status: ('A' for Active; 'I' for Inactive)
REMARK    1  A    between atoms: C_1  and  C_2
REMARK    2  A    between atoms: C_2  and  O_3
REMARK    3  A    between atoms: O_3  and  C_4
REMARK    4  A    between atoms: C_4  and  C_6
REMARK    5  A    between atoms: C_7  and  N_17
REMARK    6  A    between atoms: C_18  and  C_36
REMARK    7  A    between atoms: C_20  and  C_23
REMARK    8  A    between atoms: C_21  and  C_22
REMARK    9  A    between atoms: N_24  and  N_25
REMARK   10  A    between atoms: N_28  and  C_29
REMARK   11  A    between atoms: C_32  and  C_35
REMARK                            x       y       z     vdW  Elec       q    Type
REMARK                         _______ _______ _______ _____ _____    ______ ____
ROOT
ATOM      1  N   UNL     1       3.048  -4.512   0.489  0.00  0.00    -0.311 N 
ATOM      2  C   UNL     1       4.415  -4.476   0.543  0.00  0.00    +0.022 A 
ATOM      3  C   UNL     1       4.818  -3.195   0.476  0.00  0.00    +0.032 A 
ATOM      4  C   UNL     1       3.605  -2.377   0.372  0.00  0.00    +0.016 A 
ATOM      5  C   UNL     1       2.553  -3.245   0.392  0.00  0.00    +0.030 A 
ATOM      6  C   UNL     1       1.096  -2.868   0.316  0.00  0.00    +0.064 C 
ATOM      7  C   UNL     1       5.320  -5.675   0.658  0.00  0.00    +0.064 C 
ENDROOT
BRANCH   1   9
ATOM      8  C   UNL     1       2.168  -6.627  -0.443  0.00  0.00    +0.071 C 
ATOM      9  C   UNL     1       2.281  -5.663   0.532  0.00  0.00    +0.091 C 
ATOM     10  S   UNL     1       1.217  -6.213   1.868  0.00  0.00    -0.103 S 
ATOM     11  C   UNL     1       0.257  -7.412   0.920  0.00  0.00    +0.061 C 
ATOM     12  C   UNL     1       1.327  -7.818  -0.135  0.00  0.00    +0.042 C 
ATOM     13  C   UNL     1       0.507  -8.399  -1.291  0.00  0.00    +0.009 C 
ATOM     14  C   UNL     1      -0.142  -9.681  -0.742  0.00  0.00    +0.001 C 
ATOM     15  C   UNL     1      -1.020  -9.427   0.478  0.00  0.00    +0.001 C 
ATOM     16  C   UNL     1      -0.263  -8.646   1.577  0.00  0.00    +0.015 C 
BRANCH   8  17
ATOM     17  C   UNL     1       2.823  -6.496  -1.677  0.00  0.00    +0.338 C 
ATOM     18  O   UNL     1       3.508  -5.514  -1.902  0.00  0.00    -0.245 OA
BRANCH  17  19
ATOM     19  O   UNL     1       2.693  -7.459  -2.616  0.00  0.00    -0.462 OA
BRANCH  19  21
ATOM     20  C   UNL     1       3.123  -8.445  -4.780  0.00  0.00    +0.048 C 
ATOM     21  C   UNL     1       3.387  -7.260  -3.849  0.00  0.00    +0.229 C 
ENDBRANCH  19  21
ENDBRANCH  17  19
ENDBRANCH   8  17
ENDBRANCH   1   9
BRANCH   4  22
ATOM     22  C   UNL     1       3.536  -0.907   0.274  0.00  0.00    +0.140 C 
ATOM     23  N   UNL     1       2.384  -0.316   0.188  0.00  0.00    -0.186 NA
BRANCH  23  24
ATOM     24  N   UNL     1       2.319   1.081   0.095  0.00  0.00    -0.191 N 
ATOM     25  C   UNL     1       1.123   1.695   0.006  0.00  0.00    +0.323 C 
ATOM     26  O   UNL     1       1.066   2.907  -0.076  0.00  0.00    -0.251 OA
ATOM     27  N   UNL     1      -0.011   0.966   0.007  0.00  0.00    -0.268 N 
ATOM     28  H   UNL     1       3.244   1.676   0.093  0.00  0.00    +0.179 HD
ATOM     29  H   UNL     1       0.042  -0.133   0.009  0.00  0.00    +0.156 HD
BRANCH  27  30
ATOM     30  C   UNL     1      -1.255   1.607   0.007  0.00  0.00    +0.035 A 
ATOM     31  C   UNL     1      -2.325   1.049   0.695  0.00  0.00    +0.023 A 
ATOM     32  C   UNL     1      -3.550   1.687   0.697  0.00  0.00    +0.005 A 
ATOM     33  C   UNL     1      -3.715   2.873   0.007  0.00  0.00    -0.050 A 
ATOM     34  C   UNL     1      -2.653   3.429  -0.683  0.00  0.00    +0.005 A 
ATOM     35  C   UNL     1      -1.424   2.799  -0.685  0.00  0.00    +0.023 A 
ATOM     36  C   UNL     1      -5.055   3.563   0.006  0.00  0.00    +0.044 C 
ENDBRANCH  27  30
ENDBRANCH  23  24
ENDBRANCH   4  22
TORSDOF 7
