REMARK  Name = ZINC52792174
REMARK  10 active torsions:
REMARK  status: ('A' for Active; 'I' for Inactive)
REMARK    1  A    between atoms: C_1  and  C_2
REMARK    2  A    between atoms: C_2  and  O_3
REMARK    3  A    between atoms: O_3  and  C_4
REMARK    4  A    between atoms: C_5  and  N_12
REMARK    5  A    between atoms: C_13  and  C_15
REMARK    6  A    between atoms: C_15  and  C_17
REMARK    7  A    between atoms: C_15  and  N_21
REMARK    8  A    between atoms: C_17  and  C_18
REMARK    9  A    between atoms: C_18  and  O_19
REMARK   10  A    between atoms: O_19  and  C_20
REMARK                            x       y       z     vdW  Elec       q    Type
REMARK                         _______ _______ _______ _____ _____    ______ ____
ROOT
ATOM      1  N   UNL     1       2.879  -1.791  -0.137  0.00  0.00    -0.284 N 
ATOM      2  C   UNL     1       3.892  -2.462   0.447  0.00  0.00    +0.203 C 
ATOM      3  O   UNL     1       3.987  -3.663   0.304  0.00  0.00    -0.277 OA
ATOM      4  H   UNL     1       2.840  -0.824  -0.076  0.00  0.00    +0.155 HD
ENDROOT
BRANCH   1   6
ATOM      5  C   UNL     1       0.568  -2.035  -0.814  0.00  0.00    +0.156 A 
ATOM      6  C   UNL     1       1.884  -2.491  -0.832  0.00  0.00    +0.078 A 
ATOM      7  C   UNL     1       2.207  -3.639  -1.539  0.00  0.00    +0.047 A 
ATOM      8  C   UNL     1       1.223  -4.329  -2.225  0.00  0.00    +0.044 A 
ATOM      9  C   UNL     1      -0.084  -3.875  -2.207  0.00  0.00    +0.039 A 
ATOM     10  C   UNL     1      -0.414  -2.733  -1.499  0.00  0.00    +0.063 A 
ATOM     11 BR   UNL     1      -2.203  -2.122  -1.470  0.00  0.00    -0.046 Br
ATOM     12 CL   UNL     1       1.629  -5.766  -3.110  0.00  0.00    -0.083 Cl
BRANCH   5  13
ATOM     13  O   UNL     1       0.246  -0.910  -0.121  0.00  0.00    -0.489 OA
BRANCH  13  15
ATOM     14  C   UNL     1      -0.455   0.290   1.857  0.00  0.00    +0.048 C 
ATOM     15  C   UNL     1      -0.131  -1.076   1.247  0.00  0.00    +0.226 C 
ENDBRANCH  13  15
ENDBRANCH   5  13
ENDBRANCH   1   6
BRANCH   2  16
ATOM     16  C   UNL     1       4.907  -1.720   1.279  0.00  0.00    +0.015 C 
BRANCH  16  17
ATOM     17  N   UNL     1       5.593  -2.664   2.171  0.00  0.00    +0.386 N 
ATOM     18  H   UNL     1       6.272  -2.168   2.728  0.00  0.00    -0.089 HD
ATOM     19  H   UNL     1       4.918  -3.105   2.778  0.00  0.00    -0.089 HD
ATOM     20  H   UNL     1       6.060  -3.369   1.620  0.00  0.00    -0.089 HD
ENDBRANCH  16  17
BRANCH  16  21
ATOM     21  C   UNL     1       5.930  -1.053   0.358  0.00  0.00    +0.021 C 
BRANCH  21  22
ATOM     22  C   UNL     1       6.886  -0.198   1.193  0.00  0.00    +0.158 C 
BRANCH  22  23
ATOM     23  O   UNL     1       7.843   0.425   0.334  0.00  0.00    -0.383 OA
ATOM     24  C   UNL     1       8.788   1.250   1.018  0.00  0.00    +0.193 C 
ENDBRANCH  22  23
ENDBRANCH  21  22
ENDBRANCH  16  21
ENDBRANCH   2  16
TORSDOF 8
