REMARK  Name = ZINC10735448
REMARK  6 active torsions:
REMARK  status: ('A' for Active; 'I' for Inactive)
REMARK    1  A    between atoms: C_1  and  C_2
REMARK    2  A    between atoms: N_11  and  C_15
REMARK    3  A    between atoms: C_15  and  C_16
REMARK    4  A    between atoms: N_18  and  N_19
REMARK    5  A    between atoms: C_20  and  C_22
REMARK    6  A    between atoms: C_25  and  C_27
REMARK                            x       y       z     vdW  Elec       q    Type
REMARK                         _______ _______ _______ _____ _____    ______ ____
ROOT
ATOM      1  C   UNL     1      -2.969   0.347   5.573  0.00  0.00    +0.247 C 
ATOM      2  O   UNL     1      -1.778   0.378   5.343  0.00  0.00    -0.273 OA
ATOM      3  N   UNL     1      -3.409   0.315   6.847  0.00  0.00    -0.233 N 
ATOM      4  H   UNL     1      -4.361   0.290   7.030  0.00  0.00    +0.173 HD
ENDROOT
BRANCH   3   5
ATOM      5  N   UNL     1      -2.490   0.319   7.905  0.00  0.00    -0.230 N 
ATOM      6  C   UNL     1      -2.930   0.287   9.179  0.00  0.00    +0.267 C 
ATOM      7  O   UNL     1      -4.125   0.255   9.409  0.00  0.00    -0.268 OA
ATOM      8  H   UNL     1      -1.538   0.344   7.721  0.00  0.00    +0.173 HD
BRANCH   6   9
ATOM      9  C   UNL     1      -1.971   0.290  10.285  0.00  0.00    +0.076 A 
ATOM     10  C   UNL     1      -2.215   0.268  11.651  0.00  0.00    +0.021 A 
ATOM     11  C   UNL     1      -1.150   0.273  12.507  0.00  0.00    +0.017 A 
ATOM     12  C   UNL     1       0.131   0.312  11.979  0.00  0.00    +0.020 A 
ATOM     13  S   UNL     1      -0.187   0.333  10.223  0.00  0.00    -0.084 S 
BRANCH  12  14
ATOM     14  C   UNL     1       1.427   0.330  12.688  0.00  0.00    -0.011 A 
ATOM     15  C   UNL     1       1.462   0.313  14.084  0.00  0.00    +0.012 A 
ATOM     16  C   UNL     1       2.675   0.325  14.741  0.00  0.00    +0.039 A 
ATOM     17  C   UNL     1       3.857   0.365  14.018  0.00  0.00    +0.123 A 
ATOM     18  C   UNL     1       3.827   0.387  12.632  0.00  0.00    +0.039 A 
ATOM     19  C   UNL     1       2.620   0.370  11.966  0.00  0.00    +0.012 A 
ATOM     20  F   UNL     1       5.042   0.382  14.666  0.00  0.00    -0.205 F 
ENDBRANCH  12  14
ENDBRANCH   6   9
ENDBRANCH   3   5
BRANCH   1  21
ATOM     21  C   UNL     1      -3.956   0.343   4.435  0.00  0.00    +0.215 C 
BRANCH  21  31
ATOM     22  C   UNL     1      -0.002   1.056   2.507  0.00  0.00    +0.010 C 
ATOM     23  C   UNL     1      -0.730   1.580   1.267  0.00  0.00    +0.018 C 
ATOM     24  C   UNL     1      -0.013   1.086   0.008  0.00  0.00    +0.006 C 
ATOM     25  C   UNL     1      -0.753   1.593  -1.231  0.00  0.00    +0.000 C 
ATOM     26  C   UNL     1      -2.186   1.056  -1.227  0.00  0.00    +0.003 C 
ATOM     27  C   UNL     1      -2.911   1.550   0.027  0.00  0.00    +0.035 C 
ATOM     28  C   UNL     1      -2.167   1.069   1.268  0.00  0.00    +0.115 C 
ATOM     29  C   UNL     1      -2.885   1.517   2.521  0.00  0.00    +0.247 C 
ATOM     30  O   UNL     1      -3.102   2.655   2.875  0.00  0.00    -0.273 OA
ATOM     31  N   UNL     1      -3.233   0.381   3.161  0.00  0.00    -0.215 N 
ATOM     32  C   UNL     1      -2.836  -0.706   2.489  0.00  0.00    +0.310 C 
ATOM     33  O   UNL     1      -3.035  -1.844   2.866  0.00  0.00    -0.252 OA
ATOM     34  N   UNL     1      -2.191  -0.397   1.347  0.00  0.00    -0.285 N 
ATOM     35  H   UNL     1      -1.817  -1.020   0.705  0.00  0.00    +0.151 HD
ENDBRANCH  21  31
ENDBRANCH   1  21
TORSDOF 5
