REMARK  Name = ZINC64625955
REMARK  7 active torsions:
REMARK  status: ('A' for Active; 'I' for Inactive)
REMARK    1  A    between atoms: C_7  and  C_10
REMARK    2  A    between atoms: C_10  and  C_11
REMARK    3  A    between atoms: C_11  and  C_12
REMARK    4  A    between atoms: C_21  and  C_25
REMARK    5  A    between atoms: C_25  and  C_26
REMARK    6  A    between atoms: C_26  and  N_27
REMARK    7  A    between atoms: C_28  and  C_30
REMARK                            x       y       z     vdW  Elec       q    Type
REMARK                         _______ _______ _______ _____ _____    ______ ____
ROOT
ATOM      1  C   UNL     1      -0.484  -4.830  -1.460  0.00  0.00    +0.216 C 
ATOM      2  O   UNL     1      -0.925  -5.254  -0.412  0.00  0.00    -0.276 OA
ATOM      3  N   UNL     1      -0.837  -5.413  -2.623  0.00  0.00    -0.300 N 
ATOM      4  C   UNL     1      -1.750  -6.536  -2.544  0.00  0.00    +0.111 C 
ATOM      5  C   UNL     1      -3.191  -6.057  -2.676  0.00  0.00    +0.062 C 
ATOM      6  C   UNL     1      -3.517  -5.928  -4.177  0.00  0.00    +0.178 C 
ATOM      7  N   UNL     1      -3.773  -7.240  -4.778  0.00  0.00    -0.247 N 
ATOM      8  N   UNL     1      -2.982  -7.264  -5.937  0.00  0.00    -0.175 NA
ATOM      9  C   UNL     1      -2.230  -6.230  -6.009  0.00  0.00    +0.118 C 
ATOM     10  N   UNL     1      -2.384  -5.380  -4.895  0.00  0.00    -0.296 N 
ATOM     11  C   UNL     1      -1.459  -4.293  -4.640  0.00  0.00    +0.127 C 
ATOM     12  C   UNL     1      -0.273  -4.854  -3.833  0.00  0.00    +0.126 C 
ATOM     13  H   UNL     1      -4.360  -7.938  -4.447  0.00  0.00    +0.170 HD
ENDROOT
BRANCH   1  14
ATOM     14  C   UNL     1       0.457  -3.653  -1.462  0.00  0.00    +0.100 C 
BRANCH  14  15
ATOM     15  C   UNL     1       0.691  -3.186  -0.024  0.00  0.00    +0.042 C 
BRANCH  15  22
ATOM     16  C   UNL     1      -0.016   1.348   0.009  0.00  0.00    +0.001 A 
ATOM     17  C   UNL     1       1.166   2.101   0.002  0.00  0.00    +0.002 A 
ATOM     18  C   UNL     1       2.391   1.535  -0.013  0.00  0.00    +0.026 A 
ATOM     19  C   UNL     1       2.529   0.120  -0.022  0.00  0.00    +0.043 A 
ATOM     20  N   UNL     1       3.587  -0.654  -0.037  0.00  0.00    -0.380 N 
ATOM     21  C   UNL     1       3.143  -2.053  -0.041  0.00  0.00    +0.144 C 
ATOM     22  C   UNL     1       1.631  -2.008  -0.025  0.00  0.00    -0.041 C 
ATOM     23  C   UNL     1       1.295  -0.698  -0.014  0.00  0.00    -0.001 A 
ATOM     24  C   UNL     1       0.002  -0.004   0.002  0.00  0.00    +0.010 A 
ATOM     25  H   UNL     1       4.509  -0.353  -0.045  0.00  0.00    +0.160 HD
ENDBRANCH  15  22
ENDBRANCH  14  15
ENDBRANCH   1  14
BRANCH   9  26
ATOM     26  C   UNL     1      -1.290  -5.954  -7.153  0.00  0.00    +0.092 C 
BRANCH  26  27
ATOM     27  C   UNL     1      -1.388  -7.085  -8.179  0.00  0.00    +0.111 C 
BRANCH  27  28
ATOM     28  N   UNL     1      -0.473  -6.816  -9.291  0.00  0.00    -0.315 N 
ATOM     29  C   UNL     1      -0.390  -7.683 -10.320  0.00  0.00    +0.216 C 
ATOM     30  O   UNL     1      -1.072  -8.686 -10.324  0.00  0.00    -0.276 OA
ATOM     31  H   UNL     1       0.072  -6.014  -9.288  0.00  0.00    +0.149 HD
BRANCH  29  32
ATOM     32  C   UNL     1       0.551  -7.407 -11.464  0.00  0.00    +0.075 C 
ATOM     33  C   UNL     1       0.171  -6.082 -12.128  0.00  0.00    +0.013 C 
ATOM     34  C   UNL     1       1.125  -5.801 -13.290  0.00  0.00    +0.001 C 
ATOM     35  C   UNL     1       1.027  -6.932 -14.316  0.00  0.00    +0.000 C 
ATOM     36  C   UNL     1       1.408  -8.257 -13.652  0.00  0.00    +0.001 C 
ATOM     37  C   UNL     1       0.453  -8.538 -12.490  0.00  0.00    +0.013 C 
ENDBRANCH  29  32
ENDBRANCH  27  28
ENDBRANCH  26  27
ENDBRANCH   9  26
TORSDOF 7
