REMARK  Name = ZINC67153190
REMARK  7 active torsions:
REMARK  status: ('A' for Active; 'I' for Inactive)
REMARK    1  A    between atoms: C_1  and  C_2
REMARK    2  A    between atoms: C_5  and  C_12
REMARK    3  A    between atoms: C_8  and  C_10
REMARK    4  A    between atoms: C_8  and  C_11
REMARK    5  A    between atoms: C_12  and  C_13
REMARK    6  A    between atoms: N_19  and  C_22
REMARK    7  A    between atoms: C_22  and  C_23
REMARK                            x       y       z     vdW  Elec       q    Type
REMARK                         _______ _______ _______ _____ _____    ______ ____
ROOT
ATOM      1  C   UNL     1      -4.194  -0.009   0.931  0.00  0.00    +0.216 C 
ATOM      2  O   UNL     1      -3.655   0.890   0.320  0.00  0.00    -0.276 OA
ATOM      3  N   UNL     1      -5.423  -0.426   0.571  0.00  0.00    -0.303 N 
ATOM      4  C   UNL     1      -6.057  -1.519   1.337  0.00  0.00    +0.106 C 
ATOM      5  C   UNL     1      -7.551  -1.232   1.577  0.00  0.00    +0.000 C 
ATOM      6  C   UNL     1      -7.737   0.235   1.893  0.00  0.00    -0.077 C 
ATOM      7  N   UNL     1      -8.043   0.959   0.661  0.00  0.00    +0.386 N 
ATOM      8  C   UNL     1      -6.916   1.414  -0.058  0.00  0.00    -0.059 C 
ATOM      9  C   UNL     1      -6.079   0.216  -0.549  0.00  0.00    +0.089 C 
ATOM     10  H   UNL     1      -8.580   0.352   0.060  0.00  0.00    -0.081 HD
ENDROOT
BRANCH   1  11
ATOM     11  C   UNL     1      -3.487  -0.659   2.093  0.00  0.00    +0.099 C 
BRANCH  11  15
ATOM     12  C   UNL     1       0.052   1.856   1.018  0.00  0.00    +0.007 C 
ATOM     13  C   UNL     1       0.131   0.344   1.225  0.00  0.00    -0.013 C 
ATOM     14  C   UNL     1      -1.244  -0.291   1.068  0.00  0.00    +0.007 C 
ATOM     15  C   UNL     1      -2.115  -0.003   2.289  0.00  0.00    -0.002 C 
ATOM     16  C   UNL     1      -1.447  -0.600   3.525  0.00  0.00    +0.010 C 
ATOM     17  C   UNL     1      -0.084   0.039   3.766  0.00  0.00    -0.034 C 
ATOM     18  C   UNL     1       0.804  -0.009   2.536  0.00  0.00    +0.009 C 
ATOM     19  C   UNL     1      -0.259   1.477   4.261  0.00  0.00    +0.011 C 
ATOM     20  C   UNL     1       0.615  -0.755   4.891  0.00  0.00    +0.011 C 
ENDBRANCH  11  15
ENDBRANCH   1  11
BRANCH   7  21
ATOM     21  C   UNL     1      -8.876   2.120   1.001  0.00  0.00    +0.018 C 
BRANCH  21  22
ATOM     22  C   UNL     1     -10.216   1.648   1.504  0.00  0.00    +0.194 C 
ATOM     23  O   UNL     1     -10.494   0.468   1.472  0.00  0.00    -0.278 OA
ATOM     24  N   UNL     1     -11.106   2.537   1.988  0.00  0.00    -0.331 N 
ATOM     25  H   UNL     1     -10.883   3.481   2.013  0.00  0.00    +0.145 HD
ATOM     26  H   UNL     1     -11.968   2.233   2.312  0.00  0.00    +0.145 HD
ENDBRANCH  21  22
ENDBRANCH   7  21
TORSDOF 4
