REMARK  Name = ZINC08456159
REMARK  10 active torsions:
REMARK  status: ('A' for Active; 'I' for Inactive)
REMARK    1  A    between atoms: C_1  and  C_2
REMARK    2  A    between atoms: C_2  and  O_3
REMARK    3  A    between atoms: O_3  and  C_4
REMARK    4  A    between atoms: C_7  and  N_13
REMARK    5  A    between atoms: C_8  and  N_10
REMARK    6  A    between atoms: C_16  and  C_23
REMARK    7  A    between atoms: C_18  and  C_21
REMARK    8  A    between atoms: C_19  and  N_20
REMARK    9  A    between atoms: C_26  and  C_29
REMARK   10  A    between atoms: C_33  and  C_36
REMARK                            x       y       z     vdW  Elec       q    Type
REMARK                         _______ _______ _______ _____ _____    ______ ____
ROOT
ATOM      1  N   UNL     1      -2.429   1.038   0.019  0.00  0.00    -0.258 N 
ATOM      2  C   UNL     1      -3.021   0.701  -1.169  0.00  0.00    +0.025 C 
ATOM      3  C   UNL     1      -3.932  -0.296  -1.225  0.00  0.00    +0.025 C 
ATOM      4  C   UNL     1      -4.316  -1.065   0.014  0.00  0.00    +0.097 C 
ATOM      5  C   UNL     1      -3.925  -0.321   1.257  0.00  0.00    +0.077 C 
ATOM      6  C   UNL     1      -3.010   0.682   1.215  0.00  0.00    +0.107 C 
ATOM      7  C   UNL     1      -4.553  -0.641  -2.437  0.00  0.00    +0.162 C 
ATOM      8  O   UNL     1      -5.366  -1.545  -2.454  0.00  0.00    -0.292 OA
ATOM      9  C   UNL     1      -4.232   0.086  -3.714  0.00  0.00    +0.088 C 
ATOM     10  C   UNL     1      -3.802   1.518  -3.378  0.00  0.00    +0.032 C 
ATOM     11  C   UNL     1      -2.618   1.454  -2.412  0.00  0.00    +0.060 C 
ENDROOT
BRANCH   4  12
ATOM     12  C   UNL     1      -3.623  -2.403   0.000  0.00  0.00    -0.035 A 
ATOM     13  C   UNL     1      -2.242  -2.466   0.007  0.00  0.00    +0.005 A 
ATOM     14  C   UNL     1      -1.606  -3.693  -0.001  0.00  0.00    +0.003 A 
ATOM     15  C   UNL     1      -2.350  -4.857  -0.025  0.00  0.00    -0.050 A 
ATOM     16  C   UNL     1      -3.731  -4.794  -0.037  0.00  0.00    +0.003 A 
ATOM     17  C   UNL     1      -4.367  -3.567  -0.024  0.00  0.00    +0.005 A 
ATOM     18  C   UNL     1      -1.657  -6.195  -0.040  0.00  0.00    +0.044 C 
ENDBRANCH   4  12
BRANCH   1  22
ATOM     19  C   UNL     1       1.155   3.170   0.009  0.00  0.00    +0.123 A 
ATOM     20  C   UNL     1       1.173   1.782   0.000  0.00  0.00    +0.047 A 
ATOM     21  C   UNL     1      -0.013   1.076   0.008  0.00  0.00    +0.029 A 
ATOM     22  C   UNL     1      -1.225   1.754   0.017  0.00  0.00    +0.070 A 
ATOM     23  C   UNL     1      -1.242   3.142   0.030  0.00  0.00    +0.151 A 
ATOM     24  C   UNL     1      -0.055   3.848   0.023  0.00  0.00    +0.080 A 
BRANCH  23  25
ATOM     25  N   UNL     1      -2.534   3.866   0.046  0.00  0.00    +0.058 N 
ATOM     26  O   UNL     1      -2.549   5.084   0.053  0.00  0.00    -0.126 OA
ATOM     27  O   UNL     1      -3.581   3.244   0.052  0.00  0.00    -0.126 OA
ENDBRANCH  23  25
BRANCH  19  28
ATOM     28  O   UNL     1       2.323   3.865   0.002  0.00  0.00    -0.492 OA
BRANCH  28  30
ATOM     29  C   UNL     1       4.732   4.051  -0.020  0.00  0.00    +0.048 C 
ATOM     30  C   UNL     1       3.532   3.103  -0.014  0.00  0.00    +0.225 C 
ENDBRANCH  28  30
ENDBRANCH  19  28
ENDBRANCH   1  22
BRANCH  10  31
ATOM     31  C   UNL     1      -3.389   2.231  -4.640  0.00  0.00    -0.044 A 
ATOM     32  C   UNL     1      -2.340   1.744  -5.397  0.00  0.00    +0.004 A 
ATOM     33  C   UNL     1      -1.963   2.396  -6.556  0.00  0.00    +0.000 A 
ATOM     34  C   UNL     1      -2.630   3.541  -6.953  0.00  0.00    +0.000 A 
ATOM     35  C   UNL     1      -3.675   4.030  -6.193  0.00  0.00    +0.000 A 
ATOM     36  C   UNL     1      -4.054   3.376  -5.036  0.00  0.00    +0.004 A 
ENDBRANCH  10  31
BRANCH   6  37
ATOM     37  N   UNL     1      -2.663   1.343   2.369  0.00  0.00    -0.345 N 
ATOM     38  H   UNL     1      -2.010   2.059   2.341  0.00  0.00    +0.144 HD
ATOM     39  H   UNL     1      -3.072   1.093   3.213  0.00  0.00    +0.144 HD
ENDBRANCH   6  37
BRANCH   5  40
ATOM     40  C   UNL     1      -4.527  -0.674   2.507  0.00  0.00    +0.099 C 
ATOM     41  N   UNL     1      -5.004  -0.954   3.500  0.00  0.00    -0.191 NA
ENDBRANCH   5  40
TORSDOF 8
