REMARK  Name = ZINC06146292
REMARK  13 active torsions:
REMARK  status: ('A' for Active; 'I' for Inactive)
REMARK    1  A    between atoms: C_1  and  C_2
REMARK    2  A    between atoms: C_2  and  O_3
REMARK    3  A    between atoms: O_3  and  C_4
REMARK    4  A    between atoms: C_9  and  S_10
REMARK    5  A    between atoms: S_10  and  N_13
REMARK    6  A    between atoms: N_13  and  C_14
REMARK    7  A    between atoms: C_17  and  C_20
REMARK    8  A    between atoms: C_20  and  O_31
REMARK    9  A    between atoms: N_21  and  C_22
REMARK   10  A    between atoms: C_24  and  C_29
REMARK   11  A    between atoms: C_24  and  C_30
REMARK   12  A    between atoms: C_25  and  C_27
REMARK   13  A    between atoms: C_25  and  C_28
REMARK                            x       y       z     vdW  Elec       q    Type
REMARK                         _______ _______ _______ _____ _____    ______ ____
ROOT
ATOM      1  C   UNL     1      -3.864   3.498  -0.200  0.00  0.00    +0.048 A 
ATOM      2  C   UNL     1      -3.853   2.115  -0.351  0.00  0.00    +0.025 A 
ATOM      3  C   UNL     1      -2.660   1.450  -0.527  0.00  0.00    +0.015 A 
ATOM      4  C   UNL     1      -1.461   2.165  -0.554  0.00  0.00    +0.036 A 
ATOM      5  C   UNL     1      -1.475   3.552  -0.396  0.00  0.00    +0.015 A 
ATOM      6  C   UNL     1      -2.671   4.213  -0.226  0.00  0.00    +0.025 A 
ENDROOT
BRANCH   1   7
ATOM      7  N   UNL     1      -5.072   4.168  -0.023  0.00  0.00    -0.216 N 
ATOM      8  H   UNL     1      -5.829   3.963  -0.594  0.00  0.00    +0.174 HD
BRANCH   7   9
ATOM      9  S   UNL     1      -5.216   5.315   1.163  0.00  0.00    +0.076 S 
ATOM     10  O   UNL     1      -6.554   5.792   1.107  0.00  0.00    -0.150 OA
ATOM     11  O   UNL     1      -4.657   4.753   2.342  0.00  0.00    -0.150 OA
BRANCH   9  17
ATOM     12  C   UNL     1      -4.457   7.399  -0.436  0.00  0.00    +0.147 A 
ATOM     13  C   UNL     1      -3.641   8.463  -0.790  0.00  0.00    +0.049 A 
ATOM     14  C   UNL     1      -2.554   8.791  -0.003  0.00  0.00    +0.019 A 
ATOM     15  C   UNL     1      -2.280   8.059   1.139  0.00  0.00    +0.020 A 
ATOM     16  C   UNL     1      -3.096   7.001   1.497  0.00  0.00    +0.047 A 
ATOM     17  C   UNL     1      -4.181   6.667   0.709  0.00  0.00    +0.151 A 
ATOM     18 BR   UNL     1      -0.792   8.511   2.215  0.00  0.00    -0.050 Br
BRANCH  12  19
ATOM     19  O   UNL     1      -5.527   7.075  -1.208  0.00  0.00    -0.490 OA
BRANCH  19  21
ATOM     20  C   UNL     1      -7.118   7.490  -2.980  0.00  0.00    +0.048 C 
ATOM     21  C   UNL     1      -5.821   7.942  -2.306  0.00  0.00    +0.226 C 
ENDBRANCH  19  21
ENDBRANCH  12  19
ENDBRANCH   9  17
ENDBRANCH   7   9
ENDBRANCH   1   7
BRANCH   4  22
ATOM     22  C   UNL     1      -0.179   1.454  -0.742  0.00  0.00    +0.215 C 
ATOM     23  N   UNL     1       0.937   2.122  -0.772  0.00  0.00    -0.247 NA
BRANCH  23  24
ATOM     24  C   UNL     1       2.210   1.416  -0.966  0.00  0.00    +0.106 C 
ATOM     25  C   UNL     1       3.120   1.682   0.233  0.00  0.00    +0.014 C 
ATOM     26  C   UNL     1       4.461   0.976   0.048  0.00  0.00    -0.071 C 
ATOM     27  C   UNL     1       4.234   1.248  -2.438  0.00  0.00    -0.071 C 
ATOM     28  C   UNL     1       2.895   1.948  -2.224  0.00  0.00    +0.014 C 
ATOM     29  C   UNL     1       3.991  -0.170  -2.970  0.00  0.00    -0.010 C 
ATOM     30  C   UNL     1       4.995   2.023  -3.536  0.00  0.00    -0.010 C 
ATOM     31  C   UNL     1       4.287  -0.527   0.298  0.00  0.00    -0.010 C 
ATOM     32  C   UNL     1       5.422   1.511   1.133  0.00  0.00    -0.010 C 
ATOM     33  N   UNL     1       5.133   1.238  -1.253  0.00  0.00    +0.386 N 
ATOM     34  H   UNL     1       5.841   0.509  -1.397  0.00  0.00    -0.084 HD
ATOM     35  H   UNL     1       5.592   2.154  -1.194  0.00  0.00    -0.084 HD
ENDBRANCH  23  24
BRANCH  22  36
ATOM     36  O   UNL     1      -0.167   0.109  -0.889  0.00  0.00    -0.492 OA
ATOM     37  H   UNL     1      -1.043  -0.298  -0.853  0.00  0.00    +0.294 HD
ENDBRANCH  22  36
ENDBRANCH   4  22
TORSDOF 8
