REMARK  Name = ZINC12591831
REMARK  8 active torsions:
REMARK  status: ('A' for Active; 'I' for Inactive)
REMARK    1  A    between atoms: C_1  and  C_2
REMARK    2  A    between atoms: C_2  and  O_3
REMARK    3  A    between atoms: O_3  and  C_4
REMARK    4  A    between atoms: C_7  and  C_10
REMARK    5  A    between atoms: C_10  and  N_62
REMARK    6  A    between atoms: C_16  and  C_18
REMARK    7  A    between atoms: C_18  and  C_19
REMARK    8  A    between atoms: N_24  and  C_27
REMARK                            x       y       z     vdW  Elec       q    Type
REMARK                         _______ _______ _______ _____ _____    ______ ____
ROOT
ATOM      1  C   UNL     1      -0.252   0.132   0.097  0.00  0.00    -0.058 C 
ATOM      2  C   UNL     1      -0.222   1.634   0.386  0.00  0.00    +0.085 C 
ATOM      3  N   UNL     1       1.159   2.094   0.500  0.00  0.00    -0.318 N 
ATOM      4  C   UNL     1       2.199   1.397   0.030  0.00  0.00    +0.200 C 
ATOM      5  O   UNL     1       3.311   1.868   0.140  0.00  0.00    -0.278 OA
ATOM      6  C   UNL     1       2.047   0.055  -0.628  0.00  0.00    +0.028 C 
ATOM      7  H   UNL     1       1.329   2.943   0.937  0.00  0.00    +0.149 HD
ATOM      8  N   UNL     1       0.645  -0.132  -1.046  0.00  0.00    +0.391 N 
ATOM      9  H   UNL     1       0.428   0.529  -1.802  0.00  0.00    -0.080 HD
ENDROOT
BRANCH   8  10
ATOM     10  C   UNL     1       0.444  -1.513  -1.542  0.00  0.00    -0.042 C 
BRANCH  10  14
ATOM     11  C   UNL     1       1.601  -4.342   1.445  0.00  0.00    +0.121 A 
ATOM     12  C   UNL     1       0.322  -3.806   1.454  0.00  0.00    +0.046 A 
ATOM     13  C   UNL     1      -0.050  -2.892   0.487  0.00  0.00    +0.005 A 
ATOM     14  C   UNL     1       0.852  -2.510  -0.488  0.00  0.00    -0.064 A 
ATOM     15  C   UNL     1       2.126  -3.047  -0.503  0.00  0.00    +0.005 A 
ATOM     16  C   UNL     1       2.505  -3.957   0.465  0.00  0.00    +0.046 A 
BRANCH  11  17
ATOM     17  O   UNL     1       1.969  -5.242   2.394  0.00  0.00    -0.492 OA
BRANCH  17  19
ATOM     18  C   UNL     1       3.530  -6.744   3.465  0.00  0.00    +0.048 C 
ATOM     19  C   UNL     1       3.302  -5.752   2.323  0.00  0.00    +0.225 C 
ENDBRANCH  17  19
ENDBRANCH  11  17
ENDBRANCH  10  14
ENDBRANCH   8  10
BRANCH   6  20
ATOM     20  C   UNL     1       2.947  -0.006  -1.865  0.00  0.00    +0.090 C 
BRANCH  20  21
ATOM     21  C   UNL     1       2.509   1.040  -2.857  0.00  0.00    +0.215 C 
ATOM     22  O   UNL     1       1.510   1.696  -2.646  0.00  0.00    -0.276 OA
ATOM     23  N   UNL     1       3.226   1.247  -3.979  0.00  0.00    -0.299 N 
ATOM     24  C   UNL     1       4.443   0.467  -4.251  0.00  0.00    +0.126 C 
ATOM     25  C   UNL     1       4.334  -0.118  -5.668  0.00  0.00    +0.124 C 
ATOM     26  N   UNL     1       4.066   0.967  -6.621  0.00  0.00    -0.327 N 
ATOM     27  C   UNL     1       2.774   1.611  -6.347  0.00  0.00    +0.124 C 
ATOM     28  C   UNL     1       2.816   2.263  -4.961  0.00  0.00    +0.126 C 
BRANCH  26  29
ATOM     29  C   UNL     1       4.124   0.505  -7.933  0.00  0.00    +0.033 A 
ATOM     30  C   UNL     1       3.044   0.671  -8.799  0.00  0.00    +0.040 A 
ATOM     31  C   UNL     1       3.144   0.204 -10.092  0.00  0.00    +0.084 A 
ATOM     32  C   UNL     1       5.280  -0.585  -9.719  0.00  0.00    +0.084 A 
ATOM     33  C   UNL     1       5.263  -0.142  -8.413  0.00  0.00    +0.040 A 
ATOM     34  N   UNL     1       4.242  -0.430 -10.586  0.00  0.00    -0.367 N 
ATOM     35  H   UNL     1       4.286  -0.771 -11.553  0.00  0.00    +0.165 HD
ENDBRANCH  26  29
ENDBRANCH  20  21
ENDBRANCH   6  20
TORSDOF 7
