REMARK  Name = ZINC63663796
REMARK  10 active torsions:
REMARK  status: ('A' for Active; 'I' for Inactive)
REMARK    1  A    between atoms: C_1  and  C_2
REMARK    2  A    between atoms: C_2  and  C_4
REMARK    3  A    between atoms: C_2  and  N_18
REMARK    4  A    between atoms: C_4  and  C_6
REMARK    5  A    between atoms: C_4  and  N_11
REMARK    6  A    between atoms: N_14  and  C_17
REMARK    7  A    between atoms: C_19  and  C_21
REMARK    8  A    between atoms: N_23  and  C_24
REMARK    9  A    between atoms: C_24  and  C_25
REMARK   10  A    between atoms: C_25  and  C_26
REMARK                            x       y       z     vdW  Elec       q    Type
REMARK                         _______ _______ _______ _____ _____    ______ ____
ROOT
ATOM      1  N   UNL     1      -1.372  -0.511   0.012  0.00  0.00    -0.303 N 
ATOM      2  C   UNL     1      -2.051  -0.643  -1.145  0.00  0.00    +0.299 C 
ATOM      3  O   UNL     1      -1.523  -0.341  -2.195  0.00  0.00    -0.265 OA
ATOM      4  H   UNL     1      -1.794  -0.752   0.852  0.00  0.00    +0.149 HD
ENDROOT
BRANCH   2   5
ATOM      5  C   UNL     1      -3.453  -1.160  -1.134  0.00  0.00    +0.299 C 
ATOM      6  O   UNL     1      -3.981  -1.462  -0.084  0.00  0.00    -0.265 OA
ATOM      7  N   UNL     1      -4.131  -1.292  -2.291  0.00  0.00    -0.307 N 
ATOM      8  H   UNL     1      -3.710  -1.050  -3.131  0.00  0.00    +0.149 HD
BRANCH   7   9
ATOM      9  C   UNL     1      -5.506  -1.799  -2.281  0.00  0.00    +0.109 C 
BRANCH   9  10
ATOM     10  C   UNL     1      -6.042  -1.849  -3.713  0.00  0.00    +0.052 C 
BRANCH  10  11
ATOM     11  C   UNL     1      -7.455  -2.371  -3.702  0.00  0.00    -0.040 C 
ATOM     12  C   UNL     1      -8.592  -1.639  -3.693  0.00  0.00    -0.001 A 
ATOM     13  C   UNL     1      -8.843  -0.192  -3.689  0.00  0.00    +0.010 A 
ATOM     14  C   UNL     1     -10.121   0.252  -3.678  0.00  0.00    +0.001 A 
ATOM     15  C   UNL     1     -11.208  -0.633  -3.670  0.00  0.00    +0.002 A 
ATOM     16  C   UNL     1     -11.058  -1.974  -3.673  0.00  0.00    +0.026 A 
ATOM     17  C   UNL     1      -9.758  -2.551  -3.685  0.00  0.00    +0.043 A 
ATOM     18  N   UNL     1      -9.357  -3.799  -3.689  0.00  0.00    -0.380 N 
ATOM     19  C   UNL     1      -7.890  -3.820  -3.706  0.00  0.00    +0.144 C 
ATOM     20  H   UNL     1      -9.934  -4.579  -3.686  0.00  0.00    +0.160 HD
ENDBRANCH  10  11
ENDBRANCH   9  10
ENDBRANCH   7   9
ENDBRANCH   2   5
BRANCH   1  22
ATOM     21  C   UNL     1      -0.019   1.526   0.010  0.00  0.00    +0.030 C 
ATOM     22  C   UNL     1       0.002  -0.004   0.002  0.00  0.00    +0.092 C 
BRANCH  22  23
ATOM     23  C   UNL     1       0.742  -0.511   1.242  0.00  0.00    +0.113 C 
BRANCH  23  24
ATOM     24  N   UNL     1       2.080   0.093   1.294  0.00  0.00    -0.297 NA
ATOM     25  C   UNL     1       2.832  -0.185   0.062  0.00  0.00    +0.066 C 
ATOM     26  C   UNL     1       4.194   0.509   0.132  0.00  0.00    -0.064 C 
ATOM     27  N   UNL     1       4.936   0.017   1.300  0.00  0.00    +0.379 N 
ATOM     28  C   UNL     1       4.184   0.324   2.524  0.00  0.00    -0.064 C 
ATOM     29  C   UNL     1       2.822  -0.372   2.474  0.00  0.00    +0.066 C 
ATOM     30  C   UNL     1       6.250   0.670   1.356  0.00  0.00    -0.096 C 
ATOM     31  H   UNL     1       5.060  -0.982   1.223  0.00  0.00    -0.082 HD
ENDBRANCH  23  24
BRANCH  23  32
ATOM     32  C   UNL     1      -0.030  -0.130   2.478  0.00  0.00    +0.009 A 
ATOM     33  C   UNL     1      -0.860  -0.888   3.234  0.00  0.00    +0.013 A 
ATOM     34  C   UNL     1      -1.467  -0.321   4.339  0.00  0.00    +0.008 A 
ATOM     35  C   UNL     1      -1.214   0.977   4.634  0.00  0.00    +0.045 A 
ATOM     36  S   UNL     1      -0.082   1.437   3.333  0.00  0.00    -0.100 S 
ENDBRANCH  23  32
ENDBRANCH  22  23
ENDBRANCH   1  22
TORSDOF 8
