REMARK  Name = ZINC63514065
REMARK  9 active torsions:
REMARK  status: ('A' for Active; 'I' for Inactive)
REMARK    1  A    between atoms: C_1  and  C_2
REMARK    2  A    between atoms: C_4  and  C_12
REMARK    3  A    between atoms: C_12  and  C_13
REMARK    4  A    between atoms: C_13  and  N_14
REMARK    5  A    between atoms: N_14  and  S_15
REMARK    6  A    between atoms: S_15  and  C_18
REMARK    7  A    between atoms: C_21  and  O_24
REMARK    8  A    between atoms: O_24  and  C_25
REMARK    9  A    between atoms: C_28  and  N_31
REMARK                            x       y       z     vdW  Elec       q    Type
REMARK                         _______ _______ _______ _____ _____    ______ ____
ROOT
ATOM      1  S   UNL     1       2.815  -1.062  -7.305  0.00  0.00    +0.058 S 
ATOM      2  O   UNL     1       1.979  -0.915  -8.445  0.00  0.00    -0.153 OA
ATOM      3  O   UNL     1       4.148  -0.571  -7.269  0.00  0.00    -0.153 OA
ENDROOT
BRANCH   1   4
ATOM      4  C   UNL     1       2.905  -2.789  -6.967  0.00  0.00    +0.105 A 
ATOM      5  C   UNL     1       3.981  -3.299  -6.264  0.00  0.00    +0.032 A 
ATOM      6  C   UNL     1       4.054  -4.652  -5.997  0.00  0.00    +0.048 A 
ATOM      7  C   UNL     1       3.047  -5.500  -6.435  0.00  0.00    +0.129 A 
ATOM      8  C   UNL     1       1.968  -4.986  -7.139  0.00  0.00    +0.048 A 
ATOM      9  C   UNL     1       1.897  -3.631  -7.399  0.00  0.00    +0.032 A 
BRANCH   7  10
ATOM     10  O   UNL     1       3.117  -6.832  -6.174  0.00  0.00    -0.456 OA
BRANCH  10  11
ATOM     11  C   UNL     1       4.188  -7.290  -5.474  0.00  0.00    +0.129 A 
ATOM     12  C   UNL     1       4.137  -7.355  -4.089  0.00  0.00    +0.048 A 
ATOM     13  C   UNL     1       5.227  -7.821  -3.380  0.00  0.00    +0.036 A 
ATOM     14  C   UNL     1       6.369  -8.221  -4.050  0.00  0.00    +0.126 A 
ATOM     15  C   UNL     1       6.422  -8.157  -5.430  0.00  0.00    +0.036 A 
ATOM     16  C   UNL     1       5.332  -7.698  -6.144  0.00  0.00    +0.048 A 
BRANCH  14  17
ATOM     17  N   UNL     1       7.536  -8.719  -3.288  0.00  0.00    +0.056 N 
ATOM     18  O   UNL     1       7.490  -8.775  -2.081  0.00  0.00    -0.126 OA
ATOM     19  O   UNL     1       8.534  -9.070  -3.872  0.00  0.00    -0.126 OA
ENDBRANCH  14  17
ENDBRANCH  10  11
ENDBRANCH   7  10
ENDBRANCH   1   4
BRANCH   1  20
ATOM     20  N   UNL     1       2.016  -0.356  -6.038  0.00  0.00    -0.190 NA
ATOM     21  H   UNL     1       1.153   0.063  -6.181  0.00  0.00    +0.148 HD
BRANCH  20  22
ATOM     22  C   UNL     1       2.613  -0.364  -4.700  0.00  0.00    +0.110 C 
BRANCH  22  23
ATOM     23  C   UNL     1       1.887   0.648  -3.811  0.00  0.00    +0.050 C 
BRANCH  23  26
ATOM     24  C   UNL     1       2.254   2.970  -1.579  0.00  0.00    +0.035 C 
ATOM     25  C   UNL     1       2.089   1.485  -1.251  0.00  0.00    +0.103 C 
ATOM     26  C   UNL     1       2.501   0.640  -2.435  0.00  0.00    -0.037 C 
ATOM     27  C   UNL     1       3.532  -0.125  -2.009  0.00  0.00    -0.001 A 
ATOM     28  C   UNL     1       4.358  -1.140  -2.674  0.00  0.00    +0.010 A 
ATOM     29  C   UNL     1       5.340  -1.750  -1.972  0.00  0.00    +0.001 A 
ATOM     30  C   UNL     1       5.587  -1.439  -0.628  0.00  0.00    +0.002 A 
ATOM     31  C   UNL     1       4.870  -0.518   0.051  0.00  0.00    +0.026 A 
ATOM     32  C   UNL     1       3.813   0.185  -0.590  0.00  0.00    +0.043 A 
ATOM     33  N   UNL     1       2.987   1.107  -0.153  0.00  0.00    -0.378 N 
ATOM     34  H   UNL     1       2.971   1.477   0.743  0.00  0.00    +0.160 HD
ENDBRANCH  23  26
ENDBRANCH  22  23
ENDBRANCH  20  22
ENDBRANCH   1  20
TORSDOF 8
