REMARK  Name = ZINC30982495
REMARK  9 active torsions:
REMARK  status: ('A' for Active; 'I' for Inactive)
REMARK    1  A    between atoms: C_6  and  C_7
REMARK    2  A    between atoms: C_9  and  C_12
REMARK    3  A    between atoms: C_12  and  N_13
REMARK    4  A    between atoms: C_16  and  C_19
REMARK    5  A    between atoms: N_21  and  C_22
REMARK    6  A    between atoms: C_22  and  C_23
REMARK    7  A    between atoms: C_23  and  S_24
REMARK    8  A    between atoms: S_24  and  C_25
REMARK    9  A    between atoms: C_25  and  C_26
REMARK                            x       y       z     vdW  Elec       q    Type
REMARK                         _______ _______ _______ _____ _____    ______ ____
ROOT
ATOM      1  N   UNL     1      -8.836   7.763   4.328  0.00  0.00    +0.386 N 
ATOM      2  C   UNL     1      -9.103   6.516   5.055  0.00  0.00    -0.077 C 
ATOM      3  C   UNL     1      -7.804   5.719   5.197  0.00  0.00    -0.006 C 
ATOM      4  C   UNL     1      -7.246   5.410   3.805  0.00  0.00    +0.071 C 
ATOM      5  C   UNL     1      -7.022   6.724   3.050  0.00  0.00    -0.006 C 
ATOM      6  C   UNL     1      -8.344   7.492   2.971  0.00  0.00    -0.077 C 
ATOM      7  H   UNL     1      -8.046   8.305   4.869  0.00  0.00    -0.081 HD
ENDROOT
BRANCH   4   8
ATOM      8  C   UNL     1      -5.936   4.678   3.938  0.00  0.00    +0.216 C 
ATOM      9  O   UNL     1      -5.491   4.426   5.038  0.00  0.00    -0.276 OA
ATOM     10  N   UNL     1      -5.258   4.302   2.835  0.00  0.00    -0.314 N 
ATOM     11  H   UNL     1      -5.662   4.530   1.838  0.00  0.00    +0.149 HD
BRANCH  10  12
ATOM     12  C   UNL     1      -3.985   3.589   2.965  0.00  0.00    +0.115 C 
BRANCH  12  13
ATOM     13  C   UNL     1      -3.428   3.282   1.573  0.00  0.00    +0.088 C 
BRANCH  13  14
ATOM     14  S   UNL     1      -1.852   2.400   1.734  0.00  0.00    -0.154 S 
BRANCH  14  15
ATOM     15  C   UNL     1      -1.332   2.114   0.020  0.00  0.00    +0.105 C 
BRANCH  15  16
ATOM     16  C   UNL     1      -0.017   1.378   0.010  0.00  0.00    -0.019 A 
ATOM     17  C   UNL     1       0.002  -0.004   0.002  0.00  0.00    +0.007 A 
ATOM     18  C   UNL     1       1.208  -0.679  -0.013  0.00  0.00    +0.020 A 
ATOM     19  C   UNL     1       2.397   0.028  -0.021  0.00  0.00    +0.042 A 
ATOM     20  C   UNL     1       2.379   1.411  -0.013  0.00  0.00    +0.040 A 
ATOM     21  C   UNL     1       1.172   2.086   0.002  0.00  0.00    +0.046 A 
ATOM     22 CL   UNL     1       1.148   3.822   0.012  0.00  0.00    -0.083 Cl
ATOM     23 CL   UNL     1       3.912  -0.820  -0.039  0.00  0.00    -0.083 Cl
ENDBRANCH  15  16
ENDBRANCH  14  15
ENDBRANCH  13  14
ENDBRANCH  12  13
ENDBRANCH  10  12
ENDBRANCH   4   8
BRANCH   1  24
ATOM     24  C   UNL     1     -10.030   8.618   4.294  0.00  0.00    +0.022 C 
BRANCH  24  27
ATOM     25  C   UNL     1      -9.268  11.645   2.511  0.00  0.00    +0.202 A 
ATOM     26  N   UNL     1      -9.673  10.355   2.508  0.00  0.00    -0.193 NA
ATOM     27  C   UNL     1      -9.659   9.979   3.763  0.00  0.00    +0.211 A 
ATOM     28  O   UNL     1      -9.259  11.031   4.484  0.00  0.00    -0.340 OA
ATOM     29  N   UNL     1      -9.034  11.973   3.755  0.00  0.00    -0.056 NA
BRANCH  25  35
ATOM     30  C   UNL     1      -9.399  12.032   0.051  0.00  0.00    +0.014 A 
ATOM     31  C   UNL     1      -9.263  12.854  -1.048  0.00  0.00    +0.039 A 
ATOM     32  C   UNL     1      -8.835  14.162  -0.889  0.00  0.00    +0.123 A 
ATOM     33  C   UNL     1      -8.549  14.653   0.374  0.00  0.00    +0.039 A 
ATOM     34  C   UNL     1      -8.688  13.840   1.480  0.00  0.00    +0.014 A 
ATOM     35  C   UNL     1      -9.117  12.523   1.325  0.00  0.00    +0.023 A 
ATOM     36  F   UNL     1      -8.698  14.962  -1.970  0.00  0.00    -0.205 F 
ENDBRANCH  25  35
ENDBRANCH  24  27
ENDBRANCH   1  24
TORSDOF 9
