REMARK  Name = ZINC28296653
REMARK  10 active torsions:
REMARK  status: ('A' for Active; 'I' for Inactive)
REMARK    1  A    between atoms: C_1  and  C_2
REMARK    2  A    between atoms: C_4  and  C_34
REMARK    3  A    between atoms: C_8  and  C_28
REMARK    4  A    between atoms: C_9  and  C_22
REMARK    5  A    between atoms: N_10  and  C_11
REMARK    6  A    between atoms: C_11  and  C_12
REMARK    7  A    between atoms: C_12  and  C_14
REMARK    8  A    between atoms: C_12  and  O_21
REMARK    9  A    between atoms: C_14  and  N_15
REMARK   10  A    between atoms: C_19  and  C_20
REMARK                            x       y       z     vdW  Elec       q    Type
REMARK                         _______ _______ _______ _____ _____    ______ ____
ROOT
ATOM      1  C   UNL     1       4.696   1.982   3.569  0.00  0.00    +0.044 C 
ATOM      2  C   UNL     1       4.595   2.906   2.383  0.00  0.00    -0.049 A 
ATOM      3  C   UNL     1       5.648   3.760   2.084  0.00  0.00    +0.008 A 
ATOM      4  C   UNL     1       5.575   4.613   1.005  0.00  0.00    -0.026 A 
ATOM      5  C   UNL     1       4.437   4.621   0.204  0.00  0.00    +0.053 A 
ATOM      6  C   UNL     1       3.371   3.758   0.516  0.00  0.00    +0.009 A 
ATOM      7  C   UNL     1       3.468   2.898   1.610  0.00  0.00    +0.014 A 
ATOM      8  C   UNL     1       2.336   3.995  -0.501  0.00  0.00    +0.015 A 
ATOM      9  C   UNL     1       2.828   4.973  -1.339  0.00  0.00    +0.058 A 
ATOM     10  N   UNL     1       4.081   5.344  -0.915  0.00  0.00    -0.337 N 
ATOM     11  C   UNL     1       6.725   5.535   0.692  0.00  0.00    +0.046 C 
ENDROOT
BRANCH   9  12
ATOM     12  C   UNL     1       2.120   5.534  -2.507  0.00  0.00    -0.001 A 
ATOM     13  C   UNL     1       1.922   6.912  -2.613  0.00  0.00    +0.010 A 
ATOM     14  C   UNL     1       1.265   7.430  -3.710  0.00  0.00    +0.001 A 
ATOM     15  C   UNL     1       0.792   6.585  -4.699  0.00  0.00    +0.000 A 
ATOM     16  C   UNL     1       0.979   5.218  -4.598  0.00  0.00    +0.001 A 
ATOM     17  C   UNL     1       1.640   4.687  -3.509  0.00  0.00    +0.010 A 
ENDBRANCH   9  12
BRANCH   8  18
ATOM     18  C   UNL     1       1.022   3.322  -0.601  0.00  0.00    -0.015 A 
ATOM     19  C   UNL     1       0.955   1.955  -0.873  0.00  0.00    +0.008 A 
ATOM     20  C   UNL     1      -0.273   1.333  -0.965  0.00  0.00    +0.001 A 
ATOM     21  C   UNL     1      -1.436   2.062  -0.794  0.00  0.00    +0.000 A 
ATOM     22  C   UNL     1      -1.376   3.417  -0.518  0.00  0.00    +0.001 A 
ATOM     23  C   UNL     1      -0.154   4.051  -0.423  0.00  0.00    +0.008 A 
ENDBRANCH   8  18
BRANCH  10  24
ATOM     24  C   UNL     1       4.918   6.359  -1.559  0.00  0.00    +0.155 C 
BRANCH  24  25
ATOM     25  C   UNL     1       5.664   5.732  -2.739  0.00  0.00    +0.154 C 
BRANCH  25  26
ATOM     26  O   UNL     1       6.511   4.684  -2.264  0.00  0.00    -0.388 OA
ATOM     27  H   UNL     1       7.130   4.114  -2.973  0.00  0.00    +0.210 HD
ENDBRANCH  25  26
BRANCH  25  28
ATOM     28  C   UNL     1       6.513   6.801  -3.431  0.00  0.00    +0.156 C 
BRANCH  28  29
ATOM     29  N   UNL     1       7.133   6.231  -4.630  0.00  0.00    -0.334 N 
ATOM     30  C   UNL     1       8.388   5.692  -4.717  0.00  0.00    +0.105 A 
ATOM     31  C   UNL     1       8.552   5.290  -5.992  0.00  0.00    +0.101 A 
ATOM     32  N   UNL     1       7.426   5.574  -6.664  0.00  0.00    -0.350 N 
ATOM     33  C   UNL     1       6.570   6.132  -5.853  0.00  0.00    +0.084 A 
ATOM     34  C   UNL     1       5.184   6.594  -6.222  0.00  0.00    +0.084 C 
ATOM     35  H   UNL     1       7.348   5.329  -7.734  0.00  0.00    +0.166 HD
ENDBRANCH  28  29
ENDBRANCH  25  28
ENDBRANCH  24  25
ENDBRANCH  10  24
TORSDOF 7
