REMARK  Name = ZINC51597394
REMARK  5 active torsions:
REMARK  status: ('A' for Active; 'I' for Inactive)
REMARK    1  A    between atoms: C_1  and  C_2
REMARK    2  A    between atoms: C_5  and  C_19
REMARK    3  A    between atoms: C_6  and  N_8
REMARK    4  A    between atoms: C_16  and  C_18
REMARK    5  A    between atoms: C_19  and  N_21
REMARK                            x       y       z     vdW  Elec       q    Type
REMARK                         _______ _______ _______ _____ _____    ______ ____
ROOT
ATOM      1  C   UNL     1      -0.018   1.503   0.010  0.00  0.00    +0.044 C 
ATOM      2  C   UNL     1       0.002  -0.004   0.002  0.00  0.00    -0.049 A 
ATOM      3  C   UNL     1       0.006  -0.686  -1.205  0.00  0.00    +0.004 A 
ATOM      4  C   UNL     1       0.025  -2.063  -1.226  0.00  0.00    +0.012 A 
ATOM      5  C   UNL     1       0.041  -2.779  -0.025  0.00  0.00    +0.024 A 
ATOM      6  C   UNL     1       0.037  -2.085   1.195  0.00  0.00    +0.040 A 
ATOM      7  C   UNL     1       0.023  -0.696   1.196  0.00  0.00    +0.027 A 
ENDROOT
BRANCH   6   8
ATOM      8  N   UNL     1       0.052  -2.784   2.396  0.00  0.00    -0.322 N 
ATOM      9  C   UNL     1       1.328  -3.136   3.037  0.00  0.00    +0.111 C 
ATOM     10  C   UNL     1       1.419  -2.386   4.375  0.00  0.00    +0.061 C 
ATOM     11  C   UNL     1       0.094  -2.470   5.062  0.00  0.00    -0.004 A 
ATOM     12  C   UNL     1      -1.108  -2.811   4.522  0.00  0.00    -0.017 A 
ATOM     13  C   UNL     1      -2.205  -2.804   5.381  0.00  0.00    +0.013 A 
ATOM     14  C   UNL     1      -2.042  -2.475   6.683  0.00  0.00    +0.046 A 
ATOM     15  S   UNL     1      -0.287  -2.149   6.764  0.00  0.00    -0.101 S 
ATOM     16  C   UNL     1      -1.206  -3.176   3.046  0.00  0.00    +0.101 C 
ATOM     17  C   UNL     1      -2.376  -2.427   2.405  0.00  0.00    +0.033 C 
ENDBRANCH   6   8
BRANCH   5  18
ATOM     18  C   UNL     1       0.060  -4.251  -0.041  0.00  0.00    +0.079 C 
ATOM     19  S   UNL     1       0.080  -5.122   1.433  0.00  0.00    -0.035 S 
BRANCH  18  20
ATOM     20  N   UNL     1       0.064  -4.913  -1.214  0.00  0.00    -0.352 N 
ATOM     21  H   UNL     1       0.053  -4.420  -2.050  0.00  0.00    +0.143 HD
ATOM     22  H   UNL     1       0.077  -5.883  -1.224  0.00  0.00    +0.143 HD
ENDBRANCH  18  20
ENDBRANCH   5  18
TORSDOF 3
