REMARK  Name = ZINC39015765
REMARK  6 active torsions:
REMARK  status: ('A' for Active; 'I' for Inactive)
REMARK    1  A    between atoms: C_10  and  C_11
REMARK    2  A    between atoms: C_11  and  S_12
REMARK    3  A    between atoms: S_12  and  C_13
REMARK    4  A    between atoms: C_17  and  C_21
REMARK    5  A    between atoms: N_19  and  N_20
REMARK    6  A    between atoms: C_24  and  C_27
REMARK                            x       y       z     vdW  Elec       q    Type
REMARK                         _______ _______ _______ _____ _____    ______ ____
ROOT
ATOM      1  C   UNL     1       7.043   1.393   1.477  0.00  0.00    +0.214 C 
ATOM      2  N   UNL     1       8.013   0.611   0.679  0.00  0.00    -0.228 NA
ATOM      3  N   UNL     1       7.851   1.113  -0.695  0.00  0.00    -0.234 NA
ATOM      4  C   UNL     1       7.627   2.569  -0.494  0.00  0.00    +0.185 C 
ATOM      5  N   UNL     1       6.796   2.645   0.731  0.00  0.00    -0.197 NA
ATOM      6  H   UNL     1       8.955   0.758   1.009  0.00  0.00    +0.143 HD
ATOM      7  H   UNL     1       7.057   0.684  -1.145  0.00  0.00    +0.143 HD
ENDROOT
BRANCH   4   8
ATOM      8  C   UNL     1       6.880   3.165  -1.689  0.00  0.00    +0.187 C 
ATOM      9  C   UNL     1       7.662   2.949  -2.973  0.00  0.00    +0.034 C 
ATOM     10  C   UNL     1       7.923   4.198  -3.405  0.00  0.00    +0.091 C 
ATOM     11  N   UNL     1       7.400   5.115  -2.550  0.00  0.00    -0.154 NA
ATOM     12  N   UNL     1       6.807   4.631  -1.579  0.00  0.00    -0.176 NA
BRANCH  10  13
ATOM     13  C   UNL     1       8.676   4.525  -4.641  0.00  0.00    +0.002 A 
ATOM     14  C   UNL     1       9.166   3.504  -5.452  0.00  0.00    +0.011 A 
ATOM     15  C   UNL     1       9.866   3.814  -6.601  0.00  0.00    +0.020 A 
ATOM     16  C   UNL     1      10.082   5.137  -6.947  0.00  0.00    +0.041 A 
ATOM     17  C   UNL     1       9.597   6.155  -6.144  0.00  0.00    +0.020 A 
ATOM     18  C   UNL     1       8.891   5.856  -4.997  0.00  0.00    +0.011 A 
ATOM     19 CL   UNL     1      10.964   5.520  -8.392  0.00  0.00    -0.084 Cl
ENDBRANCH  10  13
ENDBRANCH   4   8
BRANCH   5  20
ATOM     20  N   UNL     1       7.149   3.807   1.530  0.00  0.00    -0.264 NA
ATOM     21  H   UNL     1       6.607   3.838   2.381  0.00  0.00    +0.137 HD
ATOM     22  H   UNL     1       8.138   3.820   1.731  0.00  0.00    +0.137 HD
ENDBRANCH   5  20
BRANCH   1  23
ATOM     23  S   UNL     1       5.496   0.464   1.661  0.00  0.00    -0.119 S 
BRANCH  23  24
ATOM     24  C   UNL     1       4.960   0.161  -0.046  0.00  0.00    +0.107 C 
BRANCH  24  34
ATOM     25  C   UNL     1      -0.016   1.357   0.009  0.00  0.00    +0.001 A 
ATOM     26  C   UNL     1       1.169   2.091   0.002  0.00  0.00    +0.001 A 
ATOM     27  C   UNL     1       2.378   1.468  -0.013  0.00  0.00    +0.009 A 
ATOM     28  C   UNL     1       2.438   0.064  -0.021  0.00  0.00    -0.014 A 
ATOM     29  C   UNL     1       1.233  -0.683  -0.013  0.00  0.00    -0.018 A 
ATOM     30  C   UNL     1       0.002  -0.004   0.002  0.00  0.00    +0.008 A 
ATOM     31  C   UNL     1       1.292  -2.087  -0.021  0.00  0.00    +0.008 A 
ATOM     32  C   UNL     1       2.502  -2.709  -0.036  0.00  0.00    +0.001 A 
ATOM     33  C   UNL     1       3.687  -1.976  -0.043  0.00  0.00    +0.005 A 
ATOM     34  C   UNL     1       3.668  -0.615  -0.037  0.00  0.00    -0.030 A 
ENDBRANCH  24  34
ENDBRANCH  23  24
ENDBRANCH   1  23
TORSDOF 6
