REMARK  Name = ZINC13301864
REMARK  4 active torsions:
REMARK  status: ('A' for Active; 'I' for Inactive)
REMARK    1  A    between atoms: N_8  and  C_9
REMARK    2  A    between atoms: C_12  and  C_15
REMARK    3  A    between atoms: C_15  and  C_16
REMARK    4  A    between atoms: C_19  and  N_22
REMARK                            x       y       z     vdW  Elec       q    Type
REMARK                         _______ _______ _______ _____ _____    ______ ____
ROOT
ATOM      1  C   UNL     1       9.880  -2.441  -0.106  0.00  0.00    +0.070 C 
ENDROOT
BRANCH   1   5
ATOM      2  C   UNL     1       5.653  -1.792  -0.062  0.00  0.00    +0.066 A 
ATOM      3  C   UNL     1       6.470  -1.044  -0.917  0.00  0.00    +0.028 A 
ATOM      4  C   UNL     1       7.832  -1.259  -0.924  0.00  0.00    +0.006 A 
ATOM      5  C   UNL     1       8.391  -2.212  -0.090  0.00  0.00    -0.043 A 
ATOM      6  C   UNL     1       7.589  -2.957   0.758  0.00  0.00    +0.006 A 
ATOM      7  C   UNL     1       6.226  -2.750   0.783  0.00  0.00    +0.028 A 
BRANCH   2  15
ATOM      8  C   UNL     1      -0.017   1.379   0.010  0.00  0.00    +0.001 A 
ATOM      9  C   UNL     1       1.167   2.098   0.002  0.00  0.00    +0.012 A 
ATOM     10  C   UNL     1       2.380   1.425  -0.013  0.00  0.00    +0.025 A 
ATOM     11  C   UNL     1       2.397   0.014  -0.021  0.00  0.00    +0.030 A 
ATOM     12  C   UNL     1       1.206  -0.691  -0.013  0.00  0.00    +0.012 A 
ATOM     13  C   UNL     1       0.002  -0.004   0.002  0.00  0.00    +0.001 A 
ATOM     14  C   UNL     1       3.829  -0.361  -0.036  0.00  0.00    +0.163 C 
ATOM     15  N   UNL     1       4.306  -1.586  -0.048  0.00  0.00    -0.228 NA
ATOM     16  N   UNL     1       4.562   0.779  -0.037  0.00  0.00    -0.212 NA
ATOM     17  C   UNL     1       3.794   1.845  -0.024  0.00  0.00    +0.126 C 
ATOM     18  N   UNL     1       4.237   3.144  -0.022  0.00  0.00    -0.343 N 
ATOM     19  H   UNL     1       3.598   3.874  -0.013  0.00  0.00    +0.144 HD
ATOM     20  H   UNL     1       5.188   3.332  -0.030  0.00  0.00    +0.144 HD
ENDBRANCH   2  15
ENDBRANCH   1   5
BRANCH   1  21
ATOM     21  C   UNL     1      10.538  -1.535   0.903  0.00  0.00    -0.043 A 
ATOM     22  C   UNL     1      10.955  -0.271   0.524  0.00  0.00    +0.006 A 
ATOM     23  C   UNL     1      11.558   0.564   1.440  0.00  0.00    +0.028 A 
ATOM     24  C   UNL     1      11.748   0.130   2.757  0.00  0.00    +0.066 A 
ATOM     25  C   UNL     1      11.323  -1.150   3.132  0.00  0.00    +0.028 A 
ATOM     26  C   UNL     1      10.717  -1.970   2.205  0.00  0.00    +0.006 A 
BRANCH  24  27
ATOM     27  N   UNL     1      12.344   0.948   3.669  0.00  0.00    -0.228 NA
ATOM     28  C   UNL     1      11.833   1.071   4.873  0.00  0.00    +0.163 C 
ATOM     29  N   UNL     1      10.727   0.440   5.338  0.00  0.00    -0.212 NA
ATOM     30  C   UNL     1      10.472   0.770   6.585  0.00  0.00    +0.126 C 
ATOM     31  N   UNL     1       9.423   0.299   7.333  0.00  0.00    -0.343 N 
ATOM     32  C   UNL     1      11.493   1.727   7.052  0.00  0.00    +0.025 A 
ATOM     33  C   UNL     1      12.369   1.919   5.963  0.00  0.00    +0.030 A 
ATOM     34  C   UNL     1      13.451   2.772   6.090  0.00  0.00    +0.012 A 
ATOM     35  C   UNL     1      13.669   3.431   7.289  0.00  0.00    +0.001 A 
ATOM     36  C   UNL     1      12.814   3.242   8.359  0.00  0.00    +0.001 A 
ATOM     37  C   UNL     1      11.722   2.397   8.245  0.00  0.00    +0.012 A 
ATOM     38  H   UNL     1       8.796  -0.331   6.946  0.00  0.00    +0.144 HD
ATOM     39  H   UNL     1       9.309   0.596   8.250  0.00  0.00    +0.144 HD
ENDBRANCH  24  27
ENDBRANCH   1  21
TORSDOF 4
