REMARK  Name = ZINC40923518
REMARK  10 active torsions:
REMARK  status: ('A' for Active; 'I' for Inactive)
REMARK    1  A    between atoms: C_1  and  C_2
REMARK    2  A    between atoms: C_5  and  C_8
REMARK    3  A    between atoms: C_8  and  O_9
REMARK    4  A    between atoms: O_9  and  C_10
REMARK    5  A    between atoms: C_15  and  C_16
REMARK    6  A    between atoms: C_18  and  C_27
REMARK    7  A    between atoms: C_19  and  C_26
REMARK    8  A    between atoms: N_29  and  C_30
REMARK    9  A    between atoms: C_33  and  C_37
REMARK   10  A    between atoms: C_35  and  C_36
REMARK                            x       y       z     vdW  Elec       q    Type
REMARK                         _______ _______ _______ _____ _____    ______ ____
ROOT
ATOM      1  C   UNL     1       4.609  -5.563   0.203  0.00  0.00    +0.182 C 
ATOM      2  C   UNL     1       5.295  -5.991   1.474  0.00  0.00    +0.060 C 
ATOM      3  C   UNL     1       6.491  -6.598   1.491  0.00  0.00    +0.018 C 
ATOM      4  N   UNL     1       7.192  -6.870   0.342  0.00  0.00    -0.286 N 
ATOM      5  C   UNL     1       6.754  -6.270  -0.830  0.00  0.00    +0.240 A 
ATOM      6  N   UNL     1       5.548  -5.649  -0.908  0.00  0.00    -0.201 N 
ATOM      7  N   UNL     1       5.459  -5.167  -2.212  0.00  0.00    -0.042 NA
ATOM      8  N   UNL     1       6.555  -5.513  -2.808  0.00  0.00    -0.021 NA
ATOM      9  N   UNL     1       7.320  -6.163  -1.998  0.00  0.00    -0.092 NA
ATOM     10  C   UNL     1       7.085  -6.997   2.817  0.00  0.00    +0.061 C 
ATOM     11  H   UNL     1       7.964  -7.458   0.349  0.00  0.00    +0.155 HD
ENDROOT
BRANCH   1  17
ATOM     12  C   UNL     1       2.143  -5.957  -0.022  0.00  0.00    +0.127 A 
ATOM     13  C   UNL     1       1.062  -6.791  -0.272  0.00  0.00    +0.046 A 
ATOM     14  C   UNL     1       1.273  -8.127  -0.552  0.00  0.00    +0.004 A 
ATOM     15  C   UNL     1       2.559  -8.634  -0.585  0.00  0.00    +0.001 A 
ATOM     16  C   UNL     1       3.637  -7.805  -0.337  0.00  0.00    +0.009 A 
ATOM     17  C   UNL     1       3.432  -6.467  -0.061  0.00  0.00    +0.023 A 
BRANCH  12  18
ATOM     18  O   UNL     1       1.938  -4.643   0.253  0.00  0.00    -0.487 OA
BRANCH  18  19
ATOM     19  C   UNL     1       0.583  -4.210   0.384  0.00  0.00    +0.264 C 
BRANCH  19  24
ATOM     20  C   UNL     1       0.458   1.488   1.335  0.00  0.00    +0.044 C 
ATOM     21  C   UNL     1       0.490   0.002   1.087  0.00  0.00    -0.050 A 
ATOM     22  C   UNL     1       0.555  -0.481  -0.206  0.00  0.00    +0.004 A 
ATOM     23  C   UNL     1       0.585  -1.845  -0.434  0.00  0.00    +0.007 A 
ATOM     24  C   UNL     1       0.551  -2.724   0.632  0.00  0.00    -0.010 A 
ATOM     25  C   UNL     1       0.486  -2.240   1.925  0.00  0.00    +0.007 A 
ATOM     26  C   UNL     1       0.461  -0.877   2.153  0.00  0.00    +0.004 A 
ENDBRANCH  19  24
ENDBRANCH  18  19
ENDBRANCH  12  18
ENDBRANCH   1  17
BRANCH   2  27
ATOM     27  C   UNL     1       4.649  -5.739   2.707  0.00  0.00    +0.248 C 
ATOM     28  O   UNL     1       4.709  -4.632   3.211  0.00  0.00    -0.270 OA
ATOM     29  N   UNL     1       3.968  -6.724   3.324  0.00  0.00    -0.281 N 
ATOM     30  H   UNL     1       3.979  -7.624   2.960  0.00  0.00    +0.155 HD
BRANCH  29  31
ATOM     31  C   UNL     1       3.245  -6.451   4.489  0.00  0.00    +0.037 A 
ATOM     32  C   UNL     1       2.895  -5.143   4.801  0.00  0.00    +0.024 A 
ATOM     33  C   UNL     1       2.181  -4.877   5.952  0.00  0.00    +0.005 A 
ATOM     34  C   UNL     1       1.813  -5.910   6.794  0.00  0.00    -0.050 A 
ATOM     35  C   UNL     1       2.159  -7.213   6.487  0.00  0.00    +0.008 A 
ATOM     36  C   UNL     1       2.869  -7.487   5.334  0.00  0.00    -0.029 A 
ATOM     37  C   UNL     1       3.241  -8.908   4.997  0.00  0.00    +0.045 C 
ATOM     38  C   UNL     1       1.033  -5.615   8.050  0.00  0.00    +0.044 C 
ENDBRANCH  29  31
ENDBRANCH   2  27
TORSDOF 6
