REMARK  Name = ZINC63409316
REMARK  6 active torsions:
REMARK  status: ('A' for Active; 'I' for Inactive)
REMARK    1  A    between atoms: C_4  and  C_7
REMARK    2  A    between atoms: C_10  and  N_30
REMARK    3  A    between atoms: C_15  and  C_17
REMARK    4  A    between atoms: N_19  and  N_20
REMARK    5  A    between atoms: C_21  and  C_22
REMARK    6  A    between atoms: C_27  and  O_28
REMARK                            x       y       z     vdW  Elec       q    Type
REMARK                         _______ _______ _______ _____ _____    ______ ____
ROOT
ATOM      1  C   UNL     1       3.853  -0.667  -0.139  0.00  0.00    -0.000 C 
ATOM      2  C   UNL     1       5.172  -0.249  -0.187  0.00  0.00    +0.006 A 
ATOM      3  C   UNL     1       5.767   1.026  -0.347  0.00  0.00    +0.043 A 
ATOM      4  C   UNL     1       7.117   1.140  -0.357  0.00  0.00    +0.127 A 
ATOM      5  C   UNL     1       7.950   0.025  -0.214  0.00  0.00    +0.035 A 
ATOM      6  C   UNL     1       7.453  -1.224  -0.058  0.00  0.00    +0.028 A 
ATOM      7  C   UNL     1       6.047  -1.428  -0.035  0.00  0.00    +0.044 A 
ATOM      8  N   UNL     1       5.327  -2.519   0.100  0.00  0.00    -0.370 N 
ATOM      9  C   UNL     1       3.904  -2.166   0.057  0.00  0.00    +0.199 C 
ATOM     10  H   UNL     1       5.680  -3.415   0.214  0.00  0.00    +0.161 HD
ENDROOT
BRANCH   1  14
ATOM     11  C   UNL     1       0.391   1.752  -0.456  0.00  0.00    +0.000 A 
ATOM     12  C   UNL     1       1.335   1.767  -1.469  0.00  0.00    +0.001 A 
ATOM     13  C   UNL     1       2.465   0.984  -1.374  0.00  0.00    +0.008 A 
ATOM     14  C   UNL     1       2.656   0.170  -0.248  0.00  0.00    -0.019 A 
ATOM     15  C   UNL     1       1.694   0.162   0.771  0.00  0.00    +0.008 A 
ATOM     16  C   UNL     1       0.571   0.952   0.659  0.00  0.00    +0.001 A 
ENDBRANCH   1  14
BRANCH   9  17
ATOM     17  C   UNL     1       3.234  -2.864  -1.099  0.00  0.00    +0.259 C 
ATOM     18  O   UNL     1       3.901  -3.296  -2.015  0.00  0.00    -0.271 OA
ATOM     19  N   UNL     1       1.894  -3.007  -1.114  0.00  0.00    -0.205 N 
ATOM     20  H   UNL     1       1.355  -2.600  -0.418  0.00  0.00    +0.177 HD
BRANCH  19  21
ATOM     21  N   UNL     1       1.280  -3.745  -2.134  0.00  0.00    -0.188 NA
ATOM     22  C   UNL     1      -0.010  -3.884  -2.148  0.00  0.00    +0.142 C 
BRANCH  22  23
ATOM     23  C   UNL     1      -0.656  -4.660  -3.222  0.00  0.00    +0.037 A 
ATOM     24  C   UNL     1      -2.045  -4.806  -3.244  0.00  0.00    +0.028 A 
ATOM     25  C   UNL     1      -2.643  -5.534  -4.253  0.00  0.00    +0.019 A 
ATOM     26  C   UNL     1      -1.872  -6.120  -5.243  0.00  0.00    +0.019 A 
ATOM     27  C   UNL     1      -0.497  -5.982  -5.231  0.00  0.00    +0.047 A 
ATOM     28  C   UNL     1       0.119  -5.250  -4.229  0.00  0.00    +0.126 A 
ATOM     29 BR   UNL     1      -4.524  -5.732  -4.283  0.00  0.00    -0.050 Br
BRANCH  28  30
ATOM     30  O   UNL     1       1.470  -5.109  -4.220  0.00  0.00    -0.506 OA
ATOM     31  H   UNL     1       1.935  -5.803  -3.731  0.00  0.00    +0.292 HD
ENDBRANCH  28  30
ENDBRANCH  22  23
ENDBRANCH  19  21
ENDBRANCH   9  17
BRANCH   4  32
ATOM     32  N   UNL     1       7.726   2.480  -0.525  0.00  0.00    +0.056 N 
ATOM     33  O   UNL     1       7.021   3.453  -0.650  0.00  0.00    -0.126 OA
ATOM     34  O   UNL     1       8.929   2.599  -0.536  0.00  0.00    -0.126 OA
ENDBRANCH   4  32
TORSDOF 6
