REMARK  Name = ZINC19320895
REMARK  6 active torsions:
REMARK  status: ('A' for Active; 'I' for Inactive)
REMARK    1  A    between atoms: C_1  and  C_2
REMARK    2  A    between atoms: C_5  and  C_23
REMARK    3  A    between atoms: C_11  and  C_12
REMARK    4  A    between atoms: N_17  and  C_20
REMARK    5  A    between atoms: C_20  and  C_21
REMARK    6  A    between atoms: C_20  and  C_22
REMARK                            x       y       z     vdW  Elec       q    Type
REMARK                         _______ _______ _______ _____ _____    ______ ____
ROOT
ATOM      1  C   UNL     1      -0.018   1.503   0.010  0.00  0.00    +0.044 C 
ATOM      2  C   UNL     1       0.002  -0.004   0.002  0.00  0.00    -0.047 A 
ATOM      3  C   UNL     1       0.005  -0.669  -1.188  0.00  0.00    +0.015 A 
ATOM      4  C   UNL     1       0.025  -2.071  -1.195  0.00  0.00    +0.022 A 
ATOM      5  C   UNL     1       0.029  -2.812  -2.392  0.00  0.00    +0.051 A 
ATOM      6  N   UNL     1       0.048  -4.126  -2.316  0.00  0.00    -0.219 NA
ATOM      7  C   UNL     1       0.062  -4.757  -1.143  0.00  0.00    +0.222 A 
ATOM      8  N   UNL     1       0.058  -4.116   0.009  0.00  0.00    -0.214 NA
ATOM      9  C   UNL     1       0.040  -2.778   0.035  0.00  0.00    +0.077 A 
ATOM     10  C   UNL     1       0.035  -2.059   1.240  0.00  0.00    +0.032 A 
ATOM     11  C   UNL     1       0.023  -0.697   1.210  0.00  0.00    -0.045 A 
ATOM     12  C   UNL     1       0.025   0.073   2.506  0.00  0.00    +0.044 C 
ATOM     13  N   UNL     1       0.081  -6.143  -1.134  0.00  0.00    -0.256 N 
ATOM     14  C   UNL     1       0.086  -6.841  -2.323  0.00  0.00    +0.184 C 
ATOM     15  N   UNL     1       0.077  -6.190  -3.443  0.00  0.00    -0.240 NA
ATOM     16  C   UNL     1       0.063  -6.849  -4.744  0.00  0.00    +0.233 C 
ATOM     17  N   UNL     1       0.545  -8.232  -4.633  0.00  0.00    -0.265 NA
ATOM     18  C   UNL     1      -0.173  -8.937  -3.555  0.00  0.00    +0.193 C 
ATOM     19  N   UNL     1       0.105  -8.218  -2.300  0.00  0.00    -0.304 N 
ATOM     20  C   UNL     1       0.013  -2.117  -3.729  0.00  0.00    +0.066 C 
ATOM     21  H   UNL     1       0.092  -6.622  -0.290  0.00  0.00    +0.158 HD
ATOM     22  H   UNL     1       0.293  -8.700  -1.480  0.00  0.00    +0.150 HD
ENDROOT
BRANCH  17  23
ATOM     23  C   UNL     1       0.405  -8.943  -5.910  0.00  0.00    +0.054 C 
ATOM     24  C   UNL     1       1.141  -8.171  -7.007  0.00  0.00    +0.024 C 
ATOM     25  C   UNL     1       1.006 -10.344  -5.783  0.00  0.00    +0.024 C 
ENDBRANCH  17  23
TORSDOF 1
