REMARK  Name = ZINC08740081
REMARK  10 active torsions:
REMARK  status: ('A' for Active; 'I' for Inactive)
REMARK    1  A    between atoms: C_1  and  C_2
REMARK    2  A    between atoms: N_4  and  C_5
REMARK    3  A    between atoms: C_7  and  O_35
REMARK    4  A    between atoms: C_15  and  C_18
REMARK    5  A    between atoms: C_25  and  O_27
REMARK    6  A    between atoms: O_27  and  C_28
REMARK    7  A    between atoms: C_28  and  C_29
REMARK    8  A    between atoms: O_35  and  C_36
REMARK    9  A    between atoms: C_36  and  C_38
REMARK   10  A    between atoms: C_39  and  C_40
REMARK                            x       y       z     vdW  Elec       q    Type
REMARK                         _______ _______ _______ _____ _____    ______ ____
ROOT
ATOM      1  C   UNL     1       1.281  -0.719  -0.014  0.00  0.00    +0.172 C 
ATOM      2  C   UNL     1       1.083  -2.108  -0.630  0.00  0.00    +0.233 C 
ATOM      3  C   UNL     1       2.403  -2.878  -0.571  0.00  0.00    +0.195 C 
ATOM      4  C   UNL     1       2.897  -2.943   0.878  0.00  0.00    +0.179 C 
ATOM      5  C   UNL     1       4.277  -3.613   0.895  0.00  0.00    +0.197 C 
ATOM      6  O   UNL     1       5.145  -2.904   0.005  0.00  0.00    -0.345 OA
ATOM      7  C   UNL     1       4.669  -2.846  -1.342  0.00  0.00    +0.282 C 
ATOM      8  O   UNL     1       3.386  -2.216  -1.370  0.00  0.00    -0.338 OA
ATOM      9  O   UNL     1       3.018  -1.618   1.401  0.00  0.00    -0.341 OA
ATOM     10  C   UNL     1       1.797  -0.878   1.419  0.00  0.00    +0.275 C 
ENDROOT
BRANCH   7  11
ATOM     11  C   UNL     1       5.637  -2.052  -2.182  0.00  0.00    +0.008 A 
ATOM     12  C   UNL     1       5.211  -0.909  -2.832  0.00  0.00    +0.008 A 
ATOM     13  C   UNL     1       6.100  -0.178  -3.598  0.00  0.00    +0.000 A 
ATOM     14  C   UNL     1       7.411  -0.596  -3.723  0.00  0.00    +0.000 A 
ATOM     15  C   UNL     1       7.836  -1.742  -3.077  0.00  0.00    +0.000 A 
ATOM     16  C   UNL     1       6.948  -2.470  -2.307  0.00  0.00    +0.008 A 
ENDBRANCH   7  11
BRANCH   1  20
ATOM     17  C   UNL     1      -1.331   2.079   0.020  0.00  0.00    +0.109 C 
ATOM     18  C   UNL     1      -0.016   1.344   0.009  0.00  0.00    +0.210 C 
ATOM     19  O   UNL     1       1.026   1.964   0.003  0.00  0.00    -0.276 OA
ATOM     20  N   UNL     1       0.002  -0.004   0.002  0.00  0.00    -0.304 N 
ATOM     21  H   UNL     1      -0.831  -0.500   0.007  0.00  0.00    +0.149 HD
ENDBRANCH   1  20
BRANCH  10  22
ATOM     22  O   UNL     1       0.827  -1.577   2.201  0.00  0.00    -0.345 OA
BRANCH  22  23
ATOM     23  C   UNL     1       1.105  -1.583   3.603  0.00  0.00    +0.198 C 
BRANCH  23  24
ATOM     24  C   UNL     1       0.023  -2.344   4.326  0.00  0.00    -0.022 A 
ATOM     25  C   UNL     1      -1.096  -1.680   4.791  0.00  0.00    +0.006 A 
ATOM     26  C   UNL     1      -2.090  -2.378   5.450  0.00  0.00    +0.000 A 
ATOM     27  C   UNL     1      -1.960  -3.740   5.653  0.00  0.00    +0.000 A 
ATOM     28  C   UNL     1      -0.838  -4.403   5.193  0.00  0.00    +0.000 A 
ATOM     29  C   UNL     1       0.154  -3.705   4.529  0.00  0.00    +0.006 A 
ENDBRANCH  23  24
ENDBRANCH  22  23
ENDBRANCH  10  22
BRANCH   2  30
ATOM     30  O   UNL     1       0.084  -2.817   0.104  0.00  0.00    -0.453 OA
BRANCH  30  31
ATOM     31  C   UNL     1      -1.193  -2.679  -0.309  0.00  0.00    +0.332 C 
ATOM     32  O   UNL     1      -1.450  -1.974  -1.266  0.00  0.00    -0.246 OA
BRANCH  31  33
ATOM     33  C   UNL     1      -2.269  -3.376   0.395  0.00  0.00    +0.092 C 
ATOM     34  C   UNL     1      -3.546  -3.237  -0.018  0.00  0.00    +0.015 C 
BRANCH  34  35
ATOM     35  C   UNL     1      -4.629  -3.938   0.690  0.00  0.00    -0.025 A 
ATOM     36  C   UNL     1      -4.338  -4.754   1.788  0.00  0.00    +0.008 A 
ATOM     37  C   UNL     1      -5.358  -5.404   2.449  0.00  0.00    +0.001 A 
ATOM     38  C   UNL     1      -6.667  -5.259   2.022  0.00  0.00    +0.000 A 
ATOM     39  C   UNL     1      -6.963  -4.458   0.933  0.00  0.00    +0.001 A 
ATOM     40  C   UNL     1      -5.954  -3.797   0.265  0.00  0.00    +0.008 A 
ENDBRANCH  34  35
ENDBRANCH  31  33
ENDBRANCH  30  31
ENDBRANCH   2  30
TORSDOF 9
