REMARK  Name = ZINC04015336
REMARK  13 active torsions:
REMARK  status: ('A' for Active; 'I' for Inactive)
REMARK    1  A    between atoms: C_1  and  C_2
REMARK    2  A    between atoms: C_2  and  O_3
REMARK    3  A    between atoms: O_3  and  C_4
REMARK    4  A    between atoms: C_4  and  C_6
REMARK    5  A    between atoms: C_7  and  C_21
REMARK    6  A    between atoms: N_8  and  C_20
REMARK    7  A    between atoms: C_11  and  C_17
REMARK    8  A    between atoms: C_12  and  O_16
REMARK    9  A    between atoms: C_17  and  N_54
REMARK   10  A    between atoms: C_18  and  N_54
REMARK   11  A    between atoms: C_19  and  N_54
REMARK   12  A    between atoms: C_21  and  O_22
REMARK   13  A    between atoms: O_22  and  C_23
REMARK                            x       y       z     vdW  Elec       q    Type
REMARK                         _______ _______ _______ _____ _____    ______ ____
ROOT
ATOM      1  C   UNL     1      -0.180   1.376   0.427  0.00  0.00    +0.091 A 
ATOM      2  C   UNL     1      -0.241   0.015   0.510  0.00  0.00    +0.071 A 
ATOM      3  N   UNL     1       0.990  -0.512   0.311  0.00  0.00    -0.343 N 
ATOM      4  C   UNL     1       1.914   0.491   0.089  0.00  0.00    +0.051 A 
ATOM      5  C   UNL     1       1.229   1.715   0.150  0.00  0.00    +0.019 A 
ATOM      6  C   UNL     1       1.915   2.912  -0.039  0.00  0.00    -0.011 A 
ATOM      7  C   UNL     1       3.275   2.888  -0.287  0.00  0.00    +0.133 A 
ATOM      8  C   UNL     1       3.954   1.674  -0.348  0.00  0.00    +0.061 A 
ATOM      9  C   UNL     1       3.282   0.485  -0.162  0.00  0.00    +0.045 A 
ATOM     10 BR   UNL     1       5.814   1.656  -0.689  0.00  0.00    -0.046 Br
ATOM     11  C   UNL     1       1.300  -1.944   0.330  0.00  0.00    +0.149 C 
ENDROOT
BRANCH   1  12
ATOM     12  C   UNL     1      -1.296   2.316   0.577  0.00  0.00    +0.342 C 
ATOM     13  O   UNL     1      -1.623   2.701   1.683  0.00  0.00    -0.245 OA
BRANCH  12  14
ATOM     14  O   UNL     1      -1.960   2.754  -0.513  0.00  0.00    -0.461 OA
BRANCH  14  16
ATOM     15  C   UNL     1      -3.681   4.064  -1.631  0.00  0.00    +0.048 C 
ATOM     16  C   UNL     1      -3.054   3.682  -0.289  0.00  0.00    +0.229 C 
ENDBRANCH  14  16
ENDBRANCH  12  14
ENDBRANCH   1  12
BRANCH   7  17
ATOM     17  O   UNL     1       3.951   4.053  -0.472  0.00  0.00    -0.505 OA
ATOM     18  H   UNL     1       3.987   4.344  -1.394  0.00  0.00    +0.292 HD
ENDBRANCH   7  17
BRANCH   6  19
ATOM     19  C   UNL     1       1.180   4.226   0.027  0.00  0.00    -0.039 C 
BRANCH  19  22
ATOM     20  C   UNL     1       2.342   5.139   1.945  0.00  0.00    -0.096 C 
ATOM     21  C   UNL     1       0.005   5.661   1.583  0.00  0.00    -0.096 C 
ATOM     22  N   UNL     1       1.050   4.625   1.444  0.00  0.00    +0.379 N 
ATOM     23  H   UNL     1       0.780   3.804   1.999  0.00  0.00    -0.082 HD
ENDBRANCH  19  22
ENDBRANCH   6  19
BRANCH   2  24
ATOM     24  C   UNL     1      -1.491  -0.781   0.780  0.00  0.00    +0.283 C 
BRANCH  24  25
ATOM     25  O   UNL     1      -1.645  -0.964   2.189  0.00  0.00    -0.486 OA
BRANCH  25  26
ATOM     26  C   UNL     1      -2.730  -1.667   2.606  0.00  0.00    +0.121 A 
ATOM     27  C   UNL     1      -3.633  -2.166   1.678  0.00  0.00    +0.045 A 
ATOM     28  C   UNL     1      -4.732  -2.885   2.104  0.00  0.00    +0.004 A 
ATOM     29  C   UNL     1      -4.941  -3.098   3.454  0.00  0.00    +0.000 A 
ATOM     30  C   UNL     1      -4.046  -2.596   4.381  0.00  0.00    +0.004 A 
ATOM     31  C   UNL     1      -2.941  -1.881   3.960  0.00  0.00    +0.045 A 
ENDBRANCH  25  26
ENDBRANCH  24  25
ENDBRANCH   2  24
TORSDOF 9
