REMARK  Name = ZINC00990293
REMARK  4 active torsions:
REMARK  status: ('A' for Active; 'I' for Inactive)
REMARK    1  A    between atoms: C_5  and  N_7
REMARK    2  A    between atoms: N_12  and  C_15
REMARK    3  A    between atoms: C_15  and  N_16
REMARK    4  A    between atoms: N_16  and  C_17
REMARK                            x       y       z     vdW  Elec       q    Type
REMARK                         _______ _______ _______ _____ _____    ______ ____
ROOT
ATOM      1  C   UNL     1       3.642   1.700   5.593  0.00  0.00    +0.003 A 
ATOM      2  C   UNL     1       3.595   0.985   4.406  0.00  0.00    +0.014 A 
ATOM      3  C   UNL     1       2.838   1.460   3.347  0.00  0.00    +0.052 A 
ATOM      4  C   UNL     1       2.120   2.665   3.484  0.00  0.00    +0.080 A 
ATOM      5  C   UNL     1       2.176   3.369   4.675  0.00  0.00    +0.139 A 
ATOM      6  C   UNL     1       2.938   2.882   5.726  0.00  0.00    +0.033 A 
ATOM      7  C   UNL     1       1.438   2.878   2.190  0.00  0.00    +0.257 C 
ATOM      8  O   UNL     1       0.722   3.819   1.912  0.00  0.00    -0.269 OA
ATOM      9  N   UNL     1       1.742   1.855   1.371  0.00  0.00    -0.218 N 
ATOM     10  C   UNL     1       2.563   0.978   1.977  0.00  0.00    +0.255 C 
ATOM     11  O   UNL     1       3.005  -0.038   1.481  0.00  0.00    -0.269 OA
ENDROOT
BRANCH   5  12
ATOM     12  N   UNL     1       1.426   4.636   4.826  0.00  0.00    +0.057 N 
ATOM     13  O   UNL     1       1.477   5.253   5.875  0.00  0.00    -0.126 OA
ATOM     14  O   UNL     1       0.758   5.062   3.901  0.00  0.00    -0.126 OA
ENDBRANCH   5  12
BRANCH   9  15
ATOM     15  C   UNL     1       1.248   1.716  -0.001  0.00  0.00    +0.221 C 
BRANCH  15  16
ATOM     16  N   UNL     1      -0.011   0.966   0.007  0.00  0.00    -0.327 N 
ATOM     17  H   UNL     1       0.002  -0.004   0.002  0.00  0.00    +0.148 HD
BRANCH  16  18
ATOM     18  C   UNL     1      -1.231   1.648   0.017  0.00  0.00    +0.048 A 
ATOM     19  C   UNL     1      -1.251   3.037   0.025  0.00  0.00    +0.024 A 
ATOM     20  C   UNL     1      -2.458   3.709   0.034  0.00  0.00    +0.003 A 
ATOM     21  C   UNL     1      -3.646   3.001   0.036  0.00  0.00    +0.021 A 
ATOM     22  C   UNL     1      -3.631   1.617   0.028  0.00  0.00    +0.061 A 
ATOM     23  C   UNL     1      -2.425   0.939   0.013  0.00  0.00    +0.080 A 
ATOM     24 CL   UNL     1      -2.406  -0.797  -0.004  0.00  0.00    -0.080 Cl
ATOM     25 CL   UNL     1      -5.125   0.733   0.030  0.00  0.00    -0.082 Cl
ENDBRANCH  16  18
ENDBRANCH  15  16
ENDBRANCH   9  15
TORSDOF 4
