REMARK  Name = ZINC40389485
REMARK  7 active torsions:
REMARK  status: ('A' for Active; 'I' for Inactive)
REMARK    1  A    between atoms: C_1  and  C_2
REMARK    2  A    between atoms: C_2  and  N_3
REMARK    3  A    between atoms: C_6  and  C_11
REMARK    4  A    between atoms: N_19  and  C_21
REMARK    5  A    between atoms: C_21  and  C_23
REMARK    6  A    between atoms: C_21  and  C_29
REMARK    7  A    between atoms: N_31  and  C_32
REMARK                            x       y       z     vdW  Elec       q    Type
REMARK                         _______ _______ _______ _____ _____    ______ ____
ROOT
ATOM      1  N   UNL     1       0.619  -1.440   0.970  0.00  0.00    -0.257 N 
ATOM      2  C   UNL     1       1.984  -1.399   0.936  0.00  0.00    +0.042 C 
ATOM      3  C   UNL     1       2.719  -1.665   2.035  0.00  0.00    +0.058 C 
ATOM      4  C   UNL     1       1.978  -2.011   3.310  0.00  0.00    +0.142 C 
ATOM      5  N   UNL     1       0.507  -2.029   3.243  0.00  0.00    -0.288 N 
ATOM      6  C   UNL     1      -0.086  -1.735   2.069  0.00  0.00    +0.307 C 
ATOM      7  O   UNL     1      -1.300  -1.742   2.005  0.00  0.00    -0.252 OA
ATOM      8  C   UNL     1       4.094  -1.557   1.743  0.00  0.00    +0.247 C 
ATOM      9  O   UNL     1       4.985  -1.745   2.551  0.00  0.00    -0.270 OA
ATOM     10  N   UNL     1       4.293  -1.221   0.456  0.00  0.00    -0.277 N 
ATOM     11  C   UNL     1       2.969  -1.091  -0.170  0.00  0.00    +0.160 C 
ATOM     12  H   UNL     1      -0.023  -2.243   4.027  0.00  0.00    +0.151 HD
ENDROOT
BRANCH   4  13
ATOM     13  C   UNL     1       2.382  -1.016   4.367  0.00  0.00    -0.023 A 
ATOM     14  C   UNL     1       1.801   0.238   4.395  0.00  0.00    +0.006 A 
ATOM     15  C   UNL     1       2.172   1.150   5.365  0.00  0.00    +0.000 A 
ATOM     16  C   UNL     1       3.124   0.809   6.307  0.00  0.00    +0.000 A 
ATOM     17  C   UNL     1       3.705  -0.445   6.280  0.00  0.00    +0.000 A 
ATOM     18  C   UNL     1       3.331  -1.359   5.313  0.00  0.00    +0.006 A 
ENDBRANCH   4  13
BRANCH   1  20
ATOM     19  C   UNL     1      -0.396   0.363  -0.335  0.00  0.00    +0.025 C 
ATOM     20  C   UNL     1      -0.113  -1.139  -0.263  0.00  0.00    +0.111 C 
ENDBRANCH   1  20
BRANCH  10  21
ATOM     21  C   UNL     1       5.587  -1.021  -0.200  0.00  0.00    +0.193 C 
BRANCH  21  22
ATOM     22  C   UNL     1       6.338  -2.327  -0.238  0.00  0.00    -0.018 A 
ATOM     23  C   UNL     1       5.694  -3.484  -0.635  0.00  0.00    +0.006 A 
ATOM     24  C   UNL     1       6.383  -4.682  -0.669  0.00  0.00    +0.000 A 
ATOM     25  C   UNL     1       7.716  -4.723  -0.306  0.00  0.00    +0.000 A 
ATOM     26  C   UNL     1       8.361  -3.566   0.090  0.00  0.00    +0.000 A 
ATOM     27  C   UNL     1       7.673  -2.367   0.120  0.00  0.00    +0.006 A 
ENDBRANCH  21  22
BRANCH  21  28
ATOM     28  C   UNL     1       5.367  -0.528  -1.607  0.00  0.00    +0.242 C 
ATOM     29  O   UNL     1       4.239  -0.360  -2.021  0.00  0.00    -0.273 OA
ATOM     30  N   UNL     1       6.423  -0.274  -2.406  0.00  0.00    -0.284 N 
ATOM     31  H   UNL     1       7.321  -0.476  -2.101  0.00  0.00    +0.155 HD
BRANCH  30  32
ATOM     32  C   UNL     1       6.223   0.283  -3.675  0.00  0.00    +0.034 A 
ATOM     33  C   UNL     1       7.065  -0.060  -4.724  0.00  0.00    +0.026 A 
ATOM     34  C   UNL     1       6.866   0.490  -5.976  0.00  0.00    +0.040 A 
ATOM     35  C   UNL     1       5.828   1.383  -6.184  0.00  0.00    +0.124 A 
ATOM     36  C   UNL     1       4.987   1.726  -5.138  0.00  0.00    +0.040 A 
ATOM     37  C   UNL     1       5.179   1.173  -3.887  0.00  0.00    +0.026 A 
ATOM     38  F   UNL     1       5.636   1.920  -7.408  0.00  0.00    -0.205 F 
ENDBRANCH  30  32
ENDBRANCH  21  28
ENDBRANCH  10  21
TORSDOF 6
