REMARK  Name = ZINC63761278
REMARK  5 active torsions:
REMARK  status: ('A' for Active; 'I' for Inactive)
REMARK    1  A    between atoms: C_1  and  C_2
REMARK    2  A    between atoms: C_5  and  C_33
REMARK    3  A    between atoms: C_6  and  N_8
REMARK    4  A    between atoms: C_9  and  S_32
REMARK    5  A    between atoms: C_13  and  C_16
REMARK                            x       y       z     vdW  Elec       q    Type
REMARK                         _______ _______ _______ _____ _____    ______ ____
ROOT
ATOM      1  N   UNL     1      -0.532  -2.645   2.195  0.00  0.00    -0.242 N 
ATOM      2  C   UNL     1       0.879  -2.924   2.408  0.00  0.00    +0.225 C 
ATOM      3  N   UNL     1       1.166  -3.282   3.788  0.00  0.00    -0.288 N 
ATOM      4  C   UNL     1       0.237  -3.728   4.640  0.00  0.00    +0.229 C 
ATOM      5  C   UNL     1      -1.202  -3.884   4.243  0.00  0.00    +0.180 C 
ATOM      6  C   UNL     1      -1.497  -3.073   3.015  0.00  0.00    +0.235 C 
ATOM      7  O   UNL     1      -2.651  -2.801   2.755  0.00  0.00    -0.274 OA
ATOM      8  O   UNL     1       0.568  -4.017   5.770  0.00  0.00    -0.275 OA
ATOM      9  H   UNL     1       2.078  -3.192   4.107  0.00  0.00    +0.151 HD
ENDROOT
BRANCH   5  10
ATOM     10  C   UNL     1      -1.492  -5.360   3.962  0.00  0.00    +0.101 C 
ATOM     11  C   UNL     1      -1.510  -6.142   5.278  0.00  0.00    +0.124 C 
ATOM     12  C   UNL     1      -2.710  -5.627   6.064  0.00  0.00    -0.036 C 
ATOM     13  C   UNL     1      -2.250  -5.252   7.249  0.00  0.00    -0.001 A 
ATOM     14  C   UNL     1      -2.933  -4.758   8.456  0.00  0.00    +0.010 A 
ATOM     15  C   UNL     1      -2.135  -4.446   9.511  0.00  0.00    +0.001 A 
ATOM     16  C   UNL     1      -0.743  -4.574   9.487  0.00  0.00    +0.002 A 
ATOM     17  C   UNL     1      -0.032  -5.026   8.423  0.00  0.00    +0.026 A 
ATOM     18  C   UNL     1      -0.761  -5.391   7.254  0.00  0.00    +0.043 A 
ATOM     19  N   UNL     1      -0.333  -5.877   6.105  0.00  0.00    -0.376 N 
ATOM     20  C   UNL     1      -4.082  -5.529   5.440  0.00  0.00    +0.048 C 
ATOM     21  C   UNL     1      -3.886  -4.836   4.079  0.00  0.00    +0.085 C 
ATOM     22  N   UNL     1      -2.813  -5.494   3.327  0.00  0.00    -0.310 NA
ATOM     23  H   UNL     1      -2.789  -5.170   2.371  0.00  0.00    +0.122 HD
ATOM     24  H   UNL     1       0.589  -6.030   5.846  0.00  0.00    +0.160 HD
ENDBRANCH   5  10
BRANCH   1  30
ATOM     25  C   UNL     1      -1.418   1.747   0.172  0.00  0.00    +0.044 C 
ATOM     26  C   UNL     1      -1.335   0.246   0.070  0.00  0.00    -0.049 A 
ATOM     27  C   UNL     1      -1.621  -0.382  -1.129  0.00  0.00    +0.004 A 
ATOM     28  C   UNL     1      -1.546  -1.759  -1.226  0.00  0.00    +0.005 A 
ATOM     29  C   UNL     1      -1.185  -2.512  -0.126  0.00  0.00    -0.029 A 
ATOM     30  C   UNL     1      -0.897  -1.885   1.079  0.00  0.00    +0.042 A 
ATOM     31  C   UNL     1      -0.969  -0.501   1.172  0.00  0.00    +0.027 A 
ATOM     32  C   UNL     1      -1.104  -4.013  -0.233  0.00  0.00    +0.045 C 
ENDBRANCH   1  30
BRANCH   2  33
ATOM     33  S   UNL     1       1.843  -1.451   1.972  0.00  0.00    -0.136 S 
ATOM     34  H   UNL     1       3.117  -1.815   2.203  0.00  0.00    +0.105 HD
ENDBRANCH   2  33
TORSDOF 3
