REMARK  Name = ZINC20932942
REMARK  8 active torsions:
REMARK  status: ('A' for Active; 'I' for Inactive)
REMARK    1  A    between atoms: C_1  and  C_2
REMARK    2  A    between atoms: C_7  and  S_8
REMARK    3  A    between atoms: S_8  and  N_11
REMARK    4  A    between atoms: N_11  and  C_12
REMARK    5  A    between atoms: N_11  and  C_20
REMARK    6  A    between atoms: C_12  and  C_13
REMARK    7  A    between atoms: C_13  and  C_14
REMARK    8  A    between atoms: C_20  and  C_21
REMARK                            x       y       z     vdW  Elec       q    Type
REMARK                         _______ _______ _______ _____ _____    ______ ____
ROOT
ATOM      1  S   UNL     1       0.300   0.130   2.528  0.00  0.00    +0.061 S 
ATOM      2  O   UNL     1      -0.839   0.967   2.375  0.00  0.00    -0.153 OA
ATOM      3  O   UNL     1       0.427  -0.794   3.600  0.00  0.00    -0.153 OA
ENDROOT
BRANCH   1  10
ATOM      4  C   UNL     1       0.209   1.338  -0.239  0.00  0.00    +0.046 C 
ATOM      5  C   UNL     1       0.391  -0.157  -0.185  0.00  0.00    -0.022 A 
ATOM      6  C   UNL     1       0.510  -0.878  -1.355  0.00  0.00    +0.033 A 
ATOM      7  C   UNL     1       0.678  -2.258  -1.309  0.00  0.00    +0.066 A 
ATOM      8  C   UNL     1       0.726  -2.908  -0.074  0.00  0.00    +0.068 A 
ATOM      9  C   UNL     1       0.606  -2.170   1.099  0.00  0.00    +0.056 A 
ATOM     10  C   UNL     1       0.445  -0.801   1.040  0.00  0.00    +0.110 A 
ATOM     11  N   UNL     1       0.894  -4.288  -0.006  0.00  0.00    -0.316 N 
ATOM     12  H   UNL     1       0.926  -4.730   0.856  0.00  0.00    +0.169 HD
ATOM     13  C   UNL     1       1.011  -5.011  -1.139  0.00  0.00    +0.314 A 
ATOM     14  O   UNL     1       1.157  -6.216  -1.085  0.00  0.00    -0.262 OA
ATOM     15  C   UNL     1       0.960  -4.317  -2.458  0.00  0.00    +0.314 A 
ATOM     16  O   UNL     1       1.064  -4.950  -3.489  0.00  0.00    -0.262 OA
ATOM     17  N   UNL     1       0.796  -2.978  -2.494  0.00  0.00    -0.316 N 
ATOM     18  H   UNL     1       0.761  -2.518  -3.346  0.00  0.00    +0.169 HD
ENDBRANCH   1  10
BRANCH   1  19
ATOM     19  N   UNL     1       1.616   1.132   2.609  0.00  0.00    -0.172 NA
BRANCH  19  20
ATOM     20  C   UNL     1       1.500   2.529   2.183  0.00  0.00    +0.114 C 
BRANCH  20  21
ATOM     21  C   UNL     1       1.281   3.420   3.407  0.00  0.00    +0.052 C 
BRANCH  21  22
ATOM     22  C   UNL     1       1.162   4.857   2.969  0.00  0.00    -0.046 A 
ATOM     23  C   UNL     1       2.292   5.647   2.877  0.00  0.00    +0.003 A 
ATOM     24  C   UNL     1       2.183   6.965   2.474  0.00  0.00    +0.000 A 
ATOM     25  C   UNL     1       0.944   7.492   2.163  0.00  0.00    +0.000 A 
ATOM     26  C   UNL     1      -0.186   6.702   2.254  0.00  0.00    +0.000 A 
ATOM     27  C   UNL     1      -0.077   5.383   2.652  0.00  0.00    +0.003 A 
ENDBRANCH  21  22
ENDBRANCH  20  21
ENDBRANCH  19  20
BRANCH  19  28
ATOM     28  C   UNL     1       2.896   0.622   3.107  0.00  0.00    +0.144 C 
BRANCH  28  29
ATOM     29  C   UNL     1       3.749   0.187   1.944  0.00  0.00    -0.032 A 
ATOM     30  C   UNL     1       3.671  -1.112   1.477  0.00  0.00    +0.005 A 
ATOM     31  C   UNL     1       4.454  -1.511   0.411  0.00  0.00    +0.000 A 
ATOM     32  C   UNL     1       5.316  -0.612  -0.189  0.00  0.00    +0.000 A 
ATOM     33  C   UNL     1       5.394   0.687   0.277  0.00  0.00    +0.000 A 
ATOM     34  C   UNL     1       4.607   1.088   1.341  0.00  0.00    +0.005 A 
ENDBRANCH  28  29
ENDBRANCH  19  28
ENDBRANCH   1  19
TORSDOF 7
