REMARK  Name = ZINC39654075
REMARK  13 active torsions:
REMARK  status: ('A' for Active; 'I' for Inactive)
REMARK    1  A    between atoms: C_1  and  C_2
REMARK    2  A    between atoms: C_2  and  O_3
REMARK    3  A    between atoms: O_3  and  C_4
REMARK    4  A    between atoms: C_7  and  C_10
REMARK    5  A    between atoms: C_10  and  C_11
REMARK    6  A    between atoms: C_11  and  N_12
REMARK    7  A    between atoms: C_13  and  C_15
REMARK    8  A    between atoms: C_26  and  C_28
REMARK    9  A    between atoms: C_28  and  C_30
REMARK   10  A    between atoms: C_28  and  O_33
REMARK   11  A    between atoms: C_30  and  C_31
REMARK   12  A    between atoms: C_30  and  C_32
REMARK   13  A    between atoms: O_33  and  C_34
REMARK                            x       y       z     vdW  Elec       q    Type
REMARK                         _______ _______ _______ _____ _____    ______ ____
ROOT
ATOM      1  C   UNL     1       2.761 -10.591   1.555  0.00  0.00    +0.100 C 
ATOM      2  C   UNL     1       1.710 -11.126   0.557  0.00  0.00    +0.121 C 
ATOM      3  N   UNL     1       2.482 -11.432  -0.671  0.00  0.00    -0.297 N 
ATOM      4  C   UNL     1       3.751 -12.015  -0.173  0.00  0.00    +0.115 C 
ATOM      5  C   UNL     1       4.098 -11.179   1.074  0.00  0.00    -0.004 C 
ATOM      6  C   UNL     1       5.066 -10.059   0.705  0.00  0.00    -0.010 C 
ATOM      7  C   UNL     1       6.407 -10.668   0.284  0.00  0.00    -0.082 C 
ATOM      8  N   UNL     1       6.951 -11.467   1.388  0.00  0.00    +0.379 N 
ATOM      9  C   UNL     1       6.059 -12.597   1.676  0.00  0.00    -0.082 C 
ATOM     10  C   UNL     1       4.703 -12.070   2.155  0.00  0.00    -0.010 C 
ATOM     11  C   UNL     1       2.113 -11.226  -1.951  0.00  0.00    +0.257 C 
ATOM     12  O   UNL     1       2.823 -11.610  -2.856  0.00  0.00    -0.272 OA
ATOM     13  H   UNL     1       7.862 -11.817   1.131  0.00  0.00    -0.086 HD
ATOM     14  H   UNL     1       7.036 -10.889   2.211  0.00  0.00    -0.086 HD
ENDROOT
BRANCH   1  16
ATOM     15  N   UNL     1       2.898  -8.381   2.659  0.00  0.00    -0.315 N 
ATOM     16  C   UNL     1       2.805  -9.085   1.513  0.00  0.00    +0.218 C 
ATOM     17  O   UNL     1       2.757  -8.506   0.449  0.00  0.00    -0.275 OA
ATOM     18  H   UNL     1       2.937  -8.844   3.511  0.00  0.00    +0.149 HD
BRANCH  15  19
ATOM     19  C   UNL     1       2.941  -6.918   2.618  0.00  0.00    +0.109 C 
BRANCH  19  20
ATOM     20  C   UNL     1       3.047  -6.371   4.043  0.00  0.00    +0.054 C 
BRANCH  20  24
ATOM     21  C   UNL     1       3.172  -2.101   3.925  0.00  0.00    +0.121 A 
ATOM     22  C   UNL     1       1.954  -2.758   4.019  0.00  0.00    +0.046 A 
ATOM     23  C   UNL     1       1.916  -4.138   4.057  0.00  0.00    +0.007 A 
ATOM     24  C   UNL     1       3.091  -4.865   4.002  0.00  0.00    -0.046 A 
ATOM     25  C   UNL     1       4.306  -4.212   3.909  0.00  0.00    +0.007 A 
ATOM     26  C   UNL     1       4.349  -2.832   3.864  0.00  0.00    +0.046 A 
BRANCH  21  27
ATOM     27  O   UNL     1       3.211  -0.743   3.888  0.00  0.00    -0.492 OA
BRANCH  27  29
ATOM     28  C   UNL     1       2.205   1.454   3.899  0.00  0.00    +0.048 C 
ATOM     29  C   UNL     1       1.961  -0.055   3.954  0.00  0.00    +0.225 C 
ENDBRANCH  27  29
ENDBRANCH  21  27
ENDBRANCH  20  24
ENDBRANCH  19  20
ENDBRANCH  15  19
ENDBRANCH   1  16
BRANCH  11  30
ATOM     30  C   UNL     1       0.818 -10.518  -2.257  0.00  0.00    +0.261 C 
BRANCH  30  31
ATOM     31  C   UNL     1       1.115  -9.203  -2.980  0.00  0.00    +0.033 C 
ATOM     32  C   UNL     1      -0.202  -8.521  -3.358  0.00  0.00    +0.011 C 
ATOM     33  C   UNL     1       1.919  -8.284  -2.058  0.00  0.00    +0.011 C 
ENDBRANCH  30  31
BRANCH  30  34
ATOM     34  O   UNL     1       0.008 -11.348  -3.092  0.00  0.00    -0.479 OA
BRANCH  34  35
ATOM     35  C   UNL     1      -1.332 -11.329  -2.866  0.00  0.00    +0.122 A 
ATOM     36  C   UNL     1      -2.180 -12.096  -3.652  0.00  0.00    +0.045 A 
ATOM     37  C   UNL     1      -3.542 -12.075  -3.420  0.00  0.00    +0.004 A 
ATOM     38  C   UNL     1      -4.060 -11.291  -2.405  0.00  0.00    +0.000 A 
ATOM     39  C   UNL     1      -3.217 -10.526  -1.621  0.00  0.00    +0.004 A 
ATOM     40  C   UNL     1      -1.854 -10.548  -1.845  0.00  0.00    +0.045 A 
ENDBRANCH  34  35
ENDBRANCH  30  34
ENDBRANCH  11  30
TORSDOF 10
