REMARK  Name = ZINC16909211
REMARK  9 active torsions:
REMARK  status: ('A' for Active; 'I' for Inactive)
REMARK    1  A    between atoms: C_1  and  C_2
REMARK    2  A    between atoms: C_5  and  S_8
REMARK    3  A    between atoms: S_8  and  N_11
REMARK    4  A    between atoms: N_11  and  N_12
REMARK    5  A    between atoms: C_16  and  C_17
REMARK    6  A    between atoms: C_21  and  O_23
REMARK    7  A    between atoms: O_23  and  C_24
REMARK    8  A    between atoms: C_24  and  C_26
REMARK    9  A    between atoms: C_24  and  C_27
REMARK                            x       y       z     vdW  Elec       q    Type
REMARK                         _______ _______ _______ _____ _____    ______ ____
ROOT
ATOM      1  N   UNL     1      -1.032  -2.594   0.970  0.00  0.00    -0.167 N 
ATOM      2  C   UNL     1      -0.881  -1.313   0.676  0.00  0.00    +0.273 C 
ATOM      3  O   UNL     1       0.216  -0.829   0.472  0.00  0.00    -0.268 OA
ATOM      4  C   UNL     1      -2.115  -0.501   0.608  0.00  0.00    +0.078 C 
ATOM      5  C   UNL     1      -2.267   0.818   0.333  0.00  0.00    +0.028 C 
ATOM      6  S   UNL     1      -3.349  -1.734   0.997  0.00  0.00    -0.060 S 
ATOM      7  C   UNL     1      -2.250  -3.127   1.196  0.00  0.00    +0.137 C 
ATOM      8  S   UNL     1      -2.646  -4.746   1.586  0.00  0.00    -0.026 S 
ENDROOT
BRANCH   5   9
ATOM      9  C   UNL     1      -1.118   1.610  -0.131  0.00  0.00    -0.020 A 
ATOM     10  C   UNL     1      -0.914   2.905   0.357  0.00  0.00    +0.008 A 
ATOM     11  C   UNL     1       0.168   3.642  -0.077  0.00  0.00    +0.004 A 
ATOM     12  C   UNL     1       1.051   3.106  -0.998  0.00  0.00    +0.046 A 
ATOM     13  C   UNL     1       0.855   1.823  -1.492  0.00  0.00    +0.122 A 
ATOM     14  C   UNL     1      -0.227   1.073  -1.066  0.00  0.00    +0.053 A 
BRANCH  13  15
ATOM     15  O   UNL     1       1.727   1.304  -2.396  0.00  0.00    -0.478 OA
BRANCH  15  16
ATOM     16  C   UNL     1       2.885   2.083  -2.702  0.00  0.00    +0.282 C 
ATOM     17  C   UNL     1       2.542   3.100  -3.792  0.00  0.00    +0.064 C 
BRANCH  16  18
ATOM     18  C   UNL     1       3.986   1.177  -3.190  0.00  0.00    +0.395 C 
ATOM     19  O   UNL     1       3.771  -0.001  -3.353  0.00  0.00    -0.242 OA
ATOM     20  O   UNL     1       5.205   1.678  -3.442  0.00  0.00    -0.242 OA
ENDBRANCH  16  18
ENDBRANCH  15  16
ENDBRANCH  13  15
ENDBRANCH   5   9
BRANCH   1  21
ATOM     21  N   UNL     1       0.100  -3.416   1.049  0.00  0.00    -0.100 NA
ATOM     22  H   UNL     1       0.419  -3.880   0.259  0.00  0.00    +0.172 HD
BRANCH  21  23
ATOM     23  S   UNL     1       0.893  -3.595   2.492  0.00  0.00    +0.074 S 
ATOM     24  O   UNL     1       1.891  -4.586   2.286  0.00  0.00    -0.152 OA
ATOM     25  O   UNL     1       1.202  -2.287   2.951  0.00  0.00    -0.152 OA
BRANCH  23  30
ATOM     26  C   UNL     1      -3.054  -5.917   6.421  0.00  0.00    +0.044 C 
ATOM     27  C   UNL     1      -2.068  -5.337   5.440  0.00  0.00    -0.050 A 
ATOM     28  C   UNL     1      -1.284  -6.176   4.670  0.00  0.00    +0.005 A 
ATOM     29  C   UNL     1      -0.380  -5.644   3.769  0.00  0.00    +0.029 A 
ATOM     30  C   UNL     1      -0.260  -4.274   3.639  0.00  0.00    +0.107 A 
ATOM     31  C   UNL     1      -1.039  -3.434   4.413  0.00  0.00    +0.029 A 
ATOM     32  C   UNL     1      -1.946  -3.966   5.310  0.00  0.00    +0.005 A 
ENDBRANCH  23  30
ENDBRANCH  21  23
ENDBRANCH   1  21
TORSDOF 7
