REMARK  Name = ZINC19847908
REMARK  6 active torsions:
REMARK  status: ('A' for Active; 'I' for Inactive)
REMARK    1  A    between atoms: C_1  and  C_2
REMARK    2  A    between atoms: C_7  and  S_10
REMARK    3  A    between atoms: S_10  and  C_11
REMARK    4  A    between atoms: C_11  and  C_12
REMARK    5  A    between atoms: C_16  and  C_18
REMARK    6  A    between atoms: N_19  and  O_20
REMARK                            x       y       z     vdW  Elec       q    Type
REMARK                         _______ _______ _______ _____ _____    ______ ____
ROOT
ATOM      1  C   UNL     1       2.875   2.339  -5.584  0.00  0.00    -0.036 A 
ATOM      2  C   UNL     1       3.104   1.306  -6.476  0.00  0.00    +0.004 A 
ATOM      3  C   UNL     1       3.946   1.493  -7.558  0.00  0.00    +0.001 A 
ATOM      4  C   UNL     1       4.563   2.712  -7.753  0.00  0.00    +0.011 A 
ATOM      5  C   UNL     1       4.337   3.756  -6.858  0.00  0.00    +0.018 A 
ATOM      6  C   UNL     1       3.482   3.563  -5.772  0.00  0.00    +0.016 A 
ENDROOT
BRANCH   5   7
ATOM      7  C   UNL     1       4.996   5.066  -7.061  0.00  0.00    +0.162 C 
ATOM      8  N   UNL     1       4.783   6.038  -6.224  0.00  0.00    -0.072 NA
ATOM      9  N   UNL     1       5.839   5.256  -8.143  0.00  0.00    -0.340 N 
ATOM     10  H   UNL     1       5.998   4.531  -8.767  0.00  0.00    +0.144 HD
ATOM     11  H   UNL     1       6.271   6.114  -8.276  0.00  0.00    +0.144 HD
BRANCH   8  12
ATOM     12  O   UNL     1       5.413   7.291  -6.419  0.00  0.00    -0.408 OA
ATOM     13  H   UNL     1       5.194   7.951  -5.746  0.00  0.00    +0.328 HD
ENDBRANCH   8  12
ENDBRANCH   5   7
BRANCH   1  14
ATOM     14  C   UNL     1       1.957   2.127  -4.409  0.00  0.00    +0.112 C 
BRANCH  14  15
ATOM     15  S   UNL     1       0.259   2.556  -4.883  0.00  0.00    -0.083 S 
BRANCH  15  22
ATOM     16  C   UNL     1      -0.013   1.086   0.008  0.00  0.00    +0.066 C 
ATOM     17  C   UNL     1      -0.742   1.585  -1.213  0.00  0.00    +0.046 A 
ATOM     18  C   UNL     1      -2.090   1.794  -1.164  0.00  0.00    +0.093 A 
ATOM     19  C   UNL     1      -2.748   2.260  -2.315  0.00  0.00    +0.252 A 
ATOM     20  O   UNL     1      -3.952   2.457  -2.306  0.00  0.00    -0.268 OA
ATOM     21  N   UNL     1      -2.023   2.485  -3.431  0.00  0.00    -0.302 N 
ATOM     22  C   UNL     1      -0.680   2.259  -3.422  0.00  0.00    +0.169 A 
ATOM     23  N   UNL     1      -0.069   1.827  -2.335  0.00  0.00    -0.228 NA
ATOM     24  H   UNL     1      -2.457   2.806  -4.237  0.00  0.00    +0.171 HD
ENDBRANCH  15  22
ENDBRANCH  14  15
ENDBRANCH   1  14
TORSDOF 5
