REMARK  Name = ZINC08791408
REMARK  11 active torsions:
REMARK  status: ('A' for Active; 'I' for Inactive)
REMARK    1  A    between atoms: C_1  and  C_2
REMARK    2  A    between atoms: C_3  and  C_33
REMARK    3  A    between atoms: C_9  and  O_19
REMARK    4  A    between atoms: C_15  and  C_17
REMARK    5  A    between atoms: C_15  and  C_18
REMARK    6  A    between atoms: O_19  and  C_20
REMARK    7  A    between atoms: C_20  and  C_21
REMARK    8  A    between atoms: N_23  and  C_24
REMARK    9  A    between atoms: C_27  and  C_30
REMARK   10  A    between atoms: C_30  and  C_31
REMARK   11  A    between atoms: C_31  and  O_32
REMARK                            x       y       z     vdW  Elec       q    Type
REMARK                         _______ _______ _______ _____ _____    ______ ____
ROOT
ATOM      1  C   UNL     1       1.074   0.289  -1.208  0.00  0.00    +0.045 C 
ATOM      2  C   UNL     1       1.007  -1.177  -0.866  0.00  0.00    -0.027 A 
ATOM      3  C   UNL     1       1.045  -2.118  -1.845  0.00  0.00    +0.038 A 
ATOM      4  C   UNL     1       0.983  -3.485  -1.507  0.00  0.00    +0.340 A 
ATOM      5  O   UNL     1       1.017  -4.323  -2.390  0.00  0.00    -0.245 OA
ATOM      6  O   UNL     1       0.888  -3.879  -0.225  0.00  0.00    -0.421 OA
ATOM      7  C   UNL     1       0.845  -2.973   0.777  0.00  0.00    +0.149 A 
ATOM      8  C   UNL     1       0.910  -1.599   0.485  0.00  0.00    +0.063 A 
ATOM      9  C   UNL     1       0.872  -0.661   1.531  0.00  0.00    +0.136 A 
ATOM     10  C   UNL     1       0.776  -1.101   2.834  0.00  0.00    +0.092 A 
ATOM     11  C   UNL     1       0.715  -2.466   3.121  0.00  0.00    +0.131 A 
ATOM     12  C   UNL     1       0.738  -3.396   2.096  0.00  0.00    +0.038 A 
ATOM     13  C   UNL     1       0.661  -4.876   2.374  0.00  0.00    +0.046 C 
ATOM     14  C   UNL     1       0.988  -5.143   3.845  0.00  0.00    +0.052 C 
ATOM     15  C   UNL     1       0.167  -4.172   4.704  0.00  0.00    +0.105 C 
ATOM     16  O   UNL     1       0.626  -2.843   4.423  0.00  0.00    -0.486 OA
ATOM     17  C   UNL     1      -1.317  -4.309   4.361  0.00  0.00    +0.055 C 
ATOM     18  C   UNL     1       0.386  -4.483   6.186  0.00  0.00    +0.055 C 
ATOM     19  C   UNL     1       1.153  -1.702  -3.289  0.00  0.00    +0.051 C 
ENDROOT
BRANCH   9  20
ATOM     20  O   UNL     1       0.931   0.667   1.261  0.00  0.00    -0.482 OA
BRANCH  20  21
ATOM     21  C   UNL     1       0.887   1.559   2.377  0.00  0.00    +0.324 C 
BRANCH  21  22
ATOM     22  C   UNL     1       0.962   2.982   1.886  0.00  0.00    +0.255 C 
ATOM     23  O   UNL     1       1.045   3.210   0.698  0.00  0.00    -0.272 OA
ATOM     24  N   UNL     1       0.938   4.001   2.768  0.00  0.00    -0.283 N 
ATOM     25  H   UNL     1       0.946   3.818   3.721  0.00  0.00    +0.155 HD
BRANCH  24  26
ATOM     26  C   UNL     1       0.901   5.322   2.309  0.00  0.00    +0.034 A 
ATOM     27  C   UNL     1       1.562   6.321   3.012  0.00  0.00    +0.023 A 
ATOM     28  C   UNL     1       1.523   7.625   2.556  0.00  0.00    +0.005 A 
ATOM     29  C   UNL     1       0.827   7.935   1.402  0.00  0.00    -0.045 A 
ATOM     30  C   UNL     1       0.167   6.943   0.701  0.00  0.00    +0.005 A 
ATOM     31  C   UNL     1       0.207   5.636   1.148  0.00  0.00    +0.023 A 
BRANCH  29  32
ATOM     32  C   UNL     1       0.787   9.358   0.908  0.00  0.00    +0.063 C 
BRANCH  32  33
ATOM     33  C   UNL     1       1.962   9.602  -0.040  0.00  0.00    +0.160 C 
BRANCH  33  34
ATOM     34  O   UNL     1       1.924  10.952  -0.509  0.00  0.00    -0.395 OA
ATOM     35  H   UNL     1       2.642  11.178  -1.116  0.00  0.00    +0.209 HD
ENDBRANCH  33  34
ENDBRANCH  32  33
ENDBRANCH  29  32
ENDBRANCH  24  26
ENDBRANCH  21  22
ENDBRANCH  20  21
ENDBRANCH   9  20
TORSDOF 7
