REMARK  Name = ZINC39404343
REMARK  12 active torsions:
REMARK  status: ('A' for Active; 'I' for Inactive)
REMARK    1  A    between atoms: C_1  and  C_2
REMARK    2  A    between atoms: C_2  and  O_3
REMARK    3  A    between atoms: O_3  and  C_4
REMARK    4  A    between atoms: C_4  and  C_6
REMARK    5  A    between atoms: C_8  and  C_38
REMARK    6  A    between atoms: C_10  and  C_36
REMARK    7  A    between atoms: C_12  and  N_15
REMARK    8  A    between atoms: C_16  and  C_18
REMARK    9  A    between atoms: C_18  and  S_19
REMARK   10  A    between atoms: S_19  and  C_20
REMARK   11  A    between atoms: N_26  and  N_27
REMARK   12  A    between atoms: C_28  and  C_29
REMARK                            x       y       z     vdW  Elec       q    Type
REMARK                         _______ _______ _______ _____ _____    ______ ____
ROOT
ATOM      1  C   UNL     1      -7.500  -5.103   3.315  0.00  0.00    +0.168 C 
ENDROOT
BRANCH   1   3
ATOM      2  N   UNL     1      -5.646  -4.412   1.829  0.00  0.00    -0.302 N 
ATOM      3  C   UNL     1      -6.056  -5.144   2.884  0.00  0.00    +0.224 C 
ATOM      4  O   UNL     1      -5.263  -5.837   3.486  0.00  0.00    -0.275 OA
ATOM      5  H   UNL     1      -6.281  -3.858   1.348  0.00  0.00    +0.150 HD
BRANCH   2   9
ATOM      6  C   UNL     1      -2.881  -2.427   0.017  0.00  0.00    +0.161 C 
ATOM      7  C   UNL     1      -2.891  -3.840  -0.634  0.00  0.00    +0.029 C 
ATOM      8  C   UNL     1      -4.133  -4.591  -0.127  0.00  0.00    +0.126 C 
ATOM      9  C   UNL     1      -4.243  -4.452   1.411  0.00  0.00    +0.149 C 
ATOM     10  S   UNL     1      -3.417  -2.839   1.731  0.00  0.00    -0.122 S 
ATOM     11  C   UNL     1      -2.953  -3.707  -2.157  0.00  0.00    +0.010 C 
BRANCH   6  12
ATOM     12  C   UNL     1      -1.496  -1.832   0.006  0.00  0.00    +0.321 C 
ATOM     13  O   UNL     1      -0.528  -2.555  -0.007  0.00  0.00    -0.250 OA
BRANCH  12  14
ATOM     14  O   UNL     1      -1.339  -0.499   0.012  0.00  0.00    -0.464 OA
BRANCH  14  16
ATOM     15  C   UNL     1      -0.019   1.526   0.010  0.00  0.00    +0.048 C 
ATOM     16  C   UNL     1       0.002  -0.004   0.002  0.00  0.00    +0.229 C 
ENDBRANCH  14  16
ENDBRANCH  12  14
ENDBRANCH   6  12
BRANCH   8  17
ATOM     17  C   UNL     1      -5.337  -4.025  -0.755  0.00  0.00    +0.069 C 
ATOM     18  N   UNL     1      -6.267  -3.588  -1.240  0.00  0.00    -0.196 NA
ENDBRANCH   8  17
ENDBRANCH   2   9
ENDBRANCH   1   3
BRANCH   1  19
ATOM     19  S   UNL     1      -7.733  -6.187   4.750  0.00  0.00    -0.104 S 
BRANCH  19  20
ATOM     20  C   UNL     1      -9.498  -6.027   5.139  0.00  0.00    +0.274 C 
ATOM     21  N   UNL     1     -10.321  -6.411   3.976  0.00  0.00    -0.281 N 
ATOM     22  C   UNL     1     -11.025  -5.258   3.666  0.00  0.00    +0.231 C 
ATOM     23  N   UNL     1     -10.683  -4.273   4.532  0.00  0.00    -0.116 NA
ATOM     24  N   UNL     1      -9.848  -4.618   5.374  0.00  0.00    -0.150 NA
ATOM     25  N   UNL     1     -11.892  -5.138   2.683  0.00  0.00    -0.247 N 
ATOM     26  H   UNL     1     -10.360  -7.272   3.531  0.00  0.00    +0.152 HD
ATOM     27  H   UNL     1     -12.343  -4.293   2.535  0.00  0.00    +0.192 HD
BRANCH  25  28
ATOM     28  N   UNL     1     -12.142  -6.146   1.917  0.00  0.00    -0.179 NA
ATOM     29  C   UNL     1     -13.004  -6.027   0.940  0.00  0.00    +0.140 C 
BRANCH  29  30
ATOM     30  C   UNL     1     -13.288  -7.175   0.067  0.00  0.00    -0.005 A 
ATOM     31  C   UNL     1     -12.643  -8.398   0.282  0.00  0.00    +0.011 A 
ATOM     32  C   UNL     1     -12.915  -9.470  -0.540  0.00  0.00    +0.020 A 
ATOM     33  C   UNL     1     -13.824  -9.339  -1.578  0.00  0.00    +0.041 A 
ATOM     34  C   UNL     1     -14.466  -8.131  -1.797  0.00  0.00    +0.020 A 
ATOM     35  C   UNL     1     -14.209  -7.051  -0.980  0.00  0.00    +0.011 A 
ATOM     36 CL   UNL     1     -14.160 -10.694  -2.609  0.00  0.00    -0.084 Cl
ENDBRANCH  29  30
ENDBRANCH  25  28
ENDBRANCH  19  20
ENDBRANCH   1  19
TORSDOF 10
