REMARK  Name = ZINC67593443
REMARK  10 active torsions:
REMARK  status: ('A' for Active; 'I' for Inactive)
REMARK    1  A    between atoms: C_1  and  C_2
REMARK    2  A    between atoms: C_5  and  C_8
REMARK    3  A    between atoms: C_8  and  C_10
REMARK    4  A    between atoms: C_8  and  N_25
REMARK    5  A    between atoms: C_10  and  N_11
REMARK    6  A    between atoms: C_12  and  C_14
REMARK    7  A    between atoms: C_16  and  S_21
REMARK    8  A    between atoms: S_21  and  N_24
REMARK    9  A    between atoms: N_25  and  C_26
REMARK   10  A    between atoms: N_25  and  C_27
REMARK                            x       y       z     vdW  Elec       q    Type
REMARK                         _______ _______ _______ _____ _____    ______ ____
ROOT
ATOM      1  N   UNL     1      -2.128  -4.352  -1.064  0.00  0.00    -0.313 N 
ATOM      2  C   UNL     1      -3.437  -4.662  -1.141  0.00  0.00    +0.245 C 
ATOM      3  O   UNL     1      -3.945  -5.372  -0.294  0.00  0.00    -0.270 OA
ATOM      4  H   UNL     1      -1.723  -3.786  -1.739  0.00  0.00    +0.149 HD
ENDROOT
BRANCH   2   5
ATOM      5  C   UNL     1      -4.256  -4.141  -2.255  0.00  0.00    +0.057 A 
ATOM      6  C   UNL     1      -3.675  -3.330  -3.233  0.00  0.00    +0.043 A 
ATOM      7  C   UNL     1      -4.444  -2.847  -4.270  0.00  0.00    +0.106 A 
ATOM      8  C   UNL     1      -5.790  -3.162  -4.344  0.00  0.00    +0.030 A 
ATOM      9  C   UNL     1      -6.373  -3.964  -3.380  0.00  0.00    +0.022 A 
ATOM     10  C   UNL     1      -5.613  -4.460  -2.339  0.00  0.00    +0.053 A 
ATOM     11 CL   UNL     1      -6.345  -5.472  -1.133  0.00  0.00    -0.083 Cl
BRANCH   7  12
ATOM     12  S   UNL     1      -3.712  -1.825  -5.504  0.00  0.00    +0.056 S 
ATOM     13  O   UNL     1      -4.763  -1.054  -6.070  0.00  0.00    -0.153 OA
ATOM     14  O   UNL     1      -2.565  -1.230  -4.912  0.00  0.00    -0.153 OA
BRANCH  12  15
ATOM     15  N   UNL     1      -3.160  -2.824  -6.704  0.00  0.00    -0.204 NA
ATOM     16  H   UNL     1      -3.277  -3.784  -6.628  0.00  0.00    +0.144 HD
ATOM     17  H   UNL     1      -2.719  -2.450  -7.483  0.00  0.00    +0.144 HD
ENDBRANCH  12  15
ENDBRANCH   7  12
ENDBRANCH   2   5
BRANCH   1  18
ATOM     18  C   UNL     1      -1.317  -4.870   0.041  0.00  0.00    +0.094 C 
BRANCH  18  19
ATOM     19  C   UNL     1       0.088  -4.267  -0.032  0.00  0.00    -0.021 C 
BRANCH  19  24
ATOM     20  C   UNL     1      -0.218   1.437   0.841  0.00  0.00    +0.044 C 
ATOM     21  C   UNL     1      -0.138  -0.051   0.613  0.00  0.00    -0.050 A 
ATOM     22  C   UNL     1      -0.028  -0.548  -0.672  0.00  0.00    +0.003 A 
ATOM     23  C   UNL     1       0.046  -1.913  -0.881  0.00  0.00    +0.002 A 
ATOM     24  C   UNL     1       0.009  -2.780   0.196  0.00  0.00    -0.059 A 
ATOM     25  C   UNL     1      -0.101  -2.282   1.480  0.00  0.00    +0.002 A 
ATOM     26  C   UNL     1      -0.170  -0.917   1.690  0.00  0.00    +0.003 A 
ENDBRANCH  19  24
BRANCH  19  27
ATOM     27  N   UNL     1       0.936  -4.876   1.001  0.00  0.00    +0.382 N 
ATOM     28  C   UNL     1       1.028  -6.324   0.769  0.00  0.00    -0.096 C 
ATOM     29  C   UNL     1       2.280  -4.285   0.942  0.00  0.00    -0.096 C 
ATOM     30  H   UNL     1       0.533  -4.706   1.910  0.00  0.00    -0.082 HD
ENDBRANCH  19  27
ENDBRANCH  18  19
ENDBRANCH   1  18
TORSDOF 7
