REMARK  Name = ZINC36597644
REMARK  13 active torsions:
REMARK  status: ('A' for Active; 'I' for Inactive)
REMARK    1  A    between atoms: C_1  and  C_2
REMARK    2  A    between atoms: C_5  and  C_7
REMARK    3  A    between atoms: C_7  and  N_8
REMARK    4  A    between atoms: N_8  and  C_9
REMARK    5  A    between atoms: C_9  and  C_11
REMARK    6  A    between atoms: C_9  and  C_17
REMARK    7  A    between atoms: N_19  and  C_20
REMARK    8  A    between atoms: C_20  and  C_21
REMARK    9  A    between atoms: C_20  and  C_22
REMARK   10  A    between atoms: C_20  and  C_23
REMARK   11  A    between atoms: C_24  and  C_26
REMARK   12  A    between atoms: C_30  and  O_33
REMARK   13  A    between atoms: C_31  and  O_32
REMARK                            x       y       z     vdW  Elec       q    Type
REMARK                         _______ _______ _______ _____ _____    ______ ____
ROOT
ATOM      1  N   UNL     1       2.185  -4.197  -1.353  0.00  0.00    -0.278 N 
ATOM      2  C   UNL     1       1.010  -4.325  -2.001  0.00  0.00    +0.251 C 
ATOM      3  O   UNL     1       0.909  -3.955  -3.155  0.00  0.00    -0.270 OA
ENDROOT
BRANCH   2   4
ATOM      4  C   UNL     1      -0.153  -4.913  -1.311  0.00  0.00    +0.082 A 
ATOM      5  C   UNL     1      -0.343  -4.693   0.057  0.00  0.00    +0.017 A 
ATOM      6  C   UNL     1      -1.431  -5.244   0.698  0.00  0.00    +0.005 A 
ATOM      7  C   UNL     1      -2.341  -6.016  -0.005  0.00  0.00    +0.049 A 
ATOM      8  C   UNL     1      -2.167  -6.243  -1.359  0.00  0.00    +0.159 A 
ATOM      9  C   UNL     1      -1.075  -5.689  -2.023  0.00  0.00    +0.171 A 
BRANCH   9  10
ATOM     10  O   UNL     1      -0.904  -5.904  -3.352  0.00  0.00    -0.503 OA
ATOM     11  H   UNL     1      -0.382  -6.691  -3.559  0.00  0.00    +0.292 HD
ENDBRANCH   9  10
BRANCH   8  12
ATOM     12  O   UNL     1      -3.064  -7.003  -2.043  0.00  0.00    -0.503 OA
ATOM     13  H   UNL     1      -3.797  -6.499  -2.423  0.00  0.00    +0.292 HD
ENDBRANCH   8  12
ENDBRANCH   2   4
BRANCH   1  14
ATOM     14  C   UNL     1       2.269  -4.500   0.078  0.00  0.00    +0.183 C 
BRANCH  14  19
ATOM     15  C   UNL     1       4.589  -0.786   2.581  0.00  0.00    +0.086 C 
ATOM     16  C   UNL     1       3.503  -1.610   1.938  0.00  0.00    +0.102 A 
ATOM     17  C   UNL     1       2.194  -1.305   1.913  0.00  0.00    +0.045 A 
ATOM     18  C   UNL     1       1.544  -2.345   1.211  0.00  0.00    +0.046 A 
ATOM     19  C   UNL     1       2.495  -3.225   0.849  0.00  0.00    +0.122 A 
ATOM     20  O   UNL     1       3.681  -2.772   1.287  0.00  0.00    -0.463 OA
ENDBRANCH  14  19
ENDBRANCH   1  14
BRANCH   1  21
ATOM     21  C   UNL     1       3.378  -3.756  -2.079  0.00  0.00    +0.166 C 
BRANCH  21  22
ATOM     22  C   UNL     1       3.822  -2.391  -1.549  0.00  0.00    +0.019 C 
ATOM     23  C   UNL     1       2.696  -1.374  -1.752  0.00  0.00    +0.006 C 
ATOM     24  C   UNL     1       3.140  -0.009  -1.222  0.00  0.00    +0.000 C 
ATOM     25  C   UNL     1       4.386   0.452  -1.980  0.00  0.00    +0.000 C 
ATOM     26  C   UNL     1       5.512  -0.564  -1.778  0.00  0.00    +0.000 C 
ATOM     27  C   UNL     1       5.068  -1.929  -2.308  0.00  0.00    +0.006 C 
ENDBRANCH  21  22
BRANCH  21  28
ATOM     28  C   UNL     1       4.487  -4.756  -1.880  0.00  0.00    +0.234 C 
ATOM     29  O   UNL     1       4.447  -5.527  -0.944  0.00  0.00    -0.274 OA
ATOM     30  N   UNL     1       5.522  -4.796  -2.742  0.00  0.00    -0.309 N 
ATOM     31  H   UNL     1       5.554  -4.180  -3.490  0.00  0.00    +0.149 HD
BRANCH  30  32
ATOM     32  C   UNL     1       6.600  -5.769  -2.548  0.00  0.00    +0.026 C 
ATOM     33  C   UNL     1       6.024  -7.185  -2.598  0.00  0.00    +0.031 C 
ATOM     34  C   UNL     1       7.642  -5.603  -3.656  0.00  0.00    +0.031 C 
ATOM     35  C   UNL     1       7.260  -5.535  -1.187  0.00  0.00    +0.031 C 
ENDBRANCH  30  32
ENDBRANCH  21  28
ENDBRANCH   1  21
TORSDOF 9
