REMARK  Name = ZINC08896518
REMARK  12 active torsions:
REMARK  status: ('A' for Active; 'I' for Inactive)
REMARK    1  A    between atoms: C_1  and  C_2
REMARK    2  A    between atoms: C_2  and  C_3
REMARK    3  A    between atoms: C_2  and  C_4
REMARK    4  A    between atoms: C_2  and  C_5
REMARK    5  A    between atoms: C_12  and  N_17
REMARK    6  A    between atoms: C_13  and  C_14
REMARK    7  A    between atoms: N_17  and  C_18
REMARK    8  A    between atoms: C_18  and  N_20
REMARK    9  A    between atoms: C_21  and  C_23
REMARK   10  A    between atoms: C_26  and  O_32
REMARK   11  A    between atoms: C_27  and  N_29
REMARK   12  A    between atoms: O_32  and  C_33
REMARK                            x       y       z     vdW  Elec       q    Type
REMARK                         _______ _______ _______ _____ _____    ______ ____
ROOT
ATOM      1  N   UNL     1       5.967   1.805  -0.044  0.00  0.00    -0.291 N 
ATOM      2  H   UNL     1       5.951   2.775  -0.039  0.00  0.00    +0.154 HD
ENDROOT
BRANCH   1   9
ATOM      3  C   UNL     1      11.563  -1.269   0.268  0.00  0.00    -0.000 C 
ATOM      4  C   UNL     1      11.889  -0.026  -0.565  0.00  0.00    +0.009 C 
ATOM      5  C   UNL     1      11.037   1.154  -0.095  0.00  0.00    +0.037 C 
ATOM      6  C   UNL     1       9.573   0.729  -0.083  0.00  0.00    -0.023 A 
ATOM      7  C   UNL     1       9.229  -0.577  -0.087  0.00  0.00    -0.004 A 
ATOM      8  S   UNL     1       7.459  -0.578  -0.071  0.00  0.00    -0.077 S 
ATOM      9  C   UNL     1       7.178   1.131  -0.059  0.00  0.00    +0.084 A 
ATOM     10  C   UNL     1       8.460   1.662  -0.074  0.00  0.00    +0.068 A 
ATOM     11  C   UNL     1      10.154  -1.755  -0.101  0.00  0.00    +0.046 C 
BRANCH  10  12
ATOM     12  C   UNL     1       8.683   3.111  -0.076  0.00  0.00    +0.244 C 
ATOM     13  O   UNL     1       8.788   3.712   0.977  0.00  0.00    -0.270 OA
ATOM     14  N   UNL     1       8.771   3.778  -1.244  0.00  0.00    -0.325 N 
ATOM     15  H   UNL     1       8.687   3.299  -2.084  0.00  0.00    +0.145 HD
ATOM     16  H   UNL     1       8.918   4.736  -1.246  0.00  0.00    +0.145 HD
ENDBRANCH  10  12
BRANCH   3  18
ATOM     17  C   UNL     1      12.535  -2.713  -1.524  0.00  0.00    +0.011 C 
ATOM     18  C   UNL     1      12.581  -2.370  -0.034  0.00  0.00    -0.035 C 
ATOM     19  C   UNL     1      13.984  -1.882   0.334  0.00  0.00    +0.011 C 
ATOM     20  C   UNL     1      12.242  -3.616   0.786  0.00  0.00    +0.011 C 
ENDBRANCH   3  18
ENDBRANCH   1   9
BRANCH   1  21
ATOM     21  C   UNL     1       4.811   1.112  -0.037  0.00  0.00    +0.141 C 
ATOM     22  S   UNL     1       4.838  -0.600  -0.046  0.00  0.00    -0.018 S 
BRANCH  21  23
ATOM     23  N   UNL     1       3.633   1.767  -0.023  0.00  0.00    -0.264 N 
ATOM     24  C   UNL     1       2.477   1.075  -0.015  0.00  0.00    +0.250 C 
ATOM     25  O   UNL     1       2.496  -0.141  -0.022  0.00  0.00    -0.270 OA
ATOM     26  H   UNL     1       3.617   2.737  -0.018  0.00  0.00    +0.157 HD
BRANCH  24  27
ATOM     27  C   UNL     1       1.188   1.792   0.000  0.00  0.00    +0.039 A 
ATOM     28  C   UNL     1       1.163   3.190   0.008  0.00  0.00    +0.017 A 
ATOM     29  C   UNL     1      -0.042   3.855   0.023  0.00  0.00    +0.049 A 
ATOM     30  C   UNL     1      -1.234   3.139   0.030  0.00  0.00    +0.150 A 
ATOM     31  C   UNL     1      -1.214   1.749   0.017  0.00  0.00    +0.168 A 
ATOM     32  C   UNL     1      -0.013   1.076   0.008  0.00  0.00    +0.049 A 
BRANCH  31  33
ATOM     33  N   UNL     1      -2.486   0.992   0.019  0.00  0.00    +0.060 N 
ATOM     34  O   UNL     1      -2.469  -0.226   0.011  0.00  0.00    -0.126 OA
ATOM     35  O   UNL     1      -3.549   1.586   0.027  0.00  0.00    -0.126 OA
ENDBRANCH  31  33
BRANCH  30  36
ATOM     36  O   UNL     1      -2.420   3.798   0.045  0.00  0.00    -0.493 OA
ATOM     37  C   UNL     1      -2.368   5.226   0.052  0.00  0.00    +0.277 C 
ENDBRANCH  30  36
ENDBRANCH  24  27
ENDBRANCH  21  23
ENDBRANCH   1  21
TORSDOF 8
