REMARK  Name = ZINC52627915
REMARK  9 active torsions:
REMARK  status: ('A' for Active; 'I' for Inactive)
REMARK    1  A    between atoms: C_1  and  C_2
REMARK    2  A    between atoms: C_3  and  C_4
REMARK    3  A    between atoms: C_8  and  C_14
REMARK    4  A    between atoms: C_16  and  O_20
REMARK    5  A    between atoms: O_20  and  C_21
REMARK    6  A    between atoms: C_21  and  C_22
REMARK    7  A    between atoms: C_22  and  C_24
REMARK    8  A    between atoms: C_22  and  N_34
REMARK    9  A    between atoms: C_24  and  C_25
REMARK                            x       y       z     vdW  Elec       q    Type
REMARK                         _______ _______ _______ _____ _____    ______ ____
ROOT
ATOM      1  C   UNL     1       3.631  -7.595  -0.054  0.00  0.00    +0.004 A 
ATOM      2  C   UNL     1       3.585  -8.992  -0.067  0.00  0.00    +0.057 A 
ATOM      3  C   UNL     1       4.786  -9.689  -0.076  0.00  0.00    +0.139 A 
ATOM      4  C   UNL     1       5.980  -8.981  -0.072  0.00  0.00    +0.156 A 
ATOM      5  N   UNL     1       5.986  -7.662  -0.060  0.00  0.00    -0.259 NA
ATOM      6  C   UNL     1       4.871  -6.960  -0.057  0.00  0.00    +0.119 A 
ENDROOT
BRANCH   1  11
ATOM      7  C   UNL     1       0.037  -2.610  -0.012  0.00  0.00    +0.114 A 
ATOM      8  C   UNL     1       1.254  -3.272  -0.022  0.00  0.00    +0.045 A 
ATOM      9  C   UNL     1       1.254  -4.677  -0.029  0.00  0.00    -0.013 A 
ATOM     10  C   UNL     1       2.442  -5.419  -0.038  0.00  0.00    +0.017 A 
ATOM     11  C   UNL     1       2.378  -6.801  -0.044  0.00  0.00    -0.016 A 
ATOM     12  C   UNL     1       1.137  -7.457  -0.042  0.00  0.00    +0.009 A 
ATOM     13  C   UNL     1      -0.027  -6.755  -0.034  0.00  0.00    +0.010 A 
ATOM     14  C   UNL     1       0.003  -5.351  -0.026  0.00  0.00    +0.000 A 
ATOM     15  C   UNL     1      -1.177  -4.588  -0.016  0.00  0.00    +0.120 A 
ATOM     16  N   UNL     1      -1.118  -3.279  -0.005  0.00  0.00    -0.246 NA
BRANCH   7  19
ATOM     17  C   UNL     1      -0.018   1.468   0.010  0.00  0.00    +0.106 C 
ATOM     18  C   UNL     1       0.002  -0.004   0.002  0.00  0.00    -0.099 C 
ATOM     19  C   UNL     1       0.018  -1.178  -0.004  0.00  0.00    -0.047 C 
ENDBRANCH   7  19
ENDBRANCH   1  11
BRANCH   3  20
ATOM     20  O   UNL     1       4.792 -11.048  -0.087  0.00  0.00    -0.492 OA
BRANCH  20  21
ATOM     21  C   UNL     1       6.068 -11.691  -0.096  0.00  0.00    +0.213 C 
BRANCH  21  22
ATOM     22  C   UNL     1       5.875 -13.209  -0.109  0.00  0.00    -0.033 C 
BRANCH  22  23
ATOM     23  N   UNL     1       5.229 -13.609  -1.366  0.00  0.00    +0.382 N 
ATOM     24  H   UNL     1       5.811 -13.338  -2.144  0.00  0.00    -0.089 HD
ATOM     25  H   UNL     1       5.101 -14.610  -1.374  0.00  0.00    -0.089 HD
ATOM     26  H   UNL     1       4.331 -13.155  -1.443  0.00  0.00    -0.089 HD
ENDBRANCH  22  23
BRANCH  22  27
ATOM     27  C   UNL     1       7.236 -13.897   0.007  0.00  0.00    +0.020 C 
BRANCH  27  28
ATOM     28  C   UNL     1       7.037 -15.387   0.118  0.00  0.00    -0.043 C 
ATOM     29  C   UNL     1       7.077 -16.290  -0.888  0.00  0.00    -0.001 A 
ATOM     30  C   UNL     1       7.306 -16.160  -2.332  0.00  0.00    +0.010 A 
ATOM     31  C   UNL     1       7.284 -17.272  -3.102  0.00  0.00    +0.001 A 
ATOM     32  C   UNL     1       7.048 -18.541  -2.557  0.00  0.00    +0.002 A 
ATOM     33  C   UNL     1       6.829 -18.740  -1.240  0.00  0.00    +0.026 A 
ATOM     34  C   UNL     1       6.830 -17.642  -0.337  0.00  0.00    +0.043 A 
ATOM     35  N   UNL     1       6.646 -17.577   0.959  0.00  0.00    -0.380 N 
ATOM     36  C   UNL     1       6.761 -16.176   1.379  0.00  0.00    +0.144 C 
ATOM     37  H   UNL     1       6.467 -18.330   1.544  0.00  0.00    +0.160 HD
ENDBRANCH  27  28
ENDBRANCH  22  27
ENDBRANCH  21  22
ENDBRANCH  20  21
ENDBRANCH   3  20
TORSDOF 8
