REMARK  Name = ZINC12524789
REMARK  10 active torsions:
REMARK  status: ('A' for Active; 'I' for Inactive)
REMARK    1  A    between atoms: C_1  and  C_2
REMARK    2  A    between atoms: C_2  and  C_29
REMARK    3  A    between atoms: N_5  and  C_9
REMARK    4  A    between atoms: C_9  and  C_10
REMARK    5  A    between atoms: N_12  and  C_13
REMARK    6  A    between atoms: C_13  and  C_15
REMARK    7  A    between atoms: C_13  and  C_19
REMARK    8  A    between atoms: C_15  and  C_16
REMARK    9  A    between atoms: C_16  and  S_17
REMARK   10  A    between atoms: S_17  and  C_18
REMARK                            x       y       z     vdW  Elec       q    Type
REMARK                         _______ _______ _______ _____ _____    ______ ____
ROOT
ATOM      1  C   UNL     1       6.941   3.602   2.959  0.00  0.00    +0.213 C 
ENDROOT
BRANCH   1   6
ATOM      2  C   UNL     1      10.632   0.709   3.282  0.00  0.00    +0.047 C 
ATOM      3  C   UNL     1      10.133   1.987   3.959  0.00  0.00    +0.135 C 
ATOM      4  C   UNL     1       8.619   2.053   3.942  0.00  0.00    +0.251 C 
ATOM      5  O   UNL     1       7.847   1.275   4.461  0.00  0.00    -0.272 OA
ATOM      6  N   UNL     1       8.310   3.154   3.229  0.00  0.00    -0.215 N 
ATOM      7  C   UNL     1       9.407   3.791   2.804  0.00  0.00    +0.310 C 
ATOM      8  O   UNL     1       9.382   4.811   2.145  0.00  0.00    -0.252 OA
ATOM      9  N   UNL     1      10.540   3.174   3.187  0.00  0.00    -0.281 N 
ATOM     10  H   UNL     1      11.447   3.457   2.993  0.00  0.00    +0.152 HD
BRANCH   3  11
ATOM     11  C   UNL     1      10.648   2.072   5.372  0.00  0.00    -0.015 A 
ATOM     12  C   UNL     1       9.911   1.499   6.407  0.00  0.00    +0.007 A 
ATOM     13  C   UNL     1      10.350   1.554   7.694  0.00  0.00    +0.009 A 
ATOM     14  C   UNL     1      11.559   2.207   7.989  0.00  0.00    -0.018 A 
ATOM     15  C   UNL     1      12.042   2.288   9.306  0.00  0.00    +0.008 A 
ATOM     16  C   UNL     1      13.217   2.928   9.554  0.00  0.00    +0.001 A 
ATOM     17  C   UNL     1      13.952   3.506   8.520  0.00  0.00    +0.001 A 
ATOM     18  C   UNL     1      13.516   3.446   7.232  0.00  0.00    +0.008 A 
ATOM     19  C   UNL     1      12.306   2.794   6.938  0.00  0.00    -0.018 A 
ATOM     20  C   UNL     1      11.823   2.712   5.620  0.00  0.00    +0.014 A 
ENDBRANCH   3  11
ENDBRANCH   1   6
BRANCH   1  21
ATOM     21  C   UNL     1       6.455   2.985   1.673  0.00  0.00    +0.232 C 
ATOM     22  O   UNL     1       7.181   2.244   1.044  0.00  0.00    -0.274 OA
ATOM     23  N   UNL     1       5.215   3.256   1.222  0.00  0.00    -0.304 N 
ATOM     24  H   UNL     1       4.635   3.849   1.725  0.00  0.00    +0.149 HD
BRANCH  23  25
ATOM     25  C   UNL     1       4.743   2.656  -0.029  0.00  0.00    +0.140 C 
BRANCH  25  26
ATOM     26  C   UNL     1       3.238   2.585  -0.015  0.00  0.00    +0.129 A 
ATOM     27  N   UNL     1       2.512   1.434  -0.014  0.00  0.00    -0.340 N 
ATOM     28  H   UNL     1       2.877   0.503  -0.022  0.00  0.00    +0.167 HD
ATOM     29  C   UNL     1       1.178   1.790   0.000  0.00  0.00    +0.066 A 
ATOM     30  C   UNL     1      -0.013   1.076   0.008  0.00  0.00    +0.028 A 
ATOM     31  C   UNL     1      -1.214   1.752   0.017  0.00  0.00    +0.002 A 
ATOM     32  C   UNL     1      -1.240   3.139   0.031  0.00  0.00    +0.002 A 
ATOM     33  C   UNL     1      -0.078   3.858   0.023  0.00  0.00    +0.030 A 
ATOM     34  C   UNL     1       1.151   3.194   0.008  0.00  0.00    +0.089 A 
ATOM     35  N   UNL     1       2.442   3.615  -0.002  0.00  0.00    -0.231 NA
ENDBRANCH  25  26
BRANCH  25  36
ATOM     36  C   UNL     1       5.202   3.513  -1.211  0.00  0.00    +0.041 C 
BRANCH  36  37
ATOM     37  C   UNL     1       6.729   3.484  -1.299  0.00  0.00    +0.071 C 
BRANCH  37  38
ATOM     38  S   UNL     1       7.272   4.500  -2.700  0.00  0.00    -0.164 S 
ATOM     39  C   UNL     1       9.081   4.362  -2.666  0.00  0.00    +0.084 C 
ENDBRANCH  37  38
ENDBRANCH  36  37
ENDBRANCH  25  36
ENDBRANCH  23  25
ENDBRANCH   1  21
TORSDOF 8
