REMARK  Name = ZINC39469712
REMARK  5 active torsions:
REMARK  status: ('A' for Active; 'I' for Inactive)
REMARK    1  A    between atoms: C_4  and  O_7
REMARK    2  A    between atoms: O_7  and  S_8
REMARK    3  A    between atoms: S_8  and  P_11
REMARK    4  A    between atoms: C_19  and  C_30
REMARK    5  A    between atoms: C_35  and  O_36
REMARK                            x       y       z     vdW  Elec       q    Type
REMARK                         _______ _______ _______ _____ _____    ______ ____
ROOT
ATOM      1  P   UNL     1       3.000  -2.544   2.135  0.00  0.00    +0.431 P 
ATOM      2  O   UNL     1       3.152  -3.748   1.288  0.00  0.00    -0.246 OA
ATOM      3  N   UNL     1       3.464  -2.869   3.686  0.00  0.00    -0.271 NA
ATOM      4  N   UNL     1       2.583  -3.559   4.490  0.00  0.00    +0.398 N 
ATOM      5  C   UNL     1       3.199  -3.604   5.825  0.00  0.00    -0.046 C 
ATOM      6  C   UNL     1       2.319  -4.365   6.807  0.00  0.00    +0.005 C 
ATOM      7  C   UNL     1       2.118  -5.784   6.345  0.00  0.00    -0.013 C 
ATOM      8  C   UNL     1       1.053  -6.475   6.786  0.00  0.00    +0.017 C 
ATOM      9  C   UNL     1       0.111  -5.828   7.727  0.00  0.00    +0.127 C 
ATOM     10  C   UNL     1       0.055  -4.501   7.795  0.00  0.00    +0.016 C 
ATOM     11  C   UNL     1       0.955  -3.676   6.908  0.00  0.00    +0.018 C 
ATOM     12  C   UNL     1       0.344  -3.598   5.508  0.00  0.00    -0.002 C 
ATOM     13  C   UNL     1       1.292  -2.870   4.547  0.00  0.00    -0.020 C 
ATOM     14  C   UNL     1       0.607  -2.843   3.174  0.00  0.00    +0.158 C 
ATOM     15  O   UNL     1       1.431  -2.123   2.240  0.00  0.00    -0.301 OA
ATOM     16  F   UNL     1      -0.689  -6.582   8.512  0.00  0.00    -0.205 F 
ATOM     17  H   UNL     1       4.329  -2.583   4.019  0.00  0.00    +0.113 HD
ATOM     18  H   UNL     1       2.454  -4.493   4.130  0.00  0.00    -0.055 HD
ENDROOT
BRANCH   8  19
ATOM     19  C   UNL     1       0.824  -7.869   6.335  0.00  0.00    +0.026 A 
ATOM     20  C   UNL     1       1.598  -8.907   6.849  0.00  0.00    +0.012 A 
ATOM     21  C   UNL     1       1.381 -10.202   6.426  0.00  0.00    +0.001 A 
ATOM     22  C   UNL     1       0.398 -10.475   5.492  0.00  0.00    +0.004 A 
ATOM     23  C   UNL     1      -0.376  -9.453   4.975  0.00  0.00    +0.046 A 
ATOM     24  C   UNL     1      -0.173  -8.148   5.395  0.00  0.00    +0.125 A 
BRANCH  24  25
ATOM     25  O   UNL     1      -0.936  -7.144   4.892  0.00  0.00    -0.506 OA
ATOM     26  H   UNL     1      -0.574  -6.737   4.093  0.00  0.00    +0.292 HD
ENDBRANCH  24  25
ENDBRANCH   8  19
BRANCH   1  27
ATOM     27  S   UNL     1       4.140  -0.941   1.346  0.00  0.00    +0.209 S 
ATOM     28  O   UNL     1       5.458  -1.436   1.154  0.00  0.00    -0.126 OA
ATOM     29  O   UNL     1       3.863   0.192   2.158  0.00  0.00    -0.126 OA
BRANCH  27  30
ATOM     30  O   UNL     1       3.586  -0.632  -0.037  0.00  0.00    -0.339 OA
BRANCH  30  34
ATOM     31  C   UNL     1      -0.017   1.378   0.010  0.00  0.00    +0.000 A 
ATOM     32  C   UNL     1       1.170   2.088   0.002  0.00  0.00    +0.004 A 
ATOM     33  C   UNL     1       2.377   1.417  -0.013  0.00  0.00    +0.048 A 
ATOM     34  C   UNL     1       2.399   0.030  -0.021  0.00  0.00    +0.157 A 
ATOM     35  C   UNL     1       1.207  -0.680  -0.013  0.00  0.00    +0.048 A 
ATOM     36  C   UNL     1       0.002  -0.004   0.002  0.00  0.00    +0.004 A 
ENDBRANCH  30  34
ENDBRANCH  27  30
ENDBRANCH   1  27
TORSDOF 5
