REMARK  Name = ZINC14238096
REMARK  9 active torsions:
REMARK  status: ('A' for Active; 'I' for Inactive)
REMARK    1  A    between atoms: C_3  and  C_21
REMARK    2  A    between atoms: C_4  and  S_7
REMARK    3  A    between atoms: S_7  and  C_8
REMARK    4  A    between atoms: C_8  and  C_9
REMARK    5  A    between atoms: N_11  and  C_12
REMARK    6  A    between atoms: N_23  and  C_24
REMARK    7  A    between atoms: C_24  and  C_25
REMARK    8  A    between atoms: C_25  and  C_27
REMARK    9  A    between atoms: C_25  and  N_61
REMARK                            x       y       z     vdW  Elec       q    Type
REMARK                         _______ _______ _______ _____ _____    ______ ____
ROOT
ATOM      1  C   UNL     1       3.733  -5.883  -1.053  0.00  0.00    +0.020 A 
ATOM      2  C   UNL     1       2.720  -6.738  -0.658  0.00  0.00    +0.017 A 
ATOM      3  C   UNL     1       1.448  -6.201  -0.431  0.00  0.00    +0.068 A 
ATOM      4  C   UNL     1       1.253  -4.820  -0.612  0.00  0.00    +0.109 A 
ATOM      5  N   UNL     1       2.259  -4.048  -0.997  0.00  0.00    -0.248 NA
ATOM      6  C   UNL     1       3.465  -4.535  -1.211  0.00  0.00    +0.112 A 
ENDROOT
BRANCH   3   7
ATOM      7  C   UNL     1       0.332  -7.067  -0.008  0.00  0.00    +0.247 C 
ATOM      8  O   UNL     1      -0.769  -6.588   0.187  0.00  0.00    -0.270 OA
ATOM      9  N   UNL     1       0.532  -8.389   0.162  0.00  0.00    -0.312 N 
ATOM     10  H   UNL     1       1.410  -8.770   0.007  0.00  0.00    +0.149 HD
BRANCH   9  11
ATOM     11  C   UNL     1      -0.577  -9.249   0.582  0.00  0.00    +0.097 C 
BRANCH  11  12
ATOM     12  C   UNL     1      -0.058 -10.668   0.825  0.00  0.00    +0.016 C 
BRANCH  12  17
ATOM     13  C   UNL     1      -2.157 -11.588   0.005  0.00  0.00    -0.078 C 
ATOM     14  C   UNL     1      -2.940 -12.902   0.248  0.00  0.00    -0.020 C 
ATOM     15  C   UNL     1      -1.846 -13.865   0.765  0.00  0.00    -0.020 C 
ATOM     16  C   UNL     1      -0.730 -12.953   1.305  0.00  0.00    -0.078 C 
ATOM     17  N   UNL     1      -1.203 -11.579   1.124  0.00  0.00    +0.387 N 
ATOM     18  H   UNL     1      -1.673 -11.260   1.979  0.00  0.00    -0.081 HD
ENDBRANCH  12  17
BRANCH  12  19
ATOM     19  C   UNL     1       0.902 -10.659   1.988  0.00  0.00    +0.093 A 
ATOM     20  C   UNL     1       2.244 -10.659   1.900  0.00  0.00    +0.043 A 
ATOM     21  C   UNL     1       2.741 -10.650   3.223  0.00  0.00    +0.041 A 
ATOM     22  C   UNL     1       1.673 -10.645   4.041  0.00  0.00    +0.195 A 
ATOM     23  O   UNL     1       0.561 -10.645   3.287  0.00  0.00    -0.469 OA
ENDBRANCH  12  19
ENDBRANCH  11  12
ENDBRANCH   9  11
ENDBRANCH   3   7
BRANCH   4  24
ATOM     24  S   UNL     1      -0.337  -4.114  -0.334  0.00  0.00    -0.096 S 
BRANCH  24  25
ATOM     25  C   UNL     1       0.018  -2.380  -0.711  0.00  0.00    +0.171 C 
BRANCH  25  26
ATOM     26  C   UNL     1      -1.235  -1.561  -0.536  0.00  0.00    +0.227 C 
ATOM     27  O   UNL     1      -2.267  -2.097  -0.190  0.00  0.00    -0.275 OA
ATOM     28  N   UNL     1      -1.209  -0.233  -0.764  0.00  0.00    -0.285 N 
ATOM     29  H   UNL     1      -0.370   0.207  -0.970  0.00  0.00    +0.155 HD
BRANCH  28  30
ATOM     30  C   UNL     1      -2.395   0.510  -0.708  0.00  0.00    +0.037 A 
ATOM     31  C   UNL     1      -3.595  -0.066  -1.104  0.00  0.00    +0.027 A 
ATOM     32  C   UNL     1      -4.767   0.664  -1.044  0.00  0.00    +0.051 A 
ATOM     33  C   UNL     1      -4.746   1.977  -0.599  0.00  0.00    +0.166 A 
ATOM     34  C   UNL     1      -3.543   2.559  -0.206  0.00  0.00    +0.168 A 
ATOM     35  C   UNL     1      -2.370   1.825  -0.262  0.00  0.00    +0.072 A 
ATOM     36  O   UNL     1      -3.788   3.843   0.186  0.00  0.00    -0.453 OA
ATOM     37  C   UNL     1      -5.081   4.171  -0.356  0.00  0.00    +0.466 C 
ATOM     38  O   UNL     1      -5.744   2.897  -0.453  0.00  0.00    -0.453 OA
ENDBRANCH  28  30
ENDBRANCH  25  26
ENDBRANCH  24  25
ENDBRANCH   4  24
TORSDOF 9
