REMARK  Name = ZINC06753194
REMARK  9 active torsions:
REMARK  status: ('A' for Active; 'I' for Inactive)
REMARK    1  A    between atoms: C_1  and  C_2
REMARK    2  A    between atoms: C_2  and  C_3
REMARK    3  A    between atoms: C_6  and  C_9
REMARK    4  A    between atoms: C_12  and  C_23
REMARK    5  A    between atoms: N_19  and  C_20
REMARK    6  A    between atoms: C_20  and  C_21
REMARK    7  A    between atoms: C_21  and  O_22
REMARK    8  A    between atoms: C_25  and  C_30
REMARK    9  A    between atoms: C_28  and  O_29
REMARK                            x       y       z     vdW  Elec       q    Type
REMARK                         _______ _______ _______ _____ _____    ______ ____
ROOT
ATOM      1  C   UNL     1       2.783  -1.764  -4.646  0.00  0.00    +0.141 C 
ATOM      2  C   UNL     1       3.335  -0.656  -5.500  0.00  0.00    +0.035 A 
ATOM      3  C   UNL     1       3.078   0.503  -6.240  0.00  0.00    +0.102 A 
ATOM      4  N   UNL     1       4.227   0.918  -6.735  0.00  0.00    -0.173 NA
ATOM      5  N   UNL     1       5.184   0.136  -6.383  0.00  0.00    -0.272 N 
ATOM      6  H   UNL     1       6.115   0.248  -6.631  0.00  0.00    +0.189 HD
ATOM      7  C   UNL     1       4.695  -0.875  -5.605  0.00  0.00    +0.126 A 
ATOM      8  C   UNL     1       5.032  -2.085  -4.847  0.00  0.00    +0.266 C 
ATOM      9  O   UNL     1       6.152  -2.549  -4.741  0.00  0.00    -0.268 OA
ATOM     10  N   UNL     1       3.927  -2.611  -4.285  0.00  0.00    -0.283 N 
ENDROOT
BRANCH   3  11
ATOM     11  C   UNL     1       1.754   1.148  -6.431  0.00  0.00    +0.044 A 
ATOM     12  C   UNL     1       0.638   0.375  -6.741  0.00  0.00    +0.017 A 
ATOM     13  C   UNL     1      -0.590   0.978  -6.918  0.00  0.00    -0.050 A 
ATOM     14  C   UNL     1      -0.717   2.350  -6.789  0.00  0.00    +0.007 A 
ATOM     15  C   UNL     1       0.384   3.127  -6.482  0.00  0.00    +0.046 A 
ATOM     16  C   UNL     1       1.622   2.533  -6.296  0.00  0.00    +0.126 A 
ATOM     17  C   UNL     1      -1.797   0.141  -7.253  0.00  0.00    +0.044 C 
BRANCH  16  18
ATOM     18  O   UNL     1       2.704   3.294  -5.988  0.00  0.00    -0.506 OA
ATOM     19  H   UNL     1       3.159   3.661  -6.758  0.00  0.00    +0.292 HD
ENDBRANCH  16  18
ENDBRANCH   3  11
BRANCH   1  23
ATOM     20  C   UNL     1       0.983  -0.149  -1.124  0.00  0.00    -0.048 A 
ATOM     21  C   UNL     1       0.191  -0.694  -2.117  0.00  0.00    +0.004 A 
ATOM     22  C   UNL     1       0.773  -1.216  -3.257  0.00  0.00    +0.006 A 
ATOM     23  C   UNL     1       2.148  -1.193  -3.404  0.00  0.00    -0.022 A 
ATOM     24  C   UNL     1       2.940  -0.647  -2.411  0.00  0.00    +0.006 A 
ATOM     25  C   UNL     1       2.357  -0.121  -1.274  0.00  0.00    +0.004 A 
BRANCH  20  27
ATOM     26  C   UNL     1       0.038   1.903  -0.101  0.00  0.00    +0.009 C 
ATOM     27  C   UNL     1       0.349   0.421   0.118  0.00  0.00    +0.032 C 
ENDBRANCH  20  27
ENDBRANCH   1  23
BRANCH  10  28
ATOM     28  C   UNL     1       3.874  -3.818  -3.457  0.00  0.00    +0.137 C 
BRANCH  28  29
ATOM     29  C   UNL     1       3.636  -5.038  -4.348  0.00  0.00    +0.175 C 
BRANCH  29  30
ATOM     30  O   UNL     1       4.758  -5.222  -5.214  0.00  0.00    -0.393 OA
ATOM     31  H   UNL     1       4.675  -5.980  -5.809  0.00  0.00    +0.209 HD
ENDBRANCH  29  30
ENDBRANCH  28  29
ENDBRANCH  10  28
TORSDOF 7
