REMARK  Name = ZINC09778398
REMARK  7 active torsions:
REMARK  status: ('A' for Active; 'I' for Inactive)
REMARK    1  A    between atoms: C_4  and  C_7
REMARK    2  A    between atoms: C_7  and  N_8
REMARK    3  A    between atoms: C_9  and  C_28
REMARK    4  A    between atoms: C_12  and  S_13
REMARK    5  A    between atoms: S_13  and  C_14
REMARK    6  A    between atoms: C_14  and  C_15
REMARK    7  A    between atoms: N_20  and  C_23
REMARK                            x       y       z     vdW  Elec       q    Type
REMARK                         _______ _______ _______ _____ _____    ______ ____
ROOT
ATOM      1  N   UNL     1      -3.723   0.233  -6.953  0.00  0.00    -0.298 N 
ATOM      2  C   UNL     1      -4.249   1.216  -7.759  0.00  0.00    +0.168 A 
ATOM      3  N   UNL     1      -3.964   2.368  -7.198  0.00  0.00    -0.128 NA
ATOM      4  N   UNL     1      -3.309   2.175  -6.109  0.00  0.00    -0.122 NA
ATOM      5  C   UNL     1      -3.128   0.889  -5.913  0.00  0.00    +0.193 A 
ENDROOT
BRANCH   2   6
ATOM      6  C   UNL     1      -4.996   1.013  -9.018  0.00  0.00    +0.054 A 
ATOM      7  C   UNL     1      -4.496   0.155 -10.000  0.00  0.00    +0.014 A 
ATOM      8  C   UNL     1      -5.198  -0.029 -11.173  0.00  0.00    +0.001 A 
ATOM      9  C   UNL     1      -6.395   0.632 -11.380  0.00  0.00    +0.003 A 
ATOM     10  C   UNL     1      -6.898   1.484 -10.413  0.00  0.00    +0.039 A 
ATOM     11  C   UNL     1      -6.209   1.675  -9.230  0.00  0.00    +0.134 A 
ATOM     12  F   UNL     1      -6.703   2.503  -8.284  0.00  0.00    -0.205 F 
ENDBRANCH   2   6
BRANCH   1  13
ATOM     13  C   UNL     1      -3.788  -1.215  -7.166  0.00  0.00    +0.161 C 
BRANCH  13  17
ATOM     14  C   UNL     1      -7.326  -2.767  -5.343  0.00  0.00    +0.000 A 
ATOM     15  C   UNL     1      -7.356  -2.339  -6.657  0.00  0.00    +0.000 A 
ATOM     16  C   UNL     1      -6.211  -1.837  -7.247  0.00  0.00    +0.005 A 
ATOM     17  C   UNL     1      -5.036  -1.762  -6.523  0.00  0.00    -0.028 A 
ATOM     18  C   UNL     1      -5.005  -2.194  -5.210  0.00  0.00    +0.005 A 
ATOM     19  C   UNL     1      -6.151  -2.692  -4.619  0.00  0.00    +0.000 A 
ENDBRANCH  13  17
ENDBRANCH   1  13
BRANCH   5  20
ATOM     20  S   UNL     1      -2.283   0.147  -4.556  0.00  0.00    -0.077 S 
BRANCH  20  21
ATOM     21  C   UNL     1      -1.798   1.630  -3.639  0.00  0.00    +0.173 C 
BRANCH  21  22
ATOM     22  C   UNL     1      -1.039   1.230  -2.401  0.00  0.00    +0.226 C 
ATOM     23  O   UNL     1      -0.845   0.057  -2.162  0.00  0.00    -0.275 OA
ATOM     24  N   UNL     1      -0.576   2.175  -1.559  0.00  0.00    -0.298 N 
ATOM     25  C   UNL     1       0.168   1.805  -0.345  0.00  0.00    +0.126 C 
ATOM     26  C   UNL     1      -0.462   2.522   0.854  0.00  0.00    +0.125 C 
ATOM     27  N   UNL     1      -0.531   3.964   0.577  0.00  0.00    -0.314 N 
ATOM     28  C   UNL     1      -1.396   4.249  -0.575  0.00  0.00    +0.125 C 
ATOM     29  C   UNL     1      -0.800   3.603  -1.830  0.00  0.00    +0.126 C 
BRANCH  27  30
ATOM     30  C   UNL     1      -0.949   4.667   1.701  0.00  0.00    +0.099 A 
ATOM     31  C   UNL     1      -0.255   4.530   2.898  0.00  0.00    +0.042 A 
ATOM     32  C   UNL     1      -0.682   5.235   4.008  0.00  0.00    +0.005 A 
ATOM     33  C   UNL     1      -1.795   6.057   3.883  0.00  0.00    +0.018 A 
ATOM     34  C   UNL     1      -2.436   6.146   2.664  0.00  0.00    +0.084 A 
ATOM     35  N   UNL     1      -2.040   5.472   1.551  0.00  0.00    -0.350 N 
ATOM     36  H   UNL     1      -2.532   5.564   0.655  0.00  0.00    +0.166 HD
ENDBRANCH  27  30
ENDBRANCH  21  22
ENDBRANCH  20  21
ENDBRANCH   5  20
TORSDOF 7
