REMARK  Name = ZINC34831593
REMARK  8 active torsions:
REMARK  status: ('A' for Active; 'I' for Inactive)
REMARK    1  A    between atoms: C_1  and  C_2
REMARK    2  A    between atoms: C_2  and  C_3
REMARK    3  A    between atoms: C_2  and  C_4
REMARK    4  A    between atoms: C_2  and  N_5
REMARK    5  A    between atoms: C_6  and  C_8
REMARK    6  A    between atoms: C_8  and  N_9
REMARK    7  A    between atoms: C_15  and  C_17
REMARK    8  A    between atoms: N_22  and  C_23
REMARK                            x       y       z     vdW  Elec       q    Type
REMARK                         _______ _______ _______ _____ _____    ______ ____
ROOT
ATOM      1  N   UNL     1       3.949  -0.782  -2.831  0.00  0.00    -0.291 NA
ATOM      2  C   UNL     1       4.724  -1.382  -1.737  0.00  0.00    +0.104 C 
ATOM      3  C   UNL     1       6.042  -0.618  -1.571  0.00  0.00    +0.123 C 
ATOM      4  N   UNL     1       6.728  -0.581  -2.872  0.00  0.00    -0.294 N 
ATOM      5  C   UNL     1       5.969  -0.120  -4.045  0.00  0.00    +0.123 C 
ATOM      6  C   UNL     1       4.654  -0.903  -4.114  0.00  0.00    +0.104 C 
ATOM      7  C   UNL     1       8.016  -0.959  -2.986  0.00  0.00    +0.266 C 
ATOM      8  O   UNL     1       8.529  -1.047  -4.086  0.00  0.00    -0.268 OA
ENDROOT
BRANCH   7   9
ATOM      9  C   UNL     1       8.803  -1.265  -1.780  0.00  0.00    +0.135 A 
ATOM     10  C   UNL     1      10.054  -1.818  -1.887  0.00  0.00    +0.081 A 
ATOM     11  S   UNL     1      10.505  -1.958  -0.163  0.00  0.00    -0.060 S 
ATOM     12  C   UNL     1       9.003  -1.275   0.522  0.00  0.00    +0.163 A 
ATOM     13  N   UNL     1       8.312  -1.002  -0.567  0.00  0.00    -0.220 NA
ATOM     14  N   UNL     1       8.657  -1.078   1.849  0.00  0.00    -0.294 N 
ATOM     15  H   UNL     1       7.764  -0.776   2.078  0.00  0.00    +0.154 HD
BRANCH  14  16
ATOM     16  C   UNL     1       9.595  -1.314   2.858  0.00  0.00    +0.033 A 
ATOM     17  C   UNL     1      10.940  -1.050   2.634  0.00  0.00    +0.025 A 
ATOM     18  C   UNL     1      11.864  -1.284   3.633  0.00  0.00    +0.022 A 
ATOM     19  C   UNL     1      11.451  -1.782   4.857  0.00  0.00    +0.041 A 
ATOM     20  C   UNL     1      10.112  -2.046   5.083  0.00  0.00    +0.022 A 
ATOM     21  C   UNL     1       9.182  -1.809   4.089  0.00  0.00    +0.025 A 
ATOM     22 CL   UNL     1      12.616  -2.075   6.110  0.00  0.00    -0.084 Cl
ENDBRANCH  14  16
ENDBRANCH   7   9
BRANCH   1  23
ATOM     23  C   UNL     1       2.606  -1.374  -2.911  0.00  0.00    +0.180 C 
BRANCH  23  25
ATOM     24  N   UNL     1       0.560  -1.456  -1.524  0.00  0.00    -0.310 N 
ATOM     25  C   UNL     1       1.826  -1.019  -1.671  0.00  0.00    +0.227 C 
ATOM     26  O   UNL     1       2.338  -0.339  -0.807  0.00  0.00    -0.274 OA
ATOM     27  H   UNL     1       0.151  -1.999  -2.215  0.00  0.00    +0.149 HD
BRANCH  24  29
ATOM     28  C   UNL     1      -0.318   0.411  -0.210  0.00  0.00    +0.031 C 
ATOM     29  C   UNL     1      -0.199  -1.110  -0.319  0.00  0.00    +0.026 C 
ATOM     30  C   UNL     1       0.526  -1.655   0.914  0.00  0.00    +0.031 C 
ATOM     31  C   UNL     1      -1.596  -1.727  -0.402  0.00  0.00    +0.031 C 
ENDBRANCH  24  29
ENDBRANCH  23  25
ENDBRANCH   1  23
TORSDOF 5
