REMARK  Name = ZINC36491173
REMARK  10 active torsions:
REMARK  status: ('A' for Active; 'I' for Inactive)
REMARK    1  A    between atoms: C_1  and  O_2
REMARK    2  A    between atoms: O_2  and  C_3
REMARK    3  A    between atoms: C_5  and  C_10
REMARK    4  A    between atoms: C_8  and  O_9
REMARK    5  A    between atoms: C_10  and  C_12
REMARK    6  A    between atoms: C_10  and  N_21
REMARK    7  A    between atoms: N_14  and  C_15
REMARK    8  A    between atoms: N_21  and  C_22
REMARK    9  A    between atoms: C_28  and  C_30
REMARK   10  A    between atoms: C_34  and  N_36
REMARK                            x       y       z     vdW  Elec       q    Type
REMARK                         _______ _______ _______ _____ _____    ______ ____
ROOT
ATOM      1  C   UNL     1       2.342   0.535  -4.718  0.00  0.00    +0.193 C 
ENDROOT
BRANCH   1   4
ATOM      2  C   UNL     1      -0.971   0.860  -2.930  0.00  0.00    +0.162 A 
ATOM      3  C   UNL     1       0.381   0.954  -3.221  0.00  0.00    +0.055 A 
ATOM      4  C   UNL     1       0.872   0.432  -4.403  0.00  0.00    -0.015 A 
ATOM      5  C   UNL     1       0.017  -0.185  -5.298  0.00  0.00    +0.010 A 
ATOM      6  C   UNL     1      -1.333  -0.282  -5.014  0.00  0.00    +0.049 A 
ATOM      7  C   UNL     1      -1.830   0.234  -3.828  0.00  0.00    +0.158 A 
BRANCH   2   9
ATOM      8  C   UNL     1      -0.514   2.002  -0.894  0.00  0.00    +0.277 C 
ATOM      9  O   UNL     1      -1.455   1.373  -1.768  0.00  0.00    -0.491 OA
ENDBRANCH   2   9
BRANCH   7  10
ATOM     10  O   UNL     1      -3.156   0.135  -3.545  0.00  0.00    -0.503 OA
ATOM     11  H   UNL     1      -3.684   0.879  -3.864  0.00  0.00    +0.292 HD
ENDBRANCH   7  10
ENDBRANCH   1   4
BRANCH   1  12
ATOM     12  C   UNL     1       2.574   0.170  -6.161  0.00  0.00    +0.238 C 
ATOM     13  O   UNL     1       3.344  -0.724  -6.444  0.00  0.00    -0.273 OA
ATOM     14  N   UNL     1       1.926   0.835  -7.137  0.00  0.00    -0.311 N 
ATOM     15  H   UNL     1       1.310   1.550  -6.911  0.00  0.00    +0.149 HD
BRANCH  14  16
ATOM     16  C   UNL     1       2.151   0.480  -8.541  0.00  0.00    +0.073 C 
ATOM     17  C   UNL     1       3.387   1.216  -9.061  0.00  0.00    +0.022 C 
ATOM     18  C   UNL     1       3.623   0.845 -10.527  0.00  0.00    +0.002 C 
ATOM     19  C   UNL     1       2.402   1.247 -11.357  0.00  0.00    +0.000 C 
ATOM     20  C   UNL     1       1.166   0.511 -10.836  0.00  0.00    +0.002 C 
ATOM     21  C   UNL     1       0.930   0.882  -9.371  0.00  0.00    +0.022 C 
ENDBRANCH  14  16
ENDBRANCH   1  12
BRANCH   1  22
ATOM     22  N   UNL     1       3.091  -0.382  -3.855  0.00  0.00    -0.279 N 
ATOM     23  C   UNL     1       4.283  -0.007  -3.348  0.00  0.00    +0.248 C 
ATOM     24  O   UNL     1       4.683   1.129  -3.511  0.00  0.00    -0.270 OA
BRANCH  22  25
ATOM     25  C   UNL     1       2.546  -1.705  -3.544  0.00  0.00    +0.077 C 
ATOM     26  C   UNL     1       2.166  -2.419  -4.843  0.00  0.00    +0.022 C 
ATOM     27  C   UNL     1       1.597  -3.801  -4.517  0.00  0.00    +0.002 C 
ATOM     28  C   UNL     1       0.354  -3.646  -3.638  0.00  0.00    +0.000 C 
ATOM     29  C   UNL     1       0.733  -2.932  -2.339  0.00  0.00    +0.002 C 
ATOM     30  C   UNL     1       1.303  -1.550  -2.665  0.00  0.00    +0.022 C 
ENDBRANCH  22  25
BRANCH  23  31
ATOM     31  C   UNL     1       5.104  -0.979  -2.594  0.00  0.00    +0.039 A 
ATOM     32  C   UNL     1       5.411  -2.220  -3.154  0.00  0.00    +0.013 A 
ATOM     33  C   UNL     1       6.178  -3.122  -2.446  0.00  0.00    +0.003 A 
ATOM     34  C   UNL     1       6.641  -2.799  -1.183  0.00  0.00    +0.033 A 
ATOM     35  C   UNL     1       6.339  -1.571  -0.622  0.00  0.00    +0.127 A 
ATOM     36  C   UNL     1       5.579  -0.657  -1.322  0.00  0.00    +0.045 A 
BRANCH  35  37
ATOM     37  N   UNL     1       6.838  -1.234   0.730  0.00  0.00    +0.056 N 
ATOM     38  O   UNL     1       7.509  -2.031   1.343  0.00  0.00    -0.126 OA
ATOM     39  O   UNL     1       6.575  -0.161   1.222  0.00  0.00    -0.126 OA
ENDBRANCH  35  37
ENDBRANCH  23  31
ENDBRANCH   1  22
TORSDOF 9
