REMARK  Name = ZINC58803357
REMARK  9 active torsions:
REMARK  status: ('A' for Active; 'I' for Inactive)
REMARK    1  A    between atoms: C_3  and  C_8
REMARK    2  A    between atoms: C_8  and  C_10
REMARK    3  A    between atoms: C_8  and  N_29
REMARK    4  A    between atoms: C_10  and  N_11
REMARK    5  A    between atoms: C_12  and  C_14
REMARK    6  A    between atoms: C_15  and  C_16
REMARK    7  A    between atoms: C_19  and  S_22
REMARK    8  A    between atoms: S_22  and  N_25
REMARK    9  A    between atoms: N_25  and  C_26
REMARK                            x       y       z     vdW  Elec       q    Type
REMARK                         _______ _______ _______ _____ _____    ______ ____
ROOT
ATOM      1  N   UNL     1       5.595   2.900  -1.367  0.00  0.00    -0.313 N 
ATOM      2  C   UNL     1       6.309   3.090  -2.494  0.00  0.00    +0.237 C 
ATOM      3  O   UNL     1       5.911   2.634  -3.550  0.00  0.00    -0.271 OA
ATOM      4  H   UNL     1       5.912   3.264  -0.525  0.00  0.00    +0.149 HD
ENDROOT
BRANCH   2   5
ATOM      5  C   UNL     1       7.563   3.845  -2.449  0.00  0.00    +0.068 C 
ATOM      6  C   UNL     1       8.276   4.035  -3.577  0.00  0.00    +0.013 C 
BRANCH   6   7
ATOM      7  C   UNL     1       9.537   4.794  -3.531  0.00  0.00    -0.025 A 
ATOM      8  C   UNL     1      10.000   5.314  -2.319  0.00  0.00    +0.010 A 
ATOM      9  C   UNL     1      11.182   6.024  -2.284  0.00  0.00    +0.029 A 
ATOM     10  C   UNL     1      11.909   6.221  -3.446  0.00  0.00    +0.105 A 
ATOM     11  C   UNL     1      11.457   5.710  -4.649  0.00  0.00    +0.029 A 
ATOM     12  C   UNL     1      10.280   4.993  -4.699  0.00  0.00    +0.010 A 
BRANCH  10  13
ATOM     13  S   UNL     1      13.418   7.130  -3.391  0.00  0.00    +0.059 S 
ATOM     14  O   UNL     1      13.630   7.643  -4.699  0.00  0.00    -0.153 OA
ATOM     15  O   UNL     1      13.345   7.969  -2.246  0.00  0.00    -0.153 OA
BRANCH  13  16
ATOM     16  N   UNL     1      14.634   6.043  -3.105  0.00  0.00    -0.187 NA
ATOM     17  H   UNL     1      15.140   6.089  -2.279  0.00  0.00    +0.148 HD
BRANCH  16  18
ATOM     18  C   UNL     1      14.945   5.014  -4.099  0.00  0.00    +0.077 C 
ATOM     19  C   UNL     1      15.423   3.655  -3.584  0.00  0.00    +0.022 C 
ATOM     20  C   UNL     1      16.411   4.607  -4.260  0.00  0.00    +0.022 C 
ENDBRANCH  16  18
ENDBRANCH  13  16
ENDBRANCH  10  13
ENDBRANCH   6   7
ENDBRANCH   2   5
BRANCH   1  21
ATOM     21  C   UNL     1       4.341   2.145  -1.412  0.00  0.00    +0.094 C 
BRANCH  21  22
ATOM     22  C   UNL     1       3.668   2.191  -0.039  0.00  0.00    -0.020 C 
BRANCH  22  25
ATOM     23  C   UNL     1       3.668   5.684   1.393  0.00  0.00    +0.002 A 
ATOM     24  C   UNL     1       4.042   4.384   1.106  0.00  0.00    +0.002 A 
ATOM     25  C   UNL     1       3.259   3.607   0.274  0.00  0.00    -0.058 A 
ATOM     26  C   UNL     1       2.102   4.129  -0.273  0.00  0.00    +0.022 A 
ATOM     27  C   UNL     1       1.727   5.429   0.014  0.00  0.00    +0.041 A 
ATOM     28  C   UNL     1       2.511   6.207   0.848  0.00  0.00    +0.020 A 
ATOM     29 CL   UNL     1       0.273   6.085  -0.672  0.00  0.00    -0.084 Cl
ENDBRANCH  22  25
BRANCH  22  30
ATOM     30  N   UNL     1       2.479   1.328  -0.047  0.00  0.00    +0.385 N 
ATOM     31  C   UNL     1       2.873  -0.085  -0.277  0.00  0.00    -0.078 C 
ATOM     32  C   UNL     1       1.673  -0.884   0.290  0.00  0.00    -0.020 C 
ATOM     33  C   UNL     1       1.264  -0.060   1.532  0.00  0.00    -0.020 C 
ATOM     34  C   UNL     1       1.822   1.353   1.278  0.00  0.00    -0.078 C 
ATOM     35  H   UNL     1       1.834   1.631  -0.761  0.00  0.00    -0.081 HD
ENDBRANCH  22  30
ENDBRANCH  21  22
ENDBRANCH   1  21
TORSDOF 9
