REMARK  Name = ZINC05337507
REMARK  4 active torsions:
REMARK  status: ('A' for Active; 'I' for Inactive)
REMARK    1  A    between atoms: C_1  and  C_2
REMARK    2  A    between atoms: C_2  and  C_3
REMARK    3  A    between atoms: C_8  and  C_14
REMARK    4  A    between atoms: C_10  and  C_12
REMARK                            x       y       z     vdW  Elec       q    Type
REMARK                         _______ _______ _______ _____ _____    ______ ____
ROOT
ATOM      1  C   UNL     1       2.063   1.802  -1.171  0.00  0.00    +0.026 C 
ATOM      2  C   UNL     1       0.689   2.296  -0.825  0.00  0.00    -0.027 C 
ATOM      3  C   UNL     1      -0.100   1.713   0.019  0.00  0.00    -0.030 C 
ATOM      4  C   UNL     1       0.245   0.455   0.762  0.00  0.00    +0.042 C 
ATOM      5  C   UNL     1       1.756   0.213   0.715  0.00  0.00    +0.120 C 
ATOM      6  C   UNL     1       2.223   0.343  -0.740  0.00  0.00    +0.123 C 
ENDROOT
BRANCH   6   7
ATOM      7  C   UNL     1       3.670  -0.066  -0.846  0.00  0.00    +0.360 C 
ATOM      8  O   UNL     1       4.540   0.699  -0.504  0.00  0.00    -0.246 OA
ATOM      9  O   UNL     1       3.991  -1.280  -1.320  0.00  0.00    -0.246 OA
ENDBRANCH   6   7
BRANCH   5  10
ATOM     10  C   UNL     1       2.063  -1.170   1.229  0.00  0.00    +0.360 C 
ATOM     11  O   UNL     1       1.313  -2.085   0.986  0.00  0.00    -0.246 OA
ATOM     12  O   UNL     1       3.170  -1.384   1.958  0.00  0.00    -0.246 OA
ENDBRANCH   5  10
BRANCH   1  14
ATOM     13  C   UNL     1       2.236   3.381  -3.100  0.00  0.00    +0.004 C 
ATOM     14  C   UNL     1       2.271   1.909  -2.683  0.00  0.00    +0.005 C 
ENDBRANCH   1  14
TORSDOF 3
