REMARK  Name = ZINC09304625
REMARK  8 active torsions:
REMARK  status: ('A' for Active; 'I' for Inactive)
REMARK    1  A    between atoms: C_1  and  C_2
REMARK    2  A    between atoms: C_3  and  C_40
REMARK    3  A    between atoms: C_5  and  N_11
REMARK    4  A    between atoms: C_6  and  C_7
REMARK    5  A    between atoms: C_7  and  O_9
REMARK    6  A    between atoms: O_9  and  C_10
REMARK    7  A    between atoms: C_26  and  C_32
REMARK    8  A    between atoms: C_32  and  C_34
REMARK                            x       y       z     vdW  Elec       q    Type
REMARK                         _______ _______ _______ _____ _____    ______ ____
ROOT
ATOM      1  N   UNL     1       0.325   0.584  -2.805  0.00  0.00    -0.203 N 
ATOM      2  C   UNL     1       1.544   0.106  -2.509  0.00  0.00    +0.233 C 
ATOM      3  O   UNL     1       1.890  -1.054  -2.586  0.00  0.00    -0.274 OA
ATOM      4  C   UNL     1       2.413   1.263  -2.065  0.00  0.00    +0.113 C 
ATOM      5  C   UNL     1       3.121   0.936  -0.752  0.00  0.00    +0.100 C 
ATOM      6  C   UNL     1       3.405  -0.537  -0.625  0.00  0.00    -0.021 A 
ATOM      7  C   UNL     1       3.721  -1.300  -1.725  0.00  0.00    +0.006 A 
ATOM      8  C   UNL     1       3.963  -2.656  -1.580  0.00  0.00    +0.000 A 
ATOM      9  C   UNL     1       3.889  -3.248  -0.332  0.00  0.00    +0.001 A 
ATOM     10  C   UNL     1       3.577  -2.494   0.780  0.00  0.00    +0.008 A 
ATOM     11  C   UNL     1       3.333  -1.126   0.644  0.00  0.00    -0.019 A 
ATOM     12  C   UNL     1       3.005  -0.307   1.829  0.00  0.00    +0.022 C 
ATOM     13  C   UNL     1       2.431   0.900   1.659  0.00  0.00    +0.054 C 
ATOM     14  C   UNL     1       1.067   2.034  -0.184  0.00  0.00    +0.141 C 
ATOM     15  C   UNL     1       1.349   2.333  -1.670  0.00  0.00    +0.116 C 
ATOM     16  C   UNL     1       0.147   1.873  -2.479  0.00  0.00    +0.233 C 
ATOM     17  O   UNL     1      -0.810   2.555  -2.779  0.00  0.00    -0.274 OA
ATOM     18  N   UNL     1       2.403   1.591   0.315  0.00  0.00    -0.384 NA
ATOM     19  H   UNL     1       2.923   2.460   0.480  0.00  0.00    +0.127 HD
ENDROOT
BRANCH   1  24
ATOM     20  C   UNL     1      -2.343  -1.591  -6.522  0.00  0.00    +0.045 C 
ATOM     21  C   UNL     1      -2.004  -1.273  -5.088  0.00  0.00    -0.025 A 
ATOM     22  C   UNL     1      -2.726  -1.774  -4.069  0.00  0.00    -0.008 A 
ATOM     23  S   UNL     1      -1.917  -1.109  -2.629  0.00  0.00    -0.077 S 
ATOM     24  C   UNL     1      -0.667  -0.190  -3.397  0.00  0.00    +0.096 A 
ATOM     25  C   UNL     1      -0.891  -0.418  -4.750  0.00  0.00    +0.091 A 
ATOM     26  C   UNL     1      -3.927  -2.682  -4.132  0.00  0.00    +0.052 C 
BRANCH  25  27
ATOM     27  C   UNL     1      -0.039   0.179  -5.782  0.00  0.00    +0.342 C 
ATOM     28  O   UNL     1       0.987  -0.379  -6.122  0.00  0.00    -0.245 OA
BRANCH  27  29
ATOM     29  O   UNL     1      -0.393   1.348  -6.354  0.00  0.00    -0.464 OA
ATOM     30  C   UNL     1       0.431   1.819  -7.454  0.00  0.00    +0.280 C 
ENDBRANCH  27  29
ENDBRANCH  25  27
ENDBRANCH   1  24
BRANCH  14  31
ATOM     31  C   UNL     1      -0.183   1.200  -0.060  0.00  0.00    +0.183 C 
ATOM     32  O   UNL     1      -0.102  -0.008   0.004  0.00  0.00    -0.290 OA
BRANCH  31  33
ATOM     33  C   UNL     1      -1.502   1.852  -0.024  0.00  0.00    +0.019 A 
ATOM     34  C   UNL     1      -1.597   3.247  -0.043  0.00  0.00    +0.011 A 
ATOM     35  C   UNL     1      -2.837   3.850  -0.014  0.00  0.00    +0.001 A 
ATOM     36  C   UNL     1      -3.984   3.079   0.045  0.00  0.00    +0.000 A 
ATOM     37  C   UNL     1      -3.898   1.698   0.070  0.00  0.00    +0.001 A 
ATOM     38  C   UNL     1      -2.666   1.080   0.036  0.00  0.00    +0.011 A 
ENDBRANCH  31  33
ENDBRANCH  14  31
TORSDOF 5
