REMARK  Name = ZINC02219395
REMARK  8 active torsions:
REMARK  status: ('A' for Active; 'I' for Inactive)
REMARK    1  A    between atoms: C_1  and  C_2
REMARK    2  A    between atoms: C_2  and  O_3
REMARK    3  A    between atoms: O_3  and  C_4
REMARK    4  A    between atoms: C_6  and  C_20
REMARK    5  A    between atoms: C_9  and  O_10
REMARK    6  A    between atoms: O_10  and  C_11
REMARK    7  A    between atoms: C_11  and  C_13
REMARK    8  A    between atoms: C_31  and  N_58
REMARK                            x       y       z     vdW  Elec       q    Type
REMARK                         _______ _______ _______ _____ _____    ______ ____
ROOT
ATOM      1  C   UNL     1      -6.722   1.076   4.473  0.00  0.00    +0.163 A 
ATOM      2  C   UNL     1      -5.766   2.071   4.602  0.00  0.00    +0.056 A 
ATOM      3  C   UNL     1      -4.489   1.752   5.026  0.00  0.00    -0.006 A 
ATOM      4  C   UNL     1      -4.166   0.444   5.332  0.00  0.00    +0.011 A 
ATOM      5  C   UNL     1      -5.116  -0.553   5.212  0.00  0.00    +0.050 A 
ATOM      6  C   UNL     1      -6.396  -0.241   4.782  0.00  0.00    +0.173 A 
ENDROOT
BRANCH   3   7
ATOM      7  C   UNL     1      -3.450   2.835   5.160  0.00  0.00    +0.190 C 
ATOM      8  N   UNL     1      -2.116   2.257   4.913  0.00  0.00    -0.316 N 
ATOM      9  C   UNL     1      -1.734   2.129   3.603  0.00  0.00    +0.080 A 
ATOM     10  C   UNL     1      -2.275   2.909   2.569  0.00  0.00    +0.068 A 
ATOM     11  C   UNL     1      -1.751   2.649   1.241  0.00  0.00    -0.027 A 
ATOM     12  C   UNL     1      -0.807   1.681   1.161  0.00  0.00    -0.021 A 
ATOM     13  S   UNL     1      -0.599   1.109   2.824  0.00  0.00    -0.080 S 
ATOM     14  C   UNL     1      -0.113   1.217  -0.080  0.00  0.00    -0.036 C 
ATOM     15  C   UNL     1      -1.138   3.159  -1.103  0.00  0.00    -0.074 C 
ATOM     16  C   UNL     1      -2.195   3.386  -0.018  0.00  0.00    +0.018 C 
ATOM     17  C   UNL     1      -0.139   1.448  -2.495  0.00  0.00    -0.096 C 
ATOM     18  C   UNL     1      -3.303   3.910   2.936  0.00  0.00    +0.248 C 
ATOM     19  O   UNL     1      -3.730   4.708   2.121  0.00  0.00    -0.270 OA
ATOM     20  N   UNL     1      -3.747   3.902   4.210  0.00  0.00    -0.289 N 
ATOM     21  H   UNL     1      -1.538   1.981   5.641  0.00  0.00    +0.149 HD
ATOM     22  H   UNL     1      -4.294   4.645   4.511  0.00  0.00    +0.151 HD
ATOM     23  N   UNL     1      -0.885   1.711  -1.246  0.00  0.00    +0.381 N 
ATOM     24  H   UNL     1      -1.785   1.217  -1.284  0.00  0.00    -0.082 HD
ENDBRANCH   3   7
BRANCH   1  25
ATOM     25  O   UNL     1      -7.976   1.387   4.051  0.00  0.00    -0.489 OA
BRANCH  25  27
ATOM     26  C   UNL     1      -9.691   2.913   3.296  0.00  0.00    +0.048 C 
ATOM     27  C   UNL     1      -8.239   2.759   3.752  0.00  0.00    +0.226 C 
ENDBRANCH  25  27
ENDBRANCH   1  25
BRANCH   6  28
ATOM     28  O   UNL     1      -7.332  -1.221   4.663  0.00  0.00    -0.419 OA
BRANCH  28  29
ATOM     29  C   UNL     1      -7.544  -1.717   3.428  0.00  0.00    +0.345 C 
ATOM     30  O   UNL     1      -6.844  -1.360   2.502  0.00  0.00    -0.245 OA
BRANCH  29  31
ATOM     31  C   UNL     1      -8.626  -2.695   3.201  0.00  0.00    +0.060 A 
ATOM     32  C   UNL     1      -9.428  -3.112   4.266  0.00  0.00    +0.018 A 
ATOM     33  C   UNL     1     -10.441  -4.021   4.047  0.00  0.00    +0.039 A 
ATOM     34  C   UNL     1     -10.656  -4.530   2.776  0.00  0.00    +0.123 A 
ATOM     35  C   UNL     1      -9.859  -4.124   1.716  0.00  0.00    +0.039 A 
ATOM     36  C   UNL     1      -8.847  -3.211   1.922  0.00  0.00    +0.018 A 
ATOM     37  F   UNL     1     -11.646  -5.426   2.568  0.00  0.00    -0.205 F 
ENDBRANCH  29  31
ENDBRANCH  28  29
ENDBRANCH   6  28
TORSDOF 6
