REMARK  Name = ZINC65526781
REMARK  5 active torsions:
REMARK  status: ('A' for Active; 'I' for Inactive)
REMARK    1  A    between atoms: C_1  and  O_2
REMARK    2  A    between atoms: O_2  and  C_3
REMARK    3  A    between atoms: C_6  and  C_9
REMARK    4  A    between atoms: C_11  and  C_21
REMARK    5  A    between atoms: N_13  and  C_15
REMARK                            x       y       z     vdW  Elec       q    Type
REMARK                         _______ _______ _______ _____ _____    ______ ____
ROOT
ATOM      1  C   UNL     1       2.587  -2.550   4.310  0.00  0.00    +0.132 C 
ATOM      2  C   UNL     1       1.571  -3.074   5.302  0.00  0.00    -0.009 C 
ATOM      3  C   UNL     1       1.726  -4.382   5.352  0.00  0.00    +0.097 C 
ATOM      4  N   UNL     1       2.732  -4.809   4.508  0.00  0.00    -0.242 N 
ATOM      5  N   UNL     1       3.300  -3.756   3.845  0.00  0.00    -0.224 NA
ATOM      6  H   UNL     1       4.288  -3.691   4.043  0.00  0.00    +0.146 HD
ENDROOT
BRANCH   2   7
ATOM      7  C   UNL     1       0.574  -2.258   6.083  0.00  0.00    +0.132 C 
ATOM      8  C   UNL     1      -0.405  -1.608   5.136  0.00  0.00    +0.058 A 
ATOM      9  H   UNL     1      -2.129   0.756   4.051  0.00  0.00    +0.166 HD
ATOM     10  C   UNL     1      -0.802  -0.320   5.248  0.00  0.00    +0.039 A 
ATOM     11  N   UNL     1      -1.674  -0.080   4.235  0.00  0.00    -0.349 N 
ATOM     12  C   UNL     1      -1.788  -1.231   3.531  0.00  0.00    +0.171 A 
ATOM     13  N   UNL     1      -1.023  -2.139   4.081  0.00  0.00    -0.348 N 
ATOM     14  C   UNL     1      -0.318   0.608   6.332  0.00  0.00    +0.070 C 
ATOM     15  C   UNL     1       0.328  -0.248   7.431  0.00  0.00    +0.088 C 
ATOM     16  N   UNL     1       1.274  -1.196   6.826  0.00  0.00    -0.304 NA
ATOM     17  H   UNL     1       1.890  -1.588   7.522  0.00  0.00    +0.123 HD
ATOM     18  H   UNL     1      -0.922  -3.052   3.771  0.00  0.00    +0.166 HD
ENDBRANCH   2   7
BRANCH   1  22
ATOM     19  C   UNL     1       0.626  -0.618   1.042  0.00  0.00    +0.120 A 
ATOM     20  C   UNL     1       1.202   0.138   2.051  0.00  0.00    +0.046 A 
ATOM     21  C   UNL     1       1.835  -0.488   3.107  0.00  0.00    +0.009 A 
ATOM     22  C   UNL     1       1.895  -1.869   3.158  0.00  0.00    -0.025 A 
ATOM     23  C   UNL     1       1.322  -2.625   2.152  0.00  0.00    +0.009 A 
ATOM     24  C   UNL     1       0.682  -2.003   1.098  0.00  0.00    +0.046 A 
BRANCH  19  26
ATOM     25  C   UNL     1      -0.017   1.425   0.010  0.00  0.00    +0.277 C 
ATOM     26  O   UNL     1       0.002  -0.004   0.002  0.00  0.00    -0.495 OA
ENDBRANCH  19  26
ENDBRANCH   1  22
BRANCH   4  27
ATOM     27  C   UNL     1       3.120  -6.143   4.352  0.00  0.00    +0.049 A 
ATOM     28  C   UNL     1       4.151  -6.471   3.480  0.00  0.00    +0.025 A 
ATOM     29  C   UNL     1       4.532  -7.789   3.328  0.00  0.00    +0.002 A 
ATOM     30  C   UNL     1       3.889  -8.783   4.043  0.00  0.00    +0.000 A 
ATOM     31  C   UNL     1       2.863  -8.460   4.913  0.00  0.00    +0.002 A 
ATOM     32  C   UNL     1       2.481  -7.143   5.074  0.00  0.00    +0.025 A 
ENDBRANCH   4  27
TORSDOF 4
