REMARK  Name = ZINC64173373
REMARK  8 active torsions:
REMARK  status: ('A' for Active; 'I' for Inactive)
REMARK    1  A    between atoms: C_1  and  C_2
REMARK    2  A    between atoms: C_4  and  C_8
REMARK    3  A    between atoms: C_5  and  C_7
REMARK    4  A    between atoms: C_14  and  C_16
REMARK    5  A    between atoms: C_16  and  C_18
REMARK    6  A    between atoms: C_16  and  N_28
REMARK    7  A    between atoms: C_18  and  C_19
REMARK    8  A    between atoms: C_29  and  C_31
REMARK                            x       y       z     vdW  Elec       q    Type
REMARK                         _______ _______ _______ _____ _____    ______ ____
ROOT
ATOM      1  C   UNL     1      -3.676  -9.001  -0.016  0.00  0.00    +0.163 C 
ENDROOT
BRANCH   1   8
ATOM      2  C   UNL     1      -1.896  -3.216  -0.007  0.00  0.00    +0.081 A 
ATOM      3  C   UNL     1      -3.203  -2.819  -0.004  0.00  0.00    +0.077 A 
ATOM      4  S   UNL     1      -4.032  -4.400  -0.006  0.00  0.00    -0.060 S 
ATOM      5  C   UNL     1      -2.667  -5.383  -0.010  0.00  0.00    +0.165 A 
ATOM      6  N   UNL     1      -1.673  -4.524  -0.016  0.00  0.00    -0.225 NA
ATOM      7  N   UNL     1      -2.606  -6.771  -0.013  0.00  0.00    -0.263 N 
ATOM      8  C   UNL     1      -3.742  -7.496  -0.013  0.00  0.00    +0.239 C 
ATOM      9  O   UNL     1      -4.818  -6.936  -0.011  0.00  0.00    -0.273 OA
ATOM     10  H   UNL     1      -1.745  -7.219  -0.015  0.00  0.00    +0.157 HD
BRANCH   2  14
ATOM     11  C   UNL     1      -0.018   1.503   0.010  0.00  0.00    +0.051 C 
ATOM     12  C   UNL     1       0.002  -0.004   0.002  0.00  0.00    -0.012 A 
ATOM     13  C   UNL     1      -1.039  -0.868   0.002  0.00  0.00    +0.021 A 
ATOM     14  C   UNL     1      -0.782  -2.235  -0.007  0.00  0.00    +0.011 A 
ATOM     15  C   UNL     1       0.518  -2.654  -0.015  0.00  0.00    -0.004 A 
ATOM     16  S   UNL     1       1.406  -1.106  -0.018  0.00  0.00    -0.098 S 
ATOM     17  C   UNL     1       1.062  -4.059  -0.026  0.00  0.00    +0.052 C 
ENDBRANCH   2  14
ENDBRANCH   1   8
BRANCH   1  18
ATOM     18  N   UNL     1      -4.952  -9.546  -0.488  0.00  0.00    -0.304 N 
ATOM     19  C   UNL     1      -6.090  -9.271   0.180  0.00  0.00    +0.211 C 
ATOM     20  O   UNL     1      -6.057  -8.574   1.172  0.00  0.00    -0.276 OA
ATOM     21  C   UNL     1      -7.402  -9.831  -0.305  0.00  0.00    +0.109 C 
ATOM     22  H   UNL     1      -4.977 -10.103  -1.281  0.00  0.00    +0.149 HD
ENDBRANCH   1  18
BRANCH   1  23
ATOM     23  C   UNL     1      -3.401  -9.503   1.403  0.00  0.00    +0.065 C 
BRANCH  23  24
ATOM     24  C   UNL     1      -3.213 -10.998   1.380  0.00  0.00    -0.039 C 
ATOM     25  C   UNL     1      -2.041 -11.669   1.310  0.00  0.00    -0.001 A 
ATOM     26  C   UNL     1      -0.644 -11.224   1.236  0.00  0.00    +0.010 A 
ATOM     27  C   UNL     1       0.337 -12.153   1.174  0.00  0.00    +0.001 A 
ATOM     28  C   UNL     1       0.054 -13.526   1.178  0.00  0.00    +0.002 A 
ATOM     29  C   UNL     1      -1.204 -14.011   1.244  0.00  0.00    +0.026 A 
ATOM     30  C   UNL     1      -2.313 -13.124   1.314  0.00  0.00    +0.043 A 
ATOM     31  N   UNL     1      -3.604 -13.344   1.383  0.00  0.00    -0.380 N 
ATOM     32  C   UNL     1      -4.296 -12.052   1.438  0.00  0.00    +0.144 C 
ATOM     33  H   UNL     1      -4.029 -14.215   1.400  0.00  0.00    +0.160 HD
ENDBRANCH  23  24
ENDBRANCH   1  23
TORSDOF 5
