REMARK  Name = ZINC16677869
REMARK  12 active torsions:
REMARK  status: ('A' for Active; 'I' for Inactive)
REMARK    1  A    between atoms: C_1  and  C_2
REMARK    2  A    between atoms: C_2  and  C_3
REMARK    3  A    between atoms: C_3  and  C_4
REMARK    4  A    between atoms: C_5  and  C_19
REMARK    5  A    between atoms: C_6  and  O_18
REMARK    6  A    between atoms: N_7  and  C_9
REMARK    7  A    between atoms: C_12  and  N_15
REMARK    8  A    between atoms: N_20  and  C_21
REMARK    9  A    between atoms: C_23  and  C_29
REMARK   10  A    between atoms: C_23  and  C_30
REMARK   11  A    between atoms: C_25  and  C_27
REMARK   12  A    between atoms: C_25  and  C_28
REMARK                            x       y       z     vdW  Elec       q    Type
REMARK                         _______ _______ _______ _____ _____    ______ ____
ROOT
ATOM      1  C   UNL     1      -1.817  -1.987  -0.083  0.00  0.00    +0.076 A 
ATOM      2  C   UNL     1      -1.758  -2.819  -1.225  0.00  0.00    +0.075 A 
ATOM      3  C   UNL     1      -1.643  -4.127  -0.771  0.00  0.00    +0.225 A 
ATOM      4  N   UNL     1      -1.634  -4.080   0.579  0.00  0.00    -0.200 N 
ATOM      5  N   UNL     1      -1.738  -2.743   0.976  0.00  0.00    -0.168 NA
ENDROOT
BRANCH   4   6
ATOM      6  C   UNL     1      -1.533  -5.184   1.436  0.00  0.00    +0.069 A 
ATOM      7  C   UNL     1      -2.122  -6.392   1.087  0.00  0.00    +0.030 A 
ATOM      8  C   UNL     1      -2.021  -7.479   1.934  0.00  0.00    +0.035 A 
ATOM      9  C   UNL     1      -1.335  -7.364   3.129  0.00  0.00    +0.126 A 
ATOM     10  C   UNL     1      -0.748  -6.162   3.480  0.00  0.00    +0.035 A 
ATOM     11  C   UNL     1      -0.840  -5.074   2.634  0.00  0.00    +0.030 A 
BRANCH   9  12
ATOM     12  N   UNL     1      -1.229  -8.530   4.035  0.00  0.00    +0.056 N 
ATOM     13  O   UNL     1      -1.742  -9.581   3.730  0.00  0.00    -0.126 OA
ATOM     14  O   UNL     1      -0.629  -8.431   5.080  0.00  0.00    -0.126 OA
ENDBRANCH   9  12
ENDBRANCH   4   6
BRANCH   2  15
ATOM     15  C   UNL     1      -1.808  -2.383  -2.628  0.00  0.00    +0.093 C 
ATOM     16  N   UNL     1      -1.743  -3.259  -3.582  0.00  0.00    -0.387 N 
ATOM     17  H   UNL     1      -1.661  -4.202  -3.370  0.00  0.00    +0.159 HD
BRANCH  16  18
ATOM     18  C   UNL     1      -1.794  -2.823  -4.983  0.00  0.00    +0.076 C 
ATOM     19  C   UNL     1      -2.977  -3.501  -5.678  0.00  0.00    +0.011 C 
ATOM     20  C   UNL     1      -3.036  -3.067  -7.142  0.00  0.00    -0.071 C 
ATOM     21  N   UNL     1      -1.776  -3.297  -7.833  0.00  0.00    +0.386 N 
ATOM     22  C   UNL     1      -0.553  -2.875  -7.168  0.00  0.00    -0.071 C 
ATOM     23  C   UNL     1      -0.510  -3.255  -5.691  0.00  0.00    +0.011 C 
ATOM     24  C   UNL     1      -0.311  -1.372  -7.328  0.00  0.00    -0.010 C 
ATOM     25  C   UNL     1       0.626  -3.598  -7.862  0.00  0.00    -0.010 C 
ATOM     26  C   UNL     1      -3.490  -1.612  -7.244  0.00  0.00    -0.010 C 
ATOM     27  C   UNL     1      -4.113  -3.933  -7.834  0.00  0.00    -0.010 C 
ATOM     28  H   UNL     1      -1.701  -4.296  -8.040  0.00  0.00    -0.084 HD
ATOM     29  H   UNL     1      -1.821  -2.837  -8.746  0.00  0.00    -0.084 HD
ENDBRANCH  16  18
ENDBRANCH   2  15
BRANCH   3  30
ATOM     30  O   UNL     1      -1.557  -5.240  -1.538  0.00  0.00    -0.492 OA
ATOM     31  H   UNL     1      -0.651  -5.489  -1.769  0.00  0.00    +0.294 HD
ENDBRANCH   3  30
BRANCH   1  32
ATOM     32  C   UNL     1      -1.943  -0.485  -0.090  0.00  0.00    +0.058 C 
BRANCH  32  34
ATOM     33  C   UNL     1      -0.677   1.668  -0.120  0.00  0.00    +0.004 C 
ATOM     34  C   UNL     1      -0.549   0.144  -0.113  0.00  0.00    +0.003 C 
ENDBRANCH  32  34
ENDBRANCH   1  32
TORSDOF 7
