REMARK  Name = ZINC39945647
REMARK  7 active torsions:
REMARK  status: ('A' for Active; 'I' for Inactive)
REMARK    1  A    between atoms: C_4  and  C_7
REMARK    2  A    between atoms: C_9  and  C_17
REMARK    3  A    between atoms: N_18  and  N_19
REMARK    4  A    between atoms: C_20  and  C_22
REMARK    5  A    between atoms: C_25  and  N_28
REMARK    6  A    between atoms: N_28  and  S_29
REMARK    7  A    between atoms: S_29  and  C_32
REMARK                            x       y       z     vdW  Elec       q    Type
REMARK                         _______ _______ _______ _____ _____    ______ ____
ROOT
ATOM      1  N   UNL     1       4.732  -0.239   4.792  0.00  0.00    -0.203 N 
ATOM      2  C   UNL     1       5.029  -0.837   5.963  0.00  0.00    +0.263 C 
ATOM      3  O   UNL     1       5.125  -2.048   6.019  0.00  0.00    -0.268 OA
ATOM      4  H   UNL     1       4.654   0.727   4.747  0.00  0.00    +0.178 HD
ENDROOT
BRANCH   2   5
ATOM      5  C   UNL     1       5.236  -0.024   7.174  0.00  0.00    +0.038 A 
ATOM      6  C   UNL     1       5.120   1.369   7.112  0.00  0.00    +0.015 A 
ATOM      7  C   UNL     1       5.313   2.122   8.241  0.00  0.00    +0.027 A 
ATOM      8  C   UNL     1       5.625   1.503   9.448  0.00  0.00    +0.074 A 
ATOM      9  C   UNL     1       5.742   0.117   9.514  0.00  0.00    +0.027 A 
ATOM     10  C   UNL     1       5.544  -0.643   8.390  0.00  0.00    +0.015 A 
BRANCH   8  11
ATOM     11  N   UNL     1       5.821   2.270  10.591  0.00  0.00    -0.097 NA
BRANCH  11  12
ATOM     12  S   UNL     1       6.192   1.536  12.028  0.00  0.00    +0.098 S 
ATOM     13  O   UNL     1       5.052   0.774  12.402  0.00  0.00    -0.148 OA
ATOM     14  O   UNL     1       7.478   0.953  11.866  0.00  0.00    -0.148 OA
BRANCH  12  15
ATOM     15  C   UNL     1       6.365   2.808  13.235  0.00  0.00    +0.148 A 
ATOM     16  C   UNL     1       5.424   3.345  14.049  0.00  0.00    +0.037 A 
ATOM     17  C   UNL     1       5.792   4.346  14.929  0.00  0.00    +0.010 A 
ATOM     18  C   UNL     1       7.082   4.761  14.951  0.00  0.00    +0.047 A 
ATOM     19  S   UNL     1       7.826   3.720  13.706  0.00  0.00    -0.077 S 
ENDBRANCH  12  15
ENDBRANCH  11  12
ENDBRANCH   8  11
ENDBRANCH   2   5
BRANCH   1  21
ATOM     20  C   UNL     1       4.246  -0.431   2.503  0.00  0.00    +0.137 C 
ATOM     21  N   UNL     1       4.534  -1.012   3.640  0.00  0.00    -0.188 NA
BRANCH  20  23
ATOM     22  C   UNL     1       3.711  -0.707  -0.038  0.00  0.00    +0.142 C 
ATOM     23  C   UNL     1       4.048  -1.204   1.351  0.00  0.00    +0.008 C 
ATOM     24  C   UNL     1       4.122  -2.591   1.245  0.00  0.00    +0.005 A 
ATOM     25  C   UNL     1       4.398  -3.607   2.186  0.00  0.00    +0.010 A 
ATOM     26  C   UNL     1       4.403  -4.906   1.793  0.00  0.00    +0.001 A 
ATOM     27  C   UNL     1       4.140  -5.272   0.470  0.00  0.00    +0.002 A 
ATOM     28  C   UNL     1       3.868  -4.351  -0.486  0.00  0.00    +0.026 A 
ATOM     29  C   UNL     1       3.844  -2.971  -0.151  0.00  0.00    +0.044 A 
ATOM     30  N   UNL     1       3.611  -1.901  -0.883  0.00  0.00    -0.373 N 
ATOM     31  H   UNL     1       3.405  -1.901  -1.831  0.00  0.00    +0.161 HD
BRANCH  22  35
ATOM     32  C   UNL     1      -0.017   1.378   0.010  0.00  0.00    +0.000 A 
ATOM     33  C   UNL     1       1.171   2.086   0.002  0.00  0.00    +0.000 A 
ATOM     34  C   UNL     1       2.377   1.411  -0.013  0.00  0.00    +0.006 A 
ATOM     35  C   UNL     1       2.396   0.029  -0.020  0.00  0.00    -0.021 A 
ATOM     36  C   UNL     1       1.208  -0.679  -0.012  0.00  0.00    +0.006 A 
ATOM     37  C   UNL     1       0.002  -0.004   0.002  0.00  0.00    +0.000 A 
ENDBRANCH  22  35
ENDBRANCH  20  23
ENDBRANCH   1  21
TORSDOF 7
