REMARK  Name = ZINC13552484
REMARK  3 active torsions:
REMARK  status: ('A' for Active; 'I' for Inactive)
REMARK    1  A    between atoms: C_1  and  C_2
REMARK    2  A    between atoms: C_2  and  C_29
REMARK    3  A    between atoms: C_7  and  C_9
REMARK                            x       y       z     vdW  Elec       q    Type
REMARK                         _______ _______ _______ _____ _____    ______ ____
ROOT
ATOM      1  C   UNL     1      -0.019   1.526   0.010  0.00  0.00    +0.025 C 
ATOM      2  C   UNL     1       0.002  -0.004   0.002  0.00  0.00    +0.040 C 
ATOM      3  S   UNL     1       1.054  -0.644  -1.374  0.00  0.00    -0.125 S 
ATOM      4  C   UNL     1       2.521  -1.072  -0.344  0.00  0.00    +0.167 C 
ATOM      5  N   UNL     1       1.822  -1.490   0.903  0.00  0.00    -0.269 N 
ATOM      6  C   UNL     1       0.744  -0.556   1.244  0.00  0.00    +0.179 C 
ATOM      7  C   UNL     1       2.375  -2.661   1.281  0.00  0.00    +0.249 C 
ATOM      8  O   UNL     1       2.279  -3.152   2.389  0.00  0.00    -0.270 OA
ATOM      9  C   UNL     1       3.114  -3.257   0.152  0.00  0.00    +0.043 A 
ATOM     10  C   UNL     1       3.209  -2.293  -0.879  0.00  0.00    -0.005 A 
ATOM     11  C   UNL     1       3.836  -2.587  -2.068  0.00  0.00    +0.007 A 
ATOM     12  C   UNL     1       4.414  -3.831  -2.259  0.00  0.00    +0.000 A 
ATOM     13  C   UNL     1       4.365  -4.782  -1.256  0.00  0.00    +0.001 A 
ATOM     14  C   UNL     1       3.704  -4.508  -0.030  0.00  0.00    +0.013 A 
ATOM     15  C   UNL     1      -1.417  -0.568  -0.084  0.00  0.00    +0.025 C 
ENDROOT
BRANCH   6  16
ATOM     16  C   UNL     1      -0.250  -1.264   2.127  0.00  0.00    +0.241 C 
ATOM     17  O   UNL     1      -0.333  -2.474   2.098  0.00  0.00    -0.273 OA
ATOM     18  N   UNL     1      -1.047  -0.554   2.950  0.00  0.00    -0.263 N 
ATOM     19  C   UNL     1      -1.961  -1.206   3.762  0.00  0.00    +0.165 A 
ATOM     20  S   UNL     1      -2.275  -2.958   3.915  0.00  0.00    -0.052 S 
ATOM     21  C   UNL     1      -3.557  -2.850   5.139  0.00  0.00    +0.041 A 
ATOM     22  C   UNL     1      -3.656  -1.455   5.348  0.00  0.00    +0.080 A 
ATOM     23  N   UNL     1      -2.813  -0.693   4.619  0.00  0.00    -0.225 NA
ATOM     24  C   UNL     1      -4.617  -1.032   6.295  0.00  0.00    +0.029 A 
ATOM     25  C   UNL     1      -5.395  -1.945   6.958  0.00  0.00    +0.002 A 
ATOM     26  C   UNL     1      -5.271  -3.307   6.728  0.00  0.00    +0.001 A 
ATOM     27  C   UNL     1      -4.341  -3.756   5.808  0.00  0.00    +0.017 A 
ATOM     28  H   UNL     1      -0.981   0.413   2.973  0.00  0.00    +0.157 HD
ENDBRANCH   6  16
TORSDOF 1
