REMARK  Name = ZINC01530907
REMARK  7 active torsions:
REMARK  status: ('A' for Active; 'I' for Inactive)
REMARK    1  A    between atoms: C_1  and  N_2
REMARK    2  A    between atoms: C_3  and  C_20
REMARK    3  A    between atoms: C_9  and  S_15
REMARK    4  A    between atoms: S_15  and  N_18
REMARK    5  A    between atoms: C_20  and  S_21
REMARK    6  A    between atoms: S_21  and  C_22
REMARK    7  A    between atoms: C_22  and  C_23
REMARK                            x       y       z     vdW  Elec       q    Type
REMARK                         _______ _______ _______ _____ _____    ______ ____
ROOT
ATOM      1  C   UNL     1       0.123   1.379  -0.040  0.00  0.00    +0.134 C 
ATOM      2  N   UNL     1       0.049  -0.084  -0.051  0.00  0.00    -0.159 NA
ATOM      3  C   UNL     1      -1.239  -0.805   0.003  0.00  0.00    +0.172 C 
ATOM      4  N   UNL     1      -1.349  -1.655  -1.179  0.00  0.00    -0.325 N 
ATOM      5  C   UNL     1      -0.347  -2.530  -1.589  0.00  0.00    +0.056 A 
ATOM      6  C   UNL     1      -0.686  -3.602  -2.413  0.00  0.00    +0.047 A 
ATOM      7  C   UNL     1       0.288  -4.477  -2.850  0.00  0.00    +0.069 A 
ATOM      8  C   UNL     1       1.608  -4.296  -2.474  0.00  0.00    +0.125 A 
ATOM      9  C   UNL     1       1.950  -3.238  -1.652  0.00  0.00    +0.060 A 
ATOM     10  C   UNL     1       0.978  -2.367  -1.207  0.00  0.00    +0.128 A 
ATOM     11  S   UNL     1       1.415  -1.039  -0.132  0.00  0.00    +0.064 S 
ATOM     12  O   UNL     1       1.606  -1.601   1.159  0.00  0.00    -0.153 OA
ATOM     13  O   UNL     1       2.414  -0.279  -0.796  0.00  0.00    -0.153 OA
ATOM     14 CL   UNL     1      -0.145  -5.811  -3.874  0.00  0.00    -0.081 Cl
ATOM     15  H   UNL     1      -2.163  -1.609  -1.705  0.00  0.00    +0.148 HD
ENDROOT
BRANCH   8  16
ATOM     16  S   UNL     1       2.849  -5.410  -3.043  0.00  0.00    +0.057 S 
ATOM     17  O   UNL     1       2.666  -5.540  -4.447  0.00  0.00    -0.153 OA
ATOM     18  O   UNL     1       4.075  -4.978  -2.471  0.00  0.00    -0.153 OA
BRANCH  16  19
ATOM     19  N   UNL     1       2.515  -6.893  -2.384  0.00  0.00    -0.203 NA
ATOM     20  H   UNL     1       1.746  -7.003  -1.804  0.00  0.00    +0.144 HD
ATOM     21  H   UNL     1       3.089  -7.650  -2.579  0.00  0.00    +0.144 HD
ENDBRANCH  16  19
ENDBRANCH   8  16
BRANCH   3  22
ATOM     22  C   UNL     1      -1.292  -1.667   1.266  0.00  0.00    +0.109 C 
BRANCH  22  23
ATOM     23  S   UNL     1      -2.936  -2.420   1.415  0.00  0.00    -0.149 S 
BRANCH  23  24
ATOM     24  C   UNL     1      -2.835  -3.396   2.941  0.00  0.00    +0.182 C 
BRANCH  24  25
ATOM     25  C   UNL     1      -4.173  -4.094   3.190  0.00  0.00    +0.399 C 
ATOM     26  F   UNL     1      -4.464  -4.940   2.114  0.00  0.00    -0.170 F 
ATOM     27  F   UNL     1      -4.095  -4.846   4.367  0.00  0.00    -0.170 F 
ATOM     28  F   UNL     1      -5.183  -3.135   3.316  0.00  0.00    -0.170 F 
ENDBRANCH  24  25
ENDBRANCH  23  24
ENDBRANCH  22  23
ENDBRANCH   3  22
TORSDOF 6
