REMARK  Name = ZINC21234726
REMARK  8 active torsions:
REMARK  status: ('A' for Active; 'I' for Inactive)
REMARK    1  A    between atoms: C_1  and  C_2
REMARK    2  A    between atoms: C_2  and  C_3
REMARK    3  A    between atoms: C_2  and  C_4
REMARK    4  A    between atoms: C_4  and  O_5
REMARK    5  A    between atoms: O_5  and  C_6
REMARK    6  A    between atoms: C_9  and  C_12
REMARK    7  A    between atoms: C_17  and  C_27
REMARK    8  A    between atoms: C_31  and  O_33
REMARK                            x       y       z     vdW  Elec       q    Type
REMARK                         _______ _______ _______ _____ _____    ______ ____
ROOT
ATOM      1  C   UNL     1      -0.843   1.567  -1.261  0.00  0.00    +0.032 C 
ATOM      2  C   UNL     1      -2.295   1.110  -1.134  0.00  0.00    +0.059 C 
ATOM      3  C   UNL     1      -2.903   1.671   0.141  0.00  0.00    +0.017 C 
ATOM      4  C   UNL     1      -2.144   1.846   1.235  0.00  0.00    +0.036 C 
ATOM      5  C   UNL     1      -2.619   2.370   2.570  0.00  0.00    +0.136 C 
ATOM      6  N   UNL     1      -3.949   2.943   2.549  0.00  0.00    -0.331 N 
ATOM      7  C   UNL     1      -5.066   2.159   2.269  0.00  0.00    +0.049 A 
ATOM      8  C   UNL     1      -6.049   1.933   3.220  0.00  0.00    +0.025 A 
ATOM      9  C   UNL     1      -7.118   1.110   2.910  0.00  0.00    +0.002 A 
ATOM     10  C   UNL     1      -7.206   0.514   1.665  0.00  0.00    +0.002 A 
ATOM     11  C   UNL     1      -6.235   0.752   0.707  0.00  0.00    +0.025 A 
ATOM     12  C   UNL     1      -5.177   1.592   1.008  0.00  0.00    +0.052 A 
ATOM     13  N   UNL     1      -4.227   1.958   0.060  0.00  0.00    -0.316 N 
ATOM     14  C   UNL     1      -0.758   1.542   1.202  0.00  0.00    +0.163 C 
ATOM     15  O   UNL     1      -0.098   1.691   2.211  0.00  0.00    -0.292 OA
ATOM     16  C   UNL     1      -0.080   1.044  -0.038  0.00  0.00    +0.088 C 
ATOM     17  H   UNL     1      -4.089   4.014   2.756  0.00  0.00    +0.147 HD
ATOM     18  H   UNL     1      -4.616   2.518  -0.803  0.00  0.00    +0.152 HD
ENDROOT
BRANCH   1  22
ATOM     19  C   UNL     1       0.875  -0.033  -4.832  0.00  0.00    +0.121 A 
ATOM     20  C   UNL     1       0.837   1.340  -4.634  0.00  0.00    +0.046 A 
ATOM     21  C   UNL     1       0.281   1.855  -3.479  0.00  0.00    +0.007 A 
ATOM     22  C   UNL     1      -0.237   1.003  -2.521  0.00  0.00    -0.043 A 
ATOM     23  C   UNL     1      -0.195  -0.365  -2.713  0.00  0.00    +0.007 A 
ATOM     24  C   UNL     1       0.355  -0.885  -3.869  0.00  0.00    +0.046 A 
BRANCH  19  25
ATOM     25  O   UNL     1       1.421  -0.541  -5.968  0.00  0.00    -0.492 OA
BRANCH  25  26
ATOM     26  C   UNL     1       1.427  -1.964  -6.104  0.00  0.00    +0.232 C 
BRANCH  26  28
ATOM     27  C   UNL     1       2.196  -3.869  -7.527  0.00  0.00    +0.010 C 
ATOM     28  C   UNL     1       2.077  -2.346  -7.436  0.00  0.00    +0.020 C 
ATOM     29  C   UNL     1       1.214  -1.832  -8.590  0.00  0.00    +0.010 C 
ENDBRANCH  26  28
ENDBRANCH  25  26
ENDBRANCH  19  25
ENDBRANCH   1  22
BRANCH   5  30
ATOM     30  C   UNL     1      -2.604   1.235   3.562  0.00  0.00    -0.019 A 
ATOM     31  C   UNL     1      -3.429   0.142   3.373  0.00  0.00    +0.006 A 
ATOM     32  C   UNL     1      -3.418  -0.901   4.281  0.00  0.00    +0.004 A 
ATOM     33  C   UNL     1      -2.581  -0.852   5.380  0.00  0.00    +0.045 A 
ATOM     34  C   UNL     1      -1.752   0.243   5.571  0.00  0.00    +0.117 A 
ATOM     35  C   UNL     1      -1.762   1.286   4.655  0.00  0.00    +0.051 A 
BRANCH  34  36
ATOM     36  O   UNL     1      -0.927   0.293   6.650  0.00  0.00    -0.507 OA
ATOM     37  H   UNL     1      -0.270   1.163   6.800  0.00  0.00    +0.292 HD
ENDBRANCH  34  36
ENDBRANCH   5  30
TORSDOF 6
