REMARK  Name = ZINC20685169
REMARK  6 active torsions:
REMARK  status: ('A' for Active; 'I' for Inactive)
REMARK    1  A    between atoms: C_1  and  C_2
REMARK    2  A    between atoms: C_2  and  N_3
REMARK    3  A    between atoms: C_14  and  C_16
REMARK    4  A    between atoms: C_29  and  C_32
REMARK    5  A    between atoms: C_32  and  C_33
REMARK    6  A    between atoms: C_32  and  C_34
REMARK                            x       y       z     vdW  Elec       q    Type
REMARK                         _______ _______ _______ _____ _____    ______ ____
ROOT
ATOM      1  C   UNL     1       0.528   8.942   0.043  0.00  0.00    +0.105 C 
ATOM      2  C   UNL     1       0.560   9.532  -1.351  0.00  0.00    +0.029 C 
ATOM      3  C   UNL     1       1.229   8.715  -2.463  0.00  0.00    +0.033 C 
ATOM      4  C   UNL     1       1.735   9.822  -3.391  0.00  0.00    -0.030 C 
ATOM      5  C   UNL     1       1.936  10.938  -2.698  0.00  0.00    -0.023 C 
ATOM      6  C   UNL     1       1.603  10.690  -1.264  0.00  0.00    +0.049 C 
ATOM      7  C   UNL     1       1.028  11.713  -0.363  0.00  0.00    -0.019 A 
ATOM      8  C   UNL     1       1.271  13.058  -0.545  0.00  0.00    +0.006 A 
ATOM      9  C   UNL     1       0.733  13.991   0.321  0.00  0.00    +0.001 A 
ATOM     10  C   UNL     1      -0.053  13.569   1.378  0.00  0.00    +0.006 A 
ATOM     11  C   UNL     1      -0.306  12.228   1.563  0.00  0.00    -0.024 A 
ATOM     12  C   UNL     1       0.225  11.274   0.692  0.00  0.00    +0.035 A 
ATOM     13  N   UNL     1      -0.103   9.939   0.923  0.00  0.00    -0.336 N 
ATOM     14  H   UNL     1      -0.795   9.615   1.714  0.00  0.00    +0.147 HD
ENDROOT
BRANCH   1  26
ATOM     15  N   UNL     1      -2.286   4.045   0.045  0.00  0.00    -0.340 N 
ATOM     16  C   UNL     1      -1.245   3.134   0.031  0.00  0.00    +0.050 A 
ATOM     17  C   UNL     1      -1.218   1.743   0.017  0.00  0.00    +0.026 A 
ATOM     18  C   UNL     1      -0.013   1.076   0.008  0.00  0.00    +0.002 A 
ATOM     19  C   UNL     1       1.182   1.780   0.000  0.00  0.00    +0.001 A 
ATOM     20  C   UNL     1       1.176   3.158   0.008  0.00  0.00    +0.010 A 
ATOM     21  C   UNL     1      -0.036   3.845   0.023  0.00  0.00    +0.008 A 
ATOM     22  C   UNL     1      -0.391   5.276   0.034  0.00  0.00    +0.008 A 
ATOM     23  C   UNL     1      -1.793   5.337   0.047  0.00  0.00    +0.050 A 
ATOM     24  C   UNL     1      -2.420   6.579   0.059  0.00  0.00    +0.027 A 
ATOM     25  C   UNL     1      -1.666   7.733   0.058  0.00  0.00    +0.007 A 
ATOM     26  C   UNL     1      -0.281   7.670   0.045  0.00  0.00    -0.026 A 
ATOM     27  C   UNL     1       0.358   6.449   0.032  0.00  0.00    +0.016 A 
BRANCH  15  29
ATOM     28  C   UNL     1      -4.217   3.576  -1.381  0.00  0.00    +0.027 C 
ATOM     29  C   UNL     1      -3.708   3.692   0.057  0.00  0.00    +0.119 C 
ENDBRANCH  15  29
ENDBRANCH   1  26
BRANCH  11  30
ATOM     30  C   UNL     1      -1.164  11.785   2.720  0.00  0.00    +0.015 C 
ATOM     31  C   UNL     1      -0.519  12.230   4.034  0.00  0.00    +0.012 C 
ATOM     32  C   UNL     1      -2.553  12.414   2.594  0.00  0.00    +0.012 C 
ENDBRANCH  11  30
TORSDOF 3
