REMARK  Name = ZINC04195047
REMARK  5 active torsions:
REMARK  status: ('A' for Active; 'I' for Inactive)
REMARK    1  A    between atoms: C_3  and  C_6
REMARK    2  A    between atoms: C_6  and  C_8
REMARK    3  A    between atoms: C_10  and  C_22
REMARK    4  A    between atoms: C_16  and  C_17
REMARK    5  A    between atoms: C_16  and  O_21
REMARK                            x       y       z     vdW  Elec       q    Type
REMARK                         _______ _______ _______ _____ _____    ______ ____
ROOT
ATOM      1  C   UNL     1      -0.451   6.503   1.435  0.00  0.00    +0.145 C 
ATOM      2  C   UNL     1      -0.079   6.003   0.035  0.00  0.00    +0.120 C 
ATOM      3  N   UNL     1      -1.073   6.484  -0.927  0.00  0.00    -0.292 N 
ATOM      4  C   UNL     1      -2.343   6.714  -0.562  0.00  0.00    +0.302 C 
ATOM      5  O   UNL     1      -3.131   7.103  -1.403  0.00  0.00    -0.253 OA
ATOM      6  N   UNL     1      -2.779   6.532   0.693  0.00  0.00    -0.264 N 
ATOM      7  C   UNL     1      -1.883   6.054   1.748  0.00  0.00    +0.243 C 
ATOM      8  H   UNL     1      -0.807   6.640  -1.847  0.00  0.00    +0.151 HD
ATOM      9  H   UNL     1      -3.706   6.721   0.907  0.00  0.00    +0.153 HD
ENDROOT
BRANCH   2  10
ATOM     10  C   UNL     1      -0.059   4.497   0.026  0.00  0.00    -0.026 A 
ATOM     11  C   UNL     1      -1.158   3.793  -0.429  0.00  0.00    +0.007 A 
ATOM     12  C   UNL     1      -1.140   2.411  -0.437  0.00  0.00    +0.020 A 
ATOM     13  C   UNL     1      -0.021   1.732   0.011  0.00  0.00    +0.041 A 
ATOM     14  C   UNL     1       1.077   2.436   0.471  0.00  0.00    +0.020 A 
ATOM     15  C   UNL     1       1.059   3.818   0.474  0.00  0.00    +0.007 A 
ATOM     16 CL   UNL     1       0.002  -0.004   0.001  0.00  0.00    -0.084 Cl
ENDBRANCH   2  10
BRANCH   7  17
ATOM     17  C   UNL     1      -2.320   6.638   3.093  0.00  0.00    +0.436 C 
ATOM     18  F   UNL     1      -3.629   6.234   3.375  0.00  0.00    -0.166 F 
ATOM     19  F   UNL     1      -1.463   6.181   4.100  0.00  0.00    -0.166 F 
ATOM     20  F   UNL     1      -2.266   8.035   3.034  0.00  0.00    -0.166 F 
ENDBRANCH   7  17
BRANCH   1  21
ATOM     21  C   UNL     1      -0.372   8.007   1.473  0.00  0.00    +0.179 C 
ATOM     22  O   UNL     1      -0.595   8.652   0.468  0.00  0.00    -0.291 OA
BRANCH  21  25
ATOM     23  C   UNL     1       0.419  10.404   4.199  0.00  0.00    +0.008 A 
ATOM     24  C   UNL     1       0.089  10.030   2.923  0.00  0.00    +0.019 A 
ATOM     25  C   UNL     1      -0.041   8.667   2.677  0.00  0.00    +0.055 A 
ATOM     26  S   UNL     1       0.329   7.970   4.277  0.00  0.00    -0.094 S 
ATOM     27  C   UNL     1       0.613   9.444   5.144  0.00  0.00    +0.046 A 
ENDBRANCH  21  25
ENDBRANCH   1  21
BRANCH   7  28
ATOM     28  O   UNL     1      -1.935   4.627   1.808  0.00  0.00    -0.364 OA
ATOM     29  H   UNL     1      -2.814   4.273   1.999  0.00  0.00    +0.212 HD
ENDBRANCH   7  28
TORSDOF 5
