REMARK  Name = ZINC14274570
REMARK  8 active torsions:
REMARK  status: ('A' for Active; 'I' for Inactive)
REMARK    1  A    between atoms: C_1  and  C_2
REMARK    2  A    between atoms: C_2  and  C_4
REMARK    3  A    between atoms: C_2  and  N_14
REMARK    4  A    between atoms: N_14  and  C_15
REMARK    5  A    between atoms: C_15  and  N_17
REMARK    6  A    between atoms: C_18  and  C_20
REMARK    7  A    between atoms: C_21  and  C_22
REMARK    8  A    between atoms: C_25  and  C_27
REMARK                            x       y       z     vdW  Elec       q    Type
REMARK                         _______ _______ _______ _____ _____    ______ ____
ROOT
ATOM      1  N   UNL     1       3.008  -3.940  -3.709  0.00  0.00    -0.264 N 
ATOM      2  C   UNL     1       3.107  -4.606  -4.877  0.00  0.00    +0.242 C 
ATOM      3  O   UNL     1       3.181  -3.990  -5.925  0.00  0.00    -0.270 OA
ATOM      4  H   UNL     1       2.949  -4.430  -2.874  0.00  0.00    +0.157 HD
ENDROOT
BRANCH   1   5
ATOM      5  C   UNL     1       2.989  -2.592  -3.702  0.00  0.00    +0.137 C 
ATOM      6  S   UNL     1       3.093  -1.727  -5.175  0.00  0.00    -0.018 S 
BRANCH   5   7
ATOM      7  N   UNL     1       2.890  -1.926  -2.534  0.00  0.00    -0.323 N 
ATOM      8  H   UNL     1       2.831  -2.417  -1.700  0.00  0.00    +0.148 HD
BRANCH   7  10
ATOM      9  C   UNL     1       4.305   0.068  -2.537  0.00  0.00    +0.028 C 
ATOM     10  C   UNL     1       2.870  -0.461  -2.526  0.00  0.00    +0.075 C 
BRANCH  10  11
ATOM     11  C   UNL     1       2.154   0.032  -1.268  0.00  0.00    -0.010 C 
ATOM     12  C   UNL     1       0.718  -0.497  -1.257  0.00  0.00    +0.012 C 
ATOM     13  C   UNL     1       0.002  -0.004   0.002  0.00  0.00    -0.010 C 
ATOM     14  C   UNL     1      -0.019   1.526   0.010  0.00  0.00    +0.007 C 
ATOM     15  C   UNL     1       1.417   2.055  -0.000  0.00  0.00    -0.010 C 
ATOM     16  C   UNL     1       2.133   1.562  -1.259  0.00  0.00    +0.012 C 
ATOM     17  C   UNL     1       2.157   1.548   1.239  0.00  0.00    +0.007 C 
ATOM     18  C   UNL     1       2.178   0.019   1.231  0.00  0.00    -0.010 C 
ATOM     19  C   UNL     1       0.742  -0.511   1.242  0.00  0.00    +0.007 C 
ATOM     20  C   UNL     1       2.894  -0.475  -0.028  0.00  0.00    +0.012 C 
ENDBRANCH  10  11
ENDBRANCH   7  10
ENDBRANCH   5   7
ENDBRANCH   1   5
BRANCH   2  21
ATOM     21  C   UNL     1       3.127  -6.019  -4.884  0.00  0.00    +0.071 C 
ATOM     22  C   UNL     1       3.227  -6.690  -6.062  0.00  0.00    +0.051 C 
BRANCH  22  23
ATOM     23  C   UNL     1       3.246  -8.103  -6.069  0.00  0.00    +0.129 A 
ATOM     24  C   UNL     1       3.344  -8.906  -7.191  0.00  0.00    +0.050 A 
ATOM     25  C   UNL     1       3.327 -10.229  -6.743  0.00  0.00    +0.050 A 
ATOM     26  C   UNL     1       3.219 -10.188  -5.371  0.00  0.00    +0.137 A 
ATOM     27  O   UNL     1       3.178  -8.901  -4.983  0.00  0.00    -0.455 OA
BRANCH  26  28
ATOM     28  C   UNL     1       3.165 -11.360  -4.476  0.00  0.00    +0.036 A 
ATOM     29  C   UNL     1       2.266 -12.398  -4.733  0.00  0.00    +0.014 A 
ATOM     30  C   UNL     1       2.224 -13.492  -3.895  0.00  0.00    +0.021 A 
ATOM     31  C   UNL     1       3.061 -13.559  -2.794  0.00  0.00    +0.042 A 
ATOM     32  C   UNL     1       3.951 -12.532  -2.529  0.00  0.00    +0.040 A 
ATOM     33  C   UNL     1       4.008 -11.433  -3.363  0.00  0.00    +0.053 A 
ATOM     34 CL   UNL     1       5.123 -10.145  -3.030  0.00  0.00    -0.083 Cl
ATOM     35 CL   UNL     1       2.996 -14.938  -1.740  0.00  0.00    -0.083 Cl
ENDBRANCH  26  28
ENDBRANCH  22  23
ENDBRANCH   2  21
TORSDOF 7
