REMARK  Name = ZINC15016644
REMARK  8 active torsions:
REMARK  status: ('A' for Active; 'I' for Inactive)
REMARK    1  A    between atoms: C_1  and  C_2
REMARK    2  A    between atoms: N_7  and  C_8
REMARK    3  A    between atoms: C_8  and  C_10
REMARK    4  A    between atoms: C_8  and  C_20
REMARK    5  A    between atoms: C_14  and  O_16
REMARK    6  A    between atoms: O_16  and  C_17
REMARK    7  A    between atoms: C_17  and  C_18
REMARK    8  A    between atoms: C_29  and  O_30
REMARK                            x       y       z     vdW  Elec       q    Type
REMARK                         _______ _______ _______ _____ _____    ______ ____
ROOT
ATOM      1  C   UNL     1      -0.074   5.349   0.033  0.00  0.00    +0.136 C 
ENDROOT
BRANCH   1   8
ATOM      2  C   UNL     1       1.949   9.879   1.326  0.00  0.00    +0.044 C 
ATOM      3  C   UNL     1       0.638   9.183   1.586  0.00  0.00    -0.046 A 
ATOM      4  C   UNL     1      -0.367   9.809   2.311  0.00  0.00    +0.021 A 
ATOM      5  C   UNL     1      -1.557   9.144   2.532  0.00  0.00    +0.084 A 
ATOM      6  C   UNL     1      -0.815   7.295   1.367  0.00  0.00    +0.097 A 
ATOM      7  C   UNL     1       0.408   7.905   1.107  0.00  0.00    +0.045 A 
ATOM      8  N   UNL     1      -1.059   6.012   0.892  0.00  0.00    -0.320 N 
ATOM      9  H   UNL     1      -1.881   5.555   1.129  0.00  0.00    +0.148 HD
ATOM     10  N   UNL     1      -1.819   7.892   2.072  0.00  0.00    -0.350 N 
ATOM     11  H   UNL     1      -2.717   7.424   2.244  0.00  0.00    +0.166 HD
ENDBRANCH   1   8
BRANCH   1  12
ATOM     12  C   UNL     1      -0.260   5.806  -1.391  0.00  0.00    +0.021 A 
ATOM     13  C   UNL     1      -1.508   6.265  -1.806  0.00  0.00    +0.010 A 
ATOM     14  C   UNL     1      -1.709   6.685  -3.085  0.00  0.00    +0.010 A 
ATOM     15  C   UNL     1      -0.645   6.658  -4.003  0.00  0.00    +0.004 A 
ATOM     16  C   UNL     1      -0.815   7.084  -5.333  0.00  0.00    +0.011 A 
ATOM     17  C   UNL     1       0.263   7.029  -6.170  0.00  0.00    +0.020 A 
ATOM     18  C   UNL     1       1.487   6.560  -5.697  0.00  0.00    +0.111 A 
ATOM     19  N   UNL     1       1.641   6.165  -4.456  0.00  0.00    -0.251 NA
ATOM     20  C   UNL     1       0.626   6.193  -3.587  0.00  0.00    +0.113 A 
ATOM     21  C   UNL     1       0.798   5.770  -2.252  0.00  0.00    +0.148 A 
BRANCH  21  22
ATOM     22  O   UNL     1       2.010   5.325  -1.828  0.00  0.00    -0.504 OA
ATOM     23  H   UNL     1       2.141   4.373  -1.941  0.00  0.00    +0.292 HD
ENDBRANCH  21  22
ENDBRANCH   1  12
BRANCH   1  24
ATOM     24  C   UNL     1      -0.264   3.856   0.110  0.00  0.00    -0.019 A 
ATOM     25  C   UNL     1      -1.533   3.315   0.012  0.00  0.00    +0.006 A 
ATOM     26  C   UNL     1      -1.710   1.946   0.076  0.00  0.00    +0.004 A 
ATOM     27  C   UNL     1      -0.621   1.114   0.250  0.00  0.00    +0.045 A 
ATOM     28  C   UNL     1       0.653   1.654   0.349  0.00  0.00    +0.121 A 
ATOM     29  C   UNL     1       0.829   3.029   0.279  0.00  0.00    +0.051 A 
BRANCH  28  30
ATOM     30  O   UNL     1       1.728   0.838   0.515  0.00  0.00    -0.488 OA
BRANCH  30  31
ATOM     31  C   UNL     1       1.472  -0.566   0.578  0.00  0.00    +0.256 C 
BRANCH  31  32
ATOM     32  C   UNL     1       2.772  -1.306   0.762  0.00  0.00    +0.006 C 
ATOM     33  C   UNL     1       2.856  -2.273   1.642  0.00  0.00    +0.007 C 
ENDBRANCH  31  32
ENDBRANCH  30  31
ENDBRANCH  28  30
ENDBRANCH   1  24
TORSDOF 7
