REMARK  Name = ZINC16572283
REMARK  8 active torsions:
REMARK  status: ('A' for Active; 'I' for Inactive)
REMARK    1  A    between atoms: C_1  and  C_2
REMARK    2  A    between atoms: C_2  and  C_3
REMARK    3  A    between atoms: C_3  and  C_5
REMARK    4  A    between atoms: C_3  and  C_6
REMARK    5  A    between atoms: C_6  and  C_8
REMARK    6  A    between atoms: C_6  and  N_23
REMARK    7  A    between atoms: C_14  and  C_16
REMARK    8  A    between atoms: N_26  and  C_27
REMARK                            x       y       z     vdW  Elec       q    Type
REMARK                         _______ _______ _______ _____ _____    ______ ____
ROOT
ATOM      1  C   UNL     1      -3.625   1.874  -0.098  0.00  0.00    +0.163 C 
ENDROOT
BRANCH   1   2
ATOM      2  C   UNL     1      -4.463   1.110  -1.091  0.00  0.00    +0.239 C 
ATOM      3  O   UNL     1      -4.173  -0.033  -1.376  0.00  0.00    -0.273 OA
ATOM      4  N   UNL     1      -5.533   1.696  -1.663  0.00  0.00    -0.262 N 
ATOM      5  C   UNL     1      -6.361   0.962  -2.503  0.00  0.00    +0.188 A 
ATOM      6  N   UNL     1      -6.283  -0.307  -2.881  0.00  0.00    -0.125 NA
ATOM      7  N   UNL     1      -7.132  -0.825  -3.656  0.00  0.00    -0.140 NA
ATOM      8  C   UNL     1      -8.148  -0.128  -4.151  0.00  0.00    +0.134 A 
ATOM      9  S   UNL     1      -7.833   1.463  -3.392  0.00  0.00    -0.030 S 
ATOM     10  H   UNL     1      -5.725   2.631  -1.487  0.00  0.00    +0.157 HD
BRANCH   8  11
ATOM     11  C   UNL     1      -9.230  -0.545  -5.068  0.00  0.00    +0.009 A 
ATOM     12  C   UNL     1     -10.210   0.369  -5.457  0.00  0.00    +0.012 A 
ATOM     13  C   UNL     1     -11.214  -0.025  -6.316  0.00  0.00    +0.020 A 
ATOM     14  C   UNL     1     -11.257  -1.327  -6.785  0.00  0.00    +0.041 A 
ATOM     15  C   UNL     1     -10.291  -2.240  -6.398  0.00  0.00    +0.020 A 
ATOM     16  C   UNL     1      -9.279  -1.857  -5.543  0.00  0.00    +0.012 A 
ATOM     17 CL   UNL     1     -12.528  -1.818  -7.861  0.00  0.00    -0.084 Cl
ENDBRANCH   8  11
ENDBRANCH   1   2
BRANCH   1  18
ATOM     18  N   UNL     1      -2.264   1.331  -0.087  0.00  0.00    -0.288 N 
ATOM     19  C   UNL     1      -1.233   2.107   0.300  0.00  0.00    +0.301 C 
ATOM     20  O   UNL     1      -1.432   3.257   0.641  0.00  0.00    -0.253 OA
ATOM     21  N   UNL     1       0.019   1.608   0.311  0.00  0.00    -0.294 N 
ATOM     22  H   UNL     1      -2.106   0.414  -0.359  0.00  0.00    +0.151 HD
ATOM     23  H   UNL     1       0.178   0.691   0.039  0.00  0.00    +0.151 HD
BRANCH  21  24
ATOM     24  C   UNL     1       1.141   2.453   0.726  0.00  0.00    +0.037 C 
ATOM     25  C   UNL     1       1.231   3.671  -0.195  0.00  0.00    +0.029 C 
ATOM     26  C   UNL     1       2.403   4.554   0.239  0.00  0.00    -0.008 C 
ATOM     27  C   UNL     1       3.703   3.753   0.153  0.00  0.00    +0.007 C 
ATOM     28  C   UNL     1       3.614   2.535   1.075  0.00  0.00    -0.008 C 
ATOM     29  C   UNL     1       2.442   1.652   0.641  0.00  0.00    +0.029 C 
ATOM     30  C   UNL     1       3.395   3.001   2.516  0.00  0.00    +0.007 C 
ATOM     31  C   UNL     1       2.095   3.801   2.601  0.00  0.00    -0.008 C 
ATOM     32  C   UNL     1       2.184   5.020   1.680  0.00  0.00    +0.007 C 
ATOM     33  C   UNL     1       0.923   2.919   2.167  0.00  0.00    +0.029 C 
ENDBRANCH  21  24
ENDBRANCH   1  18
BRANCH   1  34
ATOM     34  C   UNL     1      -4.239   1.739   1.297  0.00  0.00    +0.015 C 
ATOM     35  C   UNL     1      -5.623   2.391   1.310  0.00  0.00    +0.010 C 
BRANCH  34  37
ATOM     36  C   UNL     1      -4.867   0.124   3.097  0.00  0.00    +0.004 C 
ATOM     37  C   UNL     1      -4.370   0.258   1.656  0.00  0.00    +0.002 C 
ENDBRANCH  34  37
ENDBRANCH   1  34
TORSDOF 6
