REMARK  Name = ZINC00873398
REMARK  12 active torsions:
REMARK  status: ('A' for Active; 'I' for Inactive)
REMARK    1  A    between atoms: C_1  and  O_2
REMARK    2  A    between atoms: O_2  and  C_3
REMARK    3  A    between atoms: C_5  and  C_24
REMARK    4  A    between atoms: C_8  and  O_9
REMARK    5  A    between atoms: O_9  and  C_10
REMARK    6  A    between atoms: C_10  and  C_11
REMARK    7  A    between atoms: N_13  and  C_14
REMARK    8  A    between atoms: C_17  and  C_20
REMARK    9  A    between atoms: C_20  and  O_22
REMARK   10  A    between atoms: O_22  and  C_23
REMARK   11  A    between atoms: C_37  and  N_41
REMARK   12  A    between atoms: C_38  and  C_39
REMARK                            x       y       z     vdW  Elec       q    Type
REMARK                         _______ _______ _______ _____ _____    ______ ____
ROOT
ATOM      1  C   UNL     1      -7.062   2.677   3.082  0.00  0.00    +0.162 A 
ATOM      2  C   UNL     1      -6.532   2.704   1.802  0.00  0.00    +0.054 A 
ATOM      3  C   UNL     1      -5.391   3.440   1.543  0.00  0.00    -0.031 A 
ATOM      4  C   UNL     1      -4.773   4.146   2.559  0.00  0.00    +0.008 A 
ATOM      5  C   UNL     1      -5.301   4.128   3.836  0.00  0.00    +0.050 A 
ATOM      6  C   UNL     1      -6.444   3.392   4.104  0.00  0.00    +0.163 A 
ENDROOT
BRANCH   3   7
ATOM      7  C   UNL     1      -4.815   3.468   0.150  0.00  0.00    +0.098 C 
ATOM      8  C   UNL     1      -3.409   2.925   0.180  0.00  0.00    +0.008 A 
ATOM      9  C   UNL     1      -3.221   1.545   0.272  0.00  0.00    +0.009 A 
ATOM     10  C   UNL     1      -1.975   1.002   0.305  0.00  0.00    +0.009 A 
ATOM     11  C   UNL     1      -0.848   1.839   0.240  0.00  0.00    -0.014 A 
ATOM     12  C   UNL     1       0.456   1.314   0.279  0.00  0.00    +0.008 A 
ATOM     13  C   UNL     1       1.522   2.158   0.217  0.00  0.00    +0.001 A 
ATOM     14  C   UNL     1       1.342   3.536   0.122  0.00  0.00    +0.001 A 
ATOM     15  C   UNL     1       0.094   4.079   0.088  0.00  0.00    +0.012 A 
ATOM     16  C   UNL     1      -1.030   3.240   0.150  0.00  0.00    +0.025 A 
ATOM     17  C   UNL     1      -2.339   3.770   0.120  0.00  0.00    +0.142 A 
ATOM     18  O   UNL     1      -2.507   5.111   0.032  0.00  0.00    -0.440 OA
ATOM     19  C   UNL     1      -3.679   5.615  -0.391  0.00  0.00    +0.199 C 
ATOM     20  C   UNL     1      -4.818   4.881  -0.360  0.00  0.00    +0.098 C 
BRANCH  19  21
ATOM     21  N   UNL     1      -3.723   6.903  -0.865  0.00  0.00    -0.328 N 
ATOM     22  H   UNL     1      -4.563   7.278  -1.173  0.00  0.00    +0.145 HD
ATOM     23  H   UNL     1      -2.915   7.438  -0.891  0.00  0.00    +0.145 HD
ENDBRANCH  19  21
BRANCH  20  24
ATOM     24  C   UNL     1      -6.043   5.462  -0.822  0.00  0.00    +0.101 C 
ATOM     25  N   UNL     1      -7.015   5.922  -1.187  0.00  0.00    -0.191 NA
ENDBRANCH  20  24
ENDBRANCH   3   7
BRANCH   1  27
ATOM     26  C   UNL     1      -8.764   1.244   2.243  0.00  0.00    +0.277 C 
ATOM     27  O   UNL     1      -8.184   1.953   3.340  0.00  0.00    -0.491 OA
ENDBRANCH   1  27
BRANCH   6  28
ATOM     28  O   UNL     1      -6.961   3.368   5.361  0.00  0.00    -0.479 OA
BRANCH  28  29
ATOM     29  C   UNL     1      -6.274   4.126   6.359  0.00  0.00    +0.325 C 
BRANCH  29  30
ATOM     30  C   UNL     1      -6.986   3.980   7.679  0.00  0.00    +0.255 C 
ATOM     31  O   UNL     1      -7.984   3.295   7.758  0.00  0.00    -0.272 OA
ATOM     32  N   UNL     1      -6.514   4.611   8.773  0.00  0.00    -0.283 N 
ATOM     33  H   UNL     1      -5.675   5.096   8.729  0.00  0.00    +0.155 HD
BRANCH  32  34
ATOM     34  C   UNL     1      -7.232   4.567   9.967  0.00  0.00    +0.034 A 
ATOM     35  C   UNL     1      -8.623   4.539   9.940  0.00  0.00    +0.024 A 
ATOM     36  C   UNL     1      -9.335   4.491  11.118  0.00  0.00    +0.017 A 
ATOM     37  C   UNL     1      -8.659   4.481  12.341  0.00  0.00    +0.059 A 
ATOM     38  C   UNL     1      -7.261   4.514  12.364  0.00  0.00    +0.017 A 
ATOM     39  C   UNL     1      -6.556   4.557  11.183  0.00  0.00    +0.024 A 
BRANCH  37  40
ATOM     40  C   UNL     1      -9.418   4.434  13.605  0.00  0.00    +0.339 C 
ATOM     41  O   UNL     1      -8.829   4.425  14.667  0.00  0.00    -0.245 OA
BRANCH  40  42
ATOM     42  O   UNL     1     -10.765   4.402  13.581  0.00  0.00    -0.464 OA
ATOM     43  C   UNL     1     -11.446   4.357  14.862  0.00  0.00    +0.280 C 
ENDBRANCH  40  42
ENDBRANCH  37  40
ENDBRANCH  32  34
ENDBRANCH  29  30
ENDBRANCH  28  29
ENDBRANCH   6  28
TORSDOF 10
