REMARK  Name = ZINC05302703
REMARK  6 active torsions:
REMARK  status: ('A' for Active; 'I' for Inactive)
REMARK    1  A    between atoms: C_3  and  N_10
REMARK    2  A    between atoms: C_6  and  C_7
REMARK    3  A    between atoms: C_11  and  C_13
REMARK    4  A    between atoms: C_13  and  O_14
REMARK    5  A    between atoms: O_14  and  C_15
REMARK    6  A    between atoms: C_15  and  C_17
REMARK                            x       y       z     vdW  Elec       q    Type
REMARK                         _______ _______ _______ _____ _____    ______ ____
ROOT
ATOM      1  N   UNL     1       3.578   2.132  -0.022  0.00  0.00    -0.283 N 
ATOM      2  C   UNL     1       4.754   1.479   0.065  0.00  0.00    +0.255 C 
ATOM      3  O   UNL     1       4.776   0.266   0.058  0.00  0.00    -0.272 OA
ATOM      4  H   UNL     1       3.564   3.100  -0.083  0.00  0.00    +0.155 HD
ENDROOT
BRANCH   1   7
ATOM      5  C   UNL     1       1.137  -0.537  -0.644  0.00  0.00    +0.015 A 
ATOM      6  C   UNL     1       2.317   0.172  -0.642  0.00  0.00    +0.024 A 
ATOM      7  C   UNL     1       2.381   1.417  -0.022  0.00  0.00    +0.034 A 
ATOM      8  C   UNL     1       1.254   1.948   0.597  0.00  0.00    +0.024 A 
ATOM      9  C   UNL     1       0.071   1.244   0.599  0.00  0.00    +0.015 A 
ATOM     10  C   UNL     1       0.003  -0.006  -0.023  0.00  0.00    +0.037 A 
BRANCH  10  11
ATOM     11  C   UNL     1      -1.264  -0.763  -0.024  0.00  0.00    +0.242 C 
ATOM     12  O   UNL     1      -1.321  -1.851  -0.565  0.00  0.00    -0.270 OA
ATOM     13  N   UNL     1      -2.356  -0.250   0.575  0.00  0.00    -0.325 N 
ATOM     14  H   UNL     1      -2.310   0.617   1.007  0.00  0.00    +0.145 HD
ATOM     15  H   UNL     1      -3.189  -0.748   0.575  0.00  0.00    +0.145 HD
ENDBRANCH  10  11
ENDBRANCH   1   7
BRANCH   2  16
ATOM     16  C   UNL     1       6.041   2.255   0.170  0.00  0.00    +0.328 C 
BRANCH  16  17
ATOM     17  O   UNL     1       7.141   1.346   0.249  0.00  0.00    -0.451 OA
BRANCH  17  18
ATOM     18  C   UNL     1       8.374   1.884   0.348  0.00  0.00    +0.346 C 
ATOM     19  O   UNL     1       8.511   3.092   0.367  0.00  0.00    -0.244 OA
BRANCH  18  20
ATOM     20  C   UNL     1       9.547   1.012   0.433  0.00  0.00    +0.097 A 
ATOM     21  C   UNL     1      10.879   1.352   0.544  0.00  0.00    +0.026 A 
ATOM     22  C   UNL     1      11.801   0.301   0.580  0.00  0.00    -0.036 A 
ATOM     23  C   UNL     1      11.308  -0.947   0.461  0.00  0.00    -0.006 A 
ATOM     24  S   UNL     1       9.633  -0.765   0.428  0.00  0.00    -0.086 S 
ATOM     25  C   UNL     1      11.971  -2.292   0.296  0.00  0.00    +0.043 C 
ATOM     26  C   UNL     1      13.495  -2.186   0.240  0.00  0.00    +0.005 C 
ATOM     27  C   UNL     1      14.080  -2.034   1.635  0.00  0.00    +0.000 C 
ATOM     28  C   UNL     1      13.233  -1.162   2.538  0.00  0.00    +0.000 C 
ATOM     29  C   UNL     1      13.628   0.291   2.252  0.00  0.00    +0.005 C 
ATOM     30  C   UNL     1      13.271   0.625   0.805  0.00  0.00    +0.036 C 
ENDBRANCH  18  20
ENDBRANCH  17  18
ENDBRANCH  16  17
ENDBRANCH   2  16
TORSDOF 6
