REMARK  Name = ZINC13411977
REMARK  7 active torsions:
REMARK  status: ('A' for Active; 'I' for Inactive)
REMARK    1  A    between atoms: C_1  and  C_2
REMARK    2  A    between atoms: C_8  and  C_16
REMARK    3  A    between atoms: C_12  and  C_13
REMARK    4  A    between atoms: C_16  and  S_17
REMARK    5  A    between atoms: S_17  and  C_18
REMARK    6  A    between atoms: C_21  and  C_30
REMARK    7  A    between atoms: N_22  and  C_23
REMARK                            x       y       z     vdW  Elec       q    Type
REMARK                         _______ _______ _______ _____ _____    ______ ____
ROOT
ATOM      1  C   UNL     1       0.057  -5.993  -5.464  0.00  0.00    +0.197 A 
ATOM      2  N   UNL     1       0.050  -5.529  -6.694  0.00  0.00    -0.122 NA
ATOM      3  N   UNL     1       0.057  -6.501  -7.534  0.00  0.00    -0.128 NA
ATOM      4  C   UNL     1       0.069  -7.647  -6.895  0.00  0.00    +0.169 A 
ATOM      5  N   UNL     1       0.076  -7.358  -5.548  0.00  0.00    -0.270 N 
ENDROOT
BRANCH   5   6
ATOM      6  C   UNL     1       0.094  -8.273  -4.484  0.00  0.00    +0.051 A 
ATOM      7  C   UNL     1       1.198  -9.091  -4.290  0.00  0.00    +0.029 A 
ATOM      8  C   UNL     1       1.214  -9.991  -3.243  0.00  0.00    +0.040 A 
ATOM      9  C   UNL     1       0.130 -10.077  -2.386  0.00  0.00    +0.124 A 
ATOM     10  C   UNL     1      -0.973  -9.261  -2.578  0.00  0.00    +0.040 A 
ATOM     11  C   UNL     1      -0.990  -8.356  -3.621  0.00  0.00    +0.029 A 
ATOM     12  F   UNL     1       0.147 -10.959  -1.362  0.00  0.00    -0.205 F 
ENDBRANCH   5   6
BRANCH   4  13
ATOM     13  C   UNL     1       0.079  -8.994  -7.505  0.00  0.00    +0.020 A 
ATOM     14  C   UNL     1      -0.227 -10.116  -6.732  0.00  0.00    +0.011 A 
ATOM     15  C   UNL     1      -0.215 -11.369  -7.308  0.00  0.00    +0.001 A 
ATOM     16  C   UNL     1       0.099 -11.516  -8.647  0.00  0.00    +0.000 A 
ATOM     17  C   UNL     1       0.404 -10.408  -9.418  0.00  0.00    +0.001 A 
ATOM     18  C   UNL     1       0.390  -9.148  -8.857  0.00  0.00    +0.011 A 
ENDBRANCH   4  13
BRANCH   1  19
ATOM     19  S   UNL     1       0.052  -5.036  -3.985  0.00  0.00    -0.078 S 
BRANCH  19  20
ATOM     20  C   UNL     1       0.025  -3.320  -4.573  0.00  0.00    +0.151 C 
BRANCH  20  28
ATOM     21  C   UNL     1      -0.018   1.503   0.010  0.00  0.00    +0.046 C 
ATOM     22  C   UNL     1       0.002  -0.004   0.002  0.00  0.00    -0.015 A 
ATOM     23  C   UNL     1       0.005  -0.700  -1.207  0.00  0.00    +0.076 A 
ATOM     24  C   UNL     1      -0.009  -0.168  -2.590  0.00  0.00    +0.260 A 
ATOM     25  O   UNL     1      -0.026   1.032  -2.798  0.00  0.00    -0.267 OA
ATOM     26  N   UNL     1      -0.002  -1.047  -3.611  0.00  0.00    -0.310 N 
ATOM     27  H   UNL     1      -0.010  -0.716  -4.523  0.00  0.00    +0.170 HD
ATOM     28  C   UNL     1       0.018  -2.385  -3.391  0.00  0.00    +0.121 A 
ATOM     29  N   UNL     1       0.031  -2.886  -2.186  0.00  0.00    -0.226 NA
ATOM     30  C   UNL     1       0.026  -2.110  -1.109  0.00  0.00    +0.116 A 
ATOM     31  S   UNL     1       0.038  -2.402   0.641  0.00  0.00    -0.062 S 
ATOM     32  C   UNL     1       0.023  -0.703   1.188  0.00  0.00    +0.106 A 
BRANCH  32  33
ATOM     33  C   UNL     1       0.029  -0.199   2.513  0.00  0.00    +0.393 C 
ATOM     34  O   UNL     1       0.015   1.010   2.709  0.00  0.00    -0.240 OA
ATOM     35  O   UNL     1       0.050  -0.973   3.463  0.00  0.00    -0.240 OA
ENDBRANCH  32  33
ENDBRANCH  20  28
ENDBRANCH  19  20
ENDBRANCH   1  19
TORSDOF 6
