REMARK  Name = ZINC39467082
REMARK  7 active torsions:
REMARK  status: ('A' for Active; 'I' for Inactive)
REMARK    1  A    between atoms: C_1  and  C_2
REMARK    2  A    between atoms: C_2  and  O_3
REMARK    3  A    between atoms: O_3  and  C_4
REMARK    4  A    between atoms: C_16  and  C_17
REMARK    5  A    between atoms: C_17  and  C_18
REMARK    6  A    between atoms: P_26  and  C_29
REMARK    7  A    between atoms: C_34  and  O_35
REMARK                            x       y       z     vdW  Elec       q    Type
REMARK                         _______ _______ _______ _____ _____    ______ ____
ROOT
ATOM      1  C   UNL     1       0.802  -1.824   1.306  0.00  0.00    +0.120 C 
ATOM      2  C   UNL     1       0.281  -2.646   0.389  0.00  0.00    +0.021 C 
ATOM      3  C   UNL     1       0.403  -4.134   0.576  0.00  0.00    +0.008 C 
ATOM      4  C   UNL     1      -0.683  -4.864  -0.201  0.00  0.00    -0.046 C 
ATOM      5  N   UNL     1      -2.023  -4.492   0.280  0.00  0.00    +0.398 N 
ATOM      6  C   UNL     1      -2.174  -4.851   1.693  0.00  0.00    -0.020 C 
ATOM      7  C   UNL     1      -1.124  -4.119   2.538  0.00  0.00    -0.003 C 
ATOM      8  C   UNL     1       0.264  -4.477   2.062  0.00  0.00    +0.016 C 
ATOM      9  C   UNL     1       1.247  -3.644   2.849  0.00  0.00    -0.016 C 
ATOM     10  C   UNL     1       1.501  -2.393   2.474  0.00  0.00    -0.005 C 
ATOM     11  C   UNL     1      -3.548  -4.440   2.236  0.00  0.00    +0.157 C 
ATOM     12  O   UNL     1      -4.579  -5.136   1.511  0.00  0.00    -0.316 OA
ATOM     13  P   UNL     1      -4.522  -5.087  -0.115  0.00  0.00    +0.291 P 
ATOM     14  O   UNL     1      -5.080  -3.809  -0.610  0.00  0.00    -0.269 OA
ATOM     15  N   UNL     1      -2.916  -5.202  -0.496  0.00  0.00    -0.288 NA
ATOM     16  H   UNL     1      -2.611  -5.744  -1.240  0.00  0.00    +0.111 HD
ATOM     17  H   UNL     1      -2.170  -3.503   0.150  0.00  0.00    -0.055 HD
ENDROOT
BRANCH  13  18
ATOM     18  C   UNL     1      -5.437  -6.487  -0.818  0.00  0.00    +0.091 A 
ATOM     19  C   UNL     1      -4.789  -7.682  -1.066  0.00  0.00    +0.018 A 
ATOM     20  C   UNL     1      -5.486  -8.748  -1.603  0.00  0.00    +0.001 A 
ATOM     21  C   UNL     1      -6.832  -8.623  -1.892  0.00  0.00    +0.004 A 
ATOM     22  C   UNL     1      -7.484  -7.430  -1.646  0.00  0.00    +0.046 A 
ATOM     23  C   UNL     1      -6.789  -6.360  -1.102  0.00  0.00    +0.131 A 
BRANCH  23  24
ATOM     24  O   UNL     1      -7.429  -5.187  -0.854  0.00  0.00    -0.506 OA
ATOM     25  H   UNL     1      -7.417  -4.567  -1.596  0.00  0.00    +0.292 HD
ENDBRANCH  23  24
ENDBRANCH  13  18
BRANCH   1  26
ATOM     26  O   UNL     1       0.693  -0.477   1.160  0.00  0.00    -0.492 OA
BRANCH  26  28
ATOM     27  C   UNL     1      -0.019   1.526   0.010  0.00  0.00    +0.048 C 
ATOM     28  C   UNL     1       0.002  -0.004   0.002  0.00  0.00    +0.225 C 
ENDBRANCH  26  28
ENDBRANCH   1  26
BRANCH  10  29
ATOM     29  C   UNL     1       2.493  -1.557   3.242  0.00  0.00    +0.073 C 
BRANCH  29  30
ATOM     30  C   UNL     1       3.843  -1.642   2.576  0.00  0.00    -0.043 A 
ATOM     31  C   UNL     1       4.734  -2.632   2.944  0.00  0.00    +0.004 A 
ATOM     32  C   UNL     1       5.972  -2.710   2.333  0.00  0.00    +0.000 A 
ATOM     33  C   UNL     1       6.318  -1.798   1.354  0.00  0.00    +0.000 A 
ATOM     34  C   UNL     1       5.426  -0.808   0.986  0.00  0.00    +0.000 A 
ATOM     35  C   UNL     1       4.187  -0.733   1.593  0.00  0.00    +0.004 A 
ENDBRANCH  29  30
ENDBRANCH  10  29
TORSDOF 6
