REMARK  Name = ZINC05772587
REMARK  3 active torsions:
REMARK  status: ('A' for Active; 'I' for Inactive)
REMARK    1  A    between atoms: C_4  and  C_7
REMARK    2  A    between atoms: C_7  and  C_9
REMARK    3  A    between atoms: C_10  and  N_11
REMARK                            x       y       z     vdW  Elec       q    Type
REMARK                         _______ _______ _______ _____ _____    ______ ____
ROOT
ATOM      1  N   UNL     1      -6.082   3.135   0.075  0.00  0.00    -0.213 N 
ATOM      2  C   UNL     1      -7.388   3.796   0.204  0.00  0.00    +0.109 C 
ATOM      3  C   UNL     1      -7.665   4.721  -0.968  0.00  0.00    +0.039 C 
ATOM      4  C   UNL     1      -6.715   5.922  -0.911  0.00  0.00    +0.003 C 
ATOM      5  C   UNL     1      -6.904   6.655   0.418  0.00  0.00    +0.000 C 
ATOM      6  C   UNL     1      -6.575   5.712   1.577  0.00  0.00    +0.003 C 
ATOM      7  C   UNL     1      -7.525   4.510   1.537  0.00  0.00    +0.039 C 
ATOM      8  S   UNL     1      -8.505   2.348   0.141  0.00  0.00    -0.062 S 
ATOM      9  C   UNL     1      -7.248   1.089  -0.027  0.00  0.00    +0.171 C 
ATOM     10  N   UNL     1      -6.131   1.760  -0.033  0.00  0.00    -0.157 NA
ATOM     11  N   UNL     1      -7.421  -0.280  -0.128  0.00  0.00    -0.337 N 
ATOM     12  H   UNL     1      -6.649  -0.861  -0.216  0.00  0.00    +0.144 HD
ATOM     13  H   UNL     1      -8.314  -0.659  -0.110  0.00  0.00    +0.144 HD
ENDROOT
BRANCH   1  15
ATOM     14  C   UNL     1      -3.739   3.160  -0.055  0.00  0.00    +0.068 C 
ATOM     15  C   UNL     1      -4.918   3.822   0.067  0.00  0.00    +0.101 C 
BRANCH  14  16
ATOM     16  C   UNL     1      -2.527   3.875  -0.063  0.00  0.00    +0.187 C 
ATOM     17  O   UNL     1      -2.536   5.090   0.040  0.00  0.00    -0.287 OA
BRANCH  16  21
ATOM     18  C   UNL     1       1.162   1.802  -0.446  0.00  0.00    +0.000 A 
ATOM     19  C   UNL     1      -0.027   1.096  -0.439  0.00  0.00    +0.001 A 
ATOM     20  C   UNL     1      -1.229   1.763  -0.320  0.00  0.00    +0.012 A 
ATOM     21  C   UNL     1      -1.242   3.153  -0.197  0.00  0.00    +0.022 A 
ATOM     22  C   UNL     1      -0.039   3.860  -0.204  0.00  0.00    +0.012 A 
ATOM     23  C   UNL     1       1.156   3.181  -0.329  0.00  0.00    +0.001 A 
ENDBRANCH  16  21
ENDBRANCH  14  16
ENDBRANCH   1  15
TORSDOF 3
