REMARK  Name = ZINC38964508
REMARK  6 active torsions:
REMARK  status: ('A' for Active; 'I' for Inactive)
REMARK    1  A    between atoms: C_1  and  C_2
REMARK    2  A    between atoms: N_10  and  C_11
REMARK    3  A    between atoms: C_11  and  C_13
REMARK    4  A    between atoms: C_13  and  S_14
REMARK    5  A    between atoms: S_14  and  C_15
REMARK    6  A    between atoms: C_19  and  C_21
REMARK                            x       y       z     vdW  Elec       q    Type
REMARK                         _______ _______ _______ _____ _____    ______ ____
ROOT
ATOM      1  C   UNL     1      -0.019   1.526   0.010  0.00  0.00    +0.008 C 
ATOM      2  C   UNL     1       0.002  -0.004   0.002  0.00  0.00    -0.009 C 
ATOM      3  C   UNL     1      -1.434  -0.537   0.020  0.00  0.00    +0.010 C 
ATOM      4  C   UNL     1      -1.432  -2.047  -0.225  0.00  0.00    +0.054 C 
ATOM      5  C   UNL     1      -0.469  -2.703   0.756  0.00  0.00    +0.028 A 
ATOM      6  C   UNL     1       0.471  -1.981   1.383  0.00  0.00    +0.012 A 
ATOM      7  S   UNL     1       1.311  -3.172   2.390  0.00  0.00    -0.057 S 
ATOM      8  C   UNL     1       0.417  -4.531   1.956  0.00  0.00    +0.163 A 
ATOM      9  N   UNL     1       0.558  -5.788   2.382  0.00  0.00    -0.156 NA
ATOM     10  N   UNL     1      -0.484  -4.037   1.067  0.00  0.00    -0.339 N 
ATOM     11  H   UNL     1      -1.134  -4.627   0.654  0.00  0.00    +0.167 HD
ATOM     12  C   UNL     1       0.738  -0.516   1.250  0.00  0.00    +0.047 C 
ENDROOT
BRANCH   9  13
ATOM     13  C   UNL     1      -0.248  -6.738   1.925  0.00  0.00    +0.248 C 
ATOM     14  O   UNL     1      -1.115  -6.463   1.118  0.00  0.00    -0.273 OA
BRANCH  13  15
ATOM     15  C   UNL     1      -0.088  -8.157   2.407  0.00  0.00    +0.169 C 
BRANCH  15  16
ATOM     16  S   UNL     1      -1.328  -9.210   1.605  0.00  0.00    -0.117 S 
BRANCH  16  17
ATOM     17  C   UNL     1      -1.005 -10.862   2.282  0.00  0.00    +0.210 C 
ATOM     18  N   UNL     1       0.399 -11.273   2.055  0.00  0.00    -0.245 N 
ATOM     19  N   UNL     1       1.139 -11.485   3.197  0.00  0.00    -0.183 NA
ATOM     20  C   UNL     1       0.666 -11.342   4.389  0.00  0.00    +0.091 C 
ATOM     21  S   UNL     1      -1.031 -10.848   4.122  0.00  0.00    -0.074 S 
ATOM     22  C   UNL     1       1.378 -11.546   5.701  0.00  0.00    +0.075 C 
ATOM     23  H   UNL     1       0.771 -11.385   1.166  0.00  0.00    +0.170 HD
ENDBRANCH  16  17
ENDBRANCH  15  16
ENDBRANCH  13  15
ENDBRANCH   9  13
TORSDOF 4
