REMARK  Name = ZINC20763340
REMARK  10 active torsions:
REMARK  status: ('A' for Active; 'I' for Inactive)
REMARK    1  A    between atoms: C_1  and  C_2
REMARK    2  A    between atoms: C_2  and  C_3
REMARK    3  A    between atoms: C_6  and  C_9
REMARK    4  A    between atoms: C_11  and  C_25
REMARK    5  A    between atoms: C_14  and  C_17
REMARK    6  A    between atoms: C_22  and  O_23
REMARK    7  A    between atoms: C_28  and  O_33
REMARK    8  A    between atoms: C_29  and  O_31
REMARK    9  A    between atoms: O_31  and  C_32
REMARK   10  A    between atoms: O_33  and  C_34
REMARK                            x       y       z     vdW  Elec       q    Type
REMARK                         _______ _______ _______ _____ _____    ______ ____
ROOT
ATOM      1  C   UNL     1       3.082   5.730  -1.494  0.00  0.00    +0.040 C 
ATOM      2  N   UNL     1       2.255   5.212  -0.667  0.00  0.00    -0.299 NA
ATOM      3  C   UNL     1       2.458   3.932  -0.000  0.00  0.00    +0.081 C 
ATOM      4  N   UNL     1       3.481   3.142  -0.695  0.00  0.00    +0.401 N 
ATOM      5  C   UNL     1       4.697   3.948  -0.894  0.00  0.00    -0.028 C 
ATOM      6  C   UNL     1       4.372   5.067  -1.889  0.00  0.00    +0.044 C 
ATOM      7  H   UNL     1       3.731   2.256  -0.094  0.00  0.00    -0.081 HD
ATOM      8  H   UNL     1       3.096   2.823  -1.675  0.00  0.00    -0.081 HD
ENDROOT
BRANCH   5   9
ATOM      9  C   UNL     1       5.798   3.080  -1.447  0.00  0.00    -0.018 A 
ATOM     10  C   UNL     1       5.486   1.934  -2.153  0.00  0.00    +0.020 A 
ATOM     11  C   UNL     1       6.496   1.140  -2.665  0.00  0.00    +0.018 A 
ATOM     12  C   UNL     1       7.821   1.485  -2.462  0.00  0.00    +0.019 A 
ATOM     13  C   UNL     1       8.137   2.627  -1.753  0.00  0.00    +0.047 A 
ATOM     14  C   UNL     1       7.125   3.428  -1.243  0.00  0.00    +0.119 A 
ATOM     15 BR   UNL     1       6.066  -0.424  -3.637  0.00  0.00    -0.050 Br
BRANCH  14  16
ATOM     16  O   UNL     1       7.434   4.552  -0.544  0.00  0.00    -0.507 OA
ATOM     17  H   UNL     1       8.487   4.827  -0.383  0.00  0.00    +0.292 HD
ENDBRANCH  14  16
ENDBRANCH   5   9
BRANCH   1  21
ATOM     18  C   UNL     1       2.141   9.501  -3.203  0.00  0.00    -0.048 A 
ATOM     19  C   UNL     1       1.267   8.914  -2.305  0.00  0.00    +0.004 A 
ATOM     20  C   UNL     1       1.566   7.689  -1.746  0.00  0.00    +0.010 A 
ATOM     21  C   UNL     1       2.755   7.041  -2.088  0.00  0.00    -0.004 A 
ATOM     22  C   UNL     1       3.635   7.642  -2.990  0.00  0.00    +0.010 A 
ATOM     23  C   UNL     1       3.320   8.864  -3.546  0.00  0.00    +0.004 A 
BRANCH  18  25
ATOM     24  C   UNL     1       2.367  11.955  -2.926  0.00  0.00    +0.009 C 
ATOM     25  C   UNL     1       1.806  10.839  -3.810  0.00  0.00    +0.032 C 
ENDBRANCH  18  25
ENDBRANCH   1  21
BRANCH   3  26
ATOM     26  C   UNL     1       1.160   3.166   0.008  0.00  0.00    -0.037 A 
ATOM     27  C   UNL     1       1.175   1.783   0.000  0.00  0.00    +0.007 A 
ATOM     28  C   UNL     1      -0.013   1.076   0.008  0.00  0.00    +0.049 A 
ATOM     29  C   UNL     1      -1.222   1.752   0.017  0.00  0.00    +0.161 A 
ATOM     30  C   UNL     1      -1.237   3.144   0.030  0.00  0.00    +0.162 A 
ATOM     31  C   UNL     1      -0.043   3.847   0.023  0.00  0.00    +0.053 A 
BRANCH  30  32
ATOM     32  O   UNL     1      -2.421   3.812   0.044  0.00  0.00    -0.491 OA
ATOM     33  C   UNL     1      -2.361   5.240   0.051  0.00  0.00    +0.277 C 
ENDBRANCH  30  32
BRANCH  29  34
ATOM     34  O   UNL     1      -2.391   1.058   0.019  0.00  0.00    -0.491 OA
ATOM     35  C   UNL     1      -2.299  -0.368   0.011  0.00  0.00    +0.277 C 
ENDBRANCH  29  34
ENDBRANCH   3  26
TORSDOF 7
