REMARK  Name = ZINC35870392
REMARK  6 active torsions:
REMARK  status: ('A' for Active; 'I' for Inactive)
REMARK    1  A    between atoms: C_1  and  C_2
REMARK    2  A    between atoms: C_2  and  N_3
REMARK    3  A    between atoms: C_4  and  C_6
REMARK    4  A    between atoms: C_11  and  N_30
REMARK    5  A    between atoms: N_19  and  C_22
REMARK    6  A    between atoms: C_22  and  C_23
REMARK                            x       y       z     vdW  Elec       q    Type
REMARK                         _______ _______ _______ _____ _____    ______ ____
ROOT
ATOM      1  C   UNL     1       1.532  -2.285  -2.665  0.00  0.00    +0.098 C 
ATOM      2  C   UNL     1       2.928  -1.699  -2.683  0.00  0.00    +0.051 C 
ATOM      3  C   UNL     1       3.850  -2.409  -1.734  0.00  0.00    -0.023 A 
ATOM      4  C   UNL     1       4.902  -1.722  -1.155  0.00  0.00    +0.038 A 
ATOM      5  C   UNL     1       5.757  -2.368  -0.283  0.00  0.00    +0.127 A 
ATOM      6  C   UNL     1       5.565  -3.705   0.014  0.00  0.00    +0.034 A 
ATOM      7  C   UNL     1       4.518  -4.397  -0.560  0.00  0.00    +0.025 A 
ATOM      8  C   UNL     1       3.654  -3.749  -1.436  0.00  0.00    +0.033 A 
ATOM      9  N   UNL     1       2.594  -4.444  -2.004  0.00  0.00    -0.329 N 
ATOM     10  C   UNL     1       1.487  -3.788  -2.680  0.00  0.00    +0.069 C 
ATOM     11  C   UNL     1       1.372  -4.350  -4.098  0.00  0.00    -0.055 C 
ATOM     12  N   UNL     1       1.247  -5.813  -4.022  0.00  0.00    +0.385 N 
ATOM     13  C   UNL     1       2.448  -6.402  -3.420  0.00  0.00    -0.059 C 
ATOM     14  C   UNL     1       2.585  -5.920  -1.974  0.00  0.00    +0.087 C 
ATOM     15  H   UNL     1       0.443  -6.050  -3.461  0.00  0.00    -0.081 HD
ENDROOT
BRANCH   1  17
ATOM     16  N   UNL     1       0.688  -0.476  -1.203  0.00  0.00    -0.315 N 
ATOM     17  C   UNL     1       0.827  -1.799  -1.425  0.00  0.00    +0.218 C 
ATOM     18  O   UNL     1       0.384  -2.597  -0.627  0.00  0.00    -0.275 OA
ATOM     19  H   UNL     1       1.042   0.162  -1.842  0.00  0.00    +0.149 HD
BRANCH  16  21
ATOM     20  C   UNL     1      -0.019   1.526   0.010  0.00  0.00    +0.024 C 
ATOM     21  C   UNL     1       0.002  -0.004   0.002  0.00  0.00    +0.101 C 
ENDBRANCH  16  21
ENDBRANCH   1  17
BRANCH   5  22
ATOM     22  N   UNL     1       6.880  -1.628   0.335  0.00  0.00    +0.056 N 
ATOM     23  O   UNL     1       7.048  -0.459   0.076  0.00  0.00    -0.126 OA
ATOM     24  O   UNL     1       7.629  -2.192   1.098  0.00  0.00    -0.126 OA
ENDBRANCH   5  22
BRANCH  12  25
ATOM     25  C   UNL     1       1.069  -6.355  -5.376  0.00  0.00    -0.043 C 
BRANCH  25  26
ATOM     26  C   UNL     1       0.818  -7.838  -5.295  0.00  0.00    -0.064 A 
ATOM     27  C   UNL     1       1.880  -8.722  -5.325  0.00  0.00    +0.004 A 
ATOM     28  C   UNL     1       1.651 -10.083  -5.250  0.00  0.00    +0.038 A 
ATOM     29  C   UNL     1       0.356 -10.561  -5.144  0.00  0.00    +0.123 A 
ATOM     30  C   UNL     1      -0.708  -9.675  -5.114  0.00  0.00    +0.038 A 
ATOM     31  C   UNL     1      -0.476  -8.315  -5.184  0.00  0.00    +0.004 A 
ATOM     32  F   UNL     1       0.131 -11.891  -5.071  0.00  0.00    -0.205 F 
ENDBRANCH  25  26
ENDBRANCH  12  25
TORSDOF 5
