REMARK  Name = ZINC13734557
REMARK  15 active torsions:
REMARK  status: ('A' for Active; 'I' for Inactive)
REMARK    1  A    between atoms: C_1  and  C_2
REMARK    2  A    between atoms: C_2  and  N_62
REMARK    3  A    between atoms: C_3  and  C_4
REMARK    4  A    between atoms: C_3  and  N_62
REMARK    5  A    between atoms: C_5  and  C_6
REMARK    6  A    between atoms: C_5  and  N_62
REMARK    7  A    between atoms: C_6  and  C_7
REMARK    8  A    between atoms: C_7  and  N_64
REMARK    9  A    between atoms: C_8  and  C_9
REMARK   10  A    between atoms: C_8  and  N_64
REMARK   11  A    between atoms: C_12  and  O_15
REMARK   12  A    between atoms: O_15  and  C_16
REMARK   13  A    between atoms: C_16  and  C_17
REMARK   14  A    between atoms: N_23  and  C_28
REMARK   15  A    between atoms: N_26  and  C_27
REMARK                            x       y       z     vdW  Elec       q    Type
REMARK                         _______ _______ _______ _____ _____    ______ ____
ROOT
ATOM      1  C   UNL     1       1.146   2.091  -0.003  0.00  0.00    -0.064 A 
ATOM      2  C   UNL     1      -0.051   1.399  -0.011  0.00  0.00    +0.005 A 
ATOM      3  C   UNL     1      -0.051   0.017  -0.021  0.00  0.00    +0.046 A 
ATOM      4  C   UNL     1       1.152  -0.675  -0.023  0.00  0.00    +0.121 A 
ATOM      5  C   UNL     1       2.351   0.022  -0.015  0.00  0.00    +0.046 A 
ATOM      6  C   UNL     1       2.345   1.404  -0.005  0.00  0.00    +0.005 A 
ENDROOT
BRANCH   1   7
ATOM      7  C   UNL     1       1.143   3.598   0.008  0.00  0.00    -0.047 C 
BRANCH   7   8
ATOM      8  N   UNL     1       1.138   4.072   1.405  0.00  0.00    +0.382 N 
ATOM      9  H   UNL     1       0.299   3.718   1.880  0.00  0.00    -0.085 HD
ATOM     10  H   UNL     1       1.976   3.721   1.884  0.00  0.00    -0.085 HD
BRANCH   8  11
ATOM     11  C   UNL     1       1.135   5.546   1.446  0.00  0.00    -0.084 C 
BRANCH  11  12
ATOM     12  C   UNL     1       1.130   6.007   2.905  0.00  0.00    -0.038 C 
BRANCH  12  13
ATOM     13  C   UNL     1       1.127   7.536   2.958  0.00  0.00    -0.081 C 
BRANCH  13  14
ATOM     14  N   UNL     1       0.979   7.962   4.365  0.00  0.00    +0.379 N 
ATOM     15  H   UNL     1       0.276   7.368   4.821  0.00  0.00    -0.082 HD
BRANCH  14  17
ATOM     16  C   UNL     1       2.035   8.044   6.570  0.00  0.00    -0.017 C 
ATOM     17  C   UNL     1       2.267   7.813   5.076  0.00  0.00    -0.082 C 
ENDBRANCH  14  17
BRANCH  14  18
ATOM     18  C   UNL     1       0.529   9.368   4.423  0.00  0.00    -0.082 C 
ATOM     19  C   UNL     1      -0.968   9.418   4.110  0.00  0.00    -0.017 C 
ENDBRANCH  14  18
ENDBRANCH  13  14
ENDBRANCH  12  13
ENDBRANCH  11  12
ENDBRANCH   8  11
ENDBRANCH   7   8
ENDBRANCH   1   7
BRANCH   4  20
ATOM     20  O   UNL     1       1.155  -2.034  -0.033  0.00  0.00    -0.487 OA
BRANCH  20  21
ATOM     21  C   UNL     1       2.429  -2.680  -0.034  0.00  0.00    +0.264 C 
BRANCH  21  22
ATOM     22  C   UNL     1       2.235  -4.174  -0.045  0.00  0.00    -0.008 A 
ATOM     23  C   UNL     1       2.149  -4.867   1.151  0.00  0.00    +0.009 A 
ATOM     24  C   UNL     1       1.965  -6.236   1.151  0.00  0.00    +0.028 A 
ATOM     25  C   UNL     1       1.879  -6.921  -0.051  0.00  0.00    +0.070 A 
ATOM     26  C   UNL     1       1.971  -6.223  -1.257  0.00  0.00    +0.070 A 
ATOM     27  C   UNL     1       2.149  -4.848  -1.248  0.00  0.00    +0.035 A 
ATOM     28  N   UNL     1       1.851  -7.164  -2.277  0.00  0.00    -0.295 N 
ATOM     29  C   UNL     1       1.693  -8.378  -1.717  0.00  0.00    +0.330 A 
ATOM     30  O   UNL     1       1.560  -9.421  -2.331  0.00  0.00    -0.246 OA
ATOM     31  N   UNL     1       1.706  -8.264  -0.376  0.00  0.00    -0.295 N 
ATOM     32  C   UNL     1       1.562  -9.365   0.580  0.00  0.00    +0.154 C 
ATOM     33  C   UNL     1       1.889  -6.881  -3.714  0.00  0.00    +0.154 C 
ENDBRANCH  21  22
ENDBRANCH  20  21
ENDBRANCH   4  20
TORSDOF 11
