REMARK  Name = ZINC21619534
REMARK  10 active torsions:
REMARK  status: ('A' for Active; 'I' for Inactive)
REMARK    1  A    between atoms: C_1  and  C_2
REMARK    2  A    between atoms: C_5  and  S_9
REMARK    3  A    between atoms: C_7  and  C_8
REMARK    4  A    between atoms: S_9  and  N_12
REMARK    5  A    between atoms: N_12  and  C_13
REMARK    6  A    between atoms: C_16  and  C_19
REMARK    7  A    between atoms: C_19  and  O_21
REMARK    8  A    between atoms: O_21  and  C_22
REMARK    9  A    between atoms: C_22  and  C_24
REMARK   10  A    between atoms: C_22  and  C_25
REMARK                            x       y       z     vdW  Elec       q    Type
REMARK                         _______ _______ _______ _____ _____    ______ ____
ROOT
ATOM      1  C   UNL     1       0.575   2.459  -1.577  0.00  0.00    +0.048 A 
ATOM      2  C   UNL     1       1.617   1.954  -0.804  0.00  0.00    +0.025 A 
ATOM      3  C   UNL     1       2.745   2.706  -0.596  0.00  0.00    +0.017 A 
ATOM      4  C   UNL     1       2.843   3.985  -1.154  0.00  0.00    +0.059 A 
ATOM      5  C   UNL     1       1.793   4.491  -1.926  0.00  0.00    +0.017 A 
ATOM      6  C   UNL     1       0.670   3.732  -2.134  0.00  0.00    +0.025 A 
ENDROOT
BRANCH   1   7
ATOM      7  N   UNL     1      -0.565   1.692  -1.791  0.00  0.00    -0.216 N 
ATOM      8  H   UNL     1      -1.561   2.147  -1.684  0.00  0.00    +0.174 HD
BRANCH   7   9
ATOM      9  S   UNL     1      -0.423   0.096  -2.205  0.00  0.00    +0.072 S 
ATOM     10  O   UNL     1       0.483  -0.486  -1.278  0.00  0.00    -0.150 OA
ATOM     11  O   UNL     1      -1.744  -0.395  -2.389  0.00  0.00    -0.150 OA
BRANCH   9  16
ATOM     12  C   UNL     1       2.261  -0.114  -7.605  0.00  0.00    +0.044 C 
ATOM     13  C   UNL     1       1.591  -0.062  -6.256  0.00  0.00    -0.047 A 
ATOM     14  C   UNL     1       0.222   0.112  -6.171  0.00  0.00    +0.005 A 
ATOM     15  C   UNL     1      -0.394   0.155  -4.934  0.00  0.00    +0.029 A 
ATOM     16  C   UNL     1       0.361   0.035  -3.782  0.00  0.00    +0.109 A 
ATOM     17  C   UNL     1       1.729  -0.140  -3.867  0.00  0.00    +0.032 A 
ATOM     18  C   UNL     1       2.344  -0.188  -5.104  0.00  0.00    -0.046 A 
ATOM     19  C   UNL     1       3.837  -0.378  -5.197  0.00  0.00    +0.044 C 
ENDBRANCH   9  16
ENDBRANCH   7   9
ENDBRANCH   1   7
BRANCH   4  20
ATOM     20  C   UNL     1       4.052   4.797  -0.929  0.00  0.00    +0.340 C 
ATOM     21  O   UNL     1       4.137   5.908  -1.414  0.00  0.00    -0.245 OA
BRANCH  20  22
ATOM     22  O   UNL     1       5.064   4.308  -0.184  0.00  0.00    -0.449 OA
BRANCH  22  23
ATOM     23  C   UNL     1       6.223   5.163  -0.005  0.00  0.00    +0.259 C 
ATOM     24  C   UNL     1       6.031   6.027   1.244  0.00  0.00    +0.062 C 
BRANCH  23  25
ATOM     25  C   UNL     1       7.456   4.311   0.159  0.00  0.00    +0.256 C 
ATOM     26  O   UNL     1       7.348   3.113   0.315  0.00  0.00    -0.272 OA
ATOM     27  N   UNL     1       8.677   4.881   0.132  0.00  0.00    -0.298 N 
ATOM     28  C   UNL     1       8.948   6.323   0.046  0.00  0.00    +0.108 C 
ATOM     29  C   UNL     1      10.481   6.500   0.019  0.00  0.00    +0.020 C 
ATOM     30  C   UNL     1      10.979   5.121  -0.487  0.00  0.00    +0.020 C 
ATOM     31  C   UNL     1       9.962   4.160   0.176  0.00  0.00    +0.108 C 
ENDBRANCH  23  25
ENDBRANCH  22  23
ENDBRANCH  20  22
ENDBRANCH   4  20
TORSDOF 7
