REMARK  Name = ZINC09345310
REMARK  9 active torsions:
REMARK  status: ('A' for Active; 'I' for Inactive)
REMARK    1  A    between atoms: C_1  and  C_2
REMARK    2  A    between atoms: C_10  and  C_13
REMARK    3  A    between atoms: C_19  and  C_29
REMARK    4  A    between atoms: C_25  and  S_27
REMARK    5  A    between atoms: S_27  and  C_28
REMARK    6  A    between atoms: C_32  and  O_37
REMARK    7  A    between atoms: C_33  and  O_35
REMARK    8  A    between atoms: O_35  and  C_36
REMARK    9  A    between atoms: O_37  and  C_38
REMARK                            x       y       z     vdW  Elec       q    Type
REMARK                         _______ _______ _______ _____ _____    ______ ____
ROOT
ATOM      1  C   UNL     1      -0.018   1.503   0.010  0.00  0.00    +0.044 C 
ATOM      2  C   UNL     1       0.002  -0.004   0.002  0.00  0.00    -0.050 A 
ATOM      3  C   UNL     1       0.006  -0.687  -1.202  0.00  0.00    +0.007 A 
ATOM      4  C   UNL     1       0.024  -2.069  -1.225  0.00  0.00    +0.046 A 
ATOM      5  C   UNL     1       0.040  -2.778  -0.037  0.00  0.00    +0.131 A 
ATOM      6  C   UNL     1       0.037  -2.087   1.181  0.00  0.00    +0.040 A 
ATOM      7  C   UNL     1       0.023  -0.699   1.196  0.00  0.00    +0.017 A 
ATOM      8  C   UNL     1       0.059  -2.877   2.439  0.00  0.00    +0.058 C 
ATOM      9  C   UNL     1       0.408  -4.177   2.350  0.00  0.00    +0.025 C 
ATOM     10  C   UNL     1       0.768  -4.783   1.025  0.00  0.00    +0.234 C 
ATOM     11  O   UNL     1       0.055  -4.135  -0.030  0.00  0.00    -0.479 OA
ATOM     12  C   UNL     1       0.424  -4.998   3.620  0.00  0.00    +0.159 C 
ATOM     13  N   UNL     1       0.054  -4.288   4.851  0.00  0.00    -0.209 N 
ATOM     14  C   UNL     1      -0.275  -2.949   4.776  0.00  0.00    +0.216 C 
ATOM     15  N   UNL     1      -0.263  -2.309   3.626  0.00  0.00    -0.326 N 
ATOM     16  N   UNL     1      -0.569  -2.540   6.024  0.00  0.00    -0.192 NA
ATOM     17  C   UNL     1      -0.447  -3.540   6.874  0.00  0.00    +0.174 C 
ATOM     18  N   UNL     1      -0.059  -4.663   6.192  0.00  0.00    -0.239 N 
ATOM     19  H   UNL     1      -0.501  -1.368   3.629  0.00  0.00    +0.169 HD
ATOM     20  H   UNL     1       0.105  -5.543   6.566  0.00  0.00    +0.172 HD
ENDROOT
BRANCH  10  21
ATOM     21  C   UNL     1       2.248  -4.626   0.791  0.00  0.00    -0.003 A 
ATOM     22  C   UNL     1       2.753  -3.419   0.345  0.00  0.00    +0.007 A 
ATOM     23  C   UNL     1       4.111  -3.274   0.130  0.00  0.00    +0.000 A 
ATOM     24  C   UNL     1       4.964  -4.337   0.362  0.00  0.00    +0.000 A 
ATOM     25  C   UNL     1       4.460  -5.543   0.809  0.00  0.00    +0.000 A 
ATOM     26  C   UNL     1       3.103  -5.687   1.028  0.00  0.00    +0.007 A 
ENDBRANCH  10  21
BRANCH  12  27
ATOM     27  C   UNL     1       1.813  -5.553   3.803  0.00  0.00    -0.017 A 
ATOM     28  C   UNL     1       2.811  -4.756   4.332  0.00  0.00    +0.009 A 
ATOM     29  C   UNL     1       4.087  -5.261   4.502  0.00  0.00    +0.050 A 
ATOM     30  C   UNL     1       4.368  -6.569   4.141  0.00  0.00    +0.162 A 
ATOM     31  C   UNL     1       3.364  -7.372   3.608  0.00  0.00    +0.162 A 
ATOM     32  C   UNL     1       2.086  -6.861   3.445  0.00  0.00    +0.055 A 
BRANCH  31  33
ATOM     33  O   UNL     1       3.635  -8.656   3.252  0.00  0.00    -0.491 OA
ATOM     34  C   UNL     1       2.555  -9.421   2.712  0.00  0.00    +0.277 C 
ENDBRANCH  31  33
BRANCH  30  35
ATOM     35  O   UNL     1       5.622  -7.067   4.306  0.00  0.00    -0.491 OA
ATOM     36  C   UNL     1       6.603  -6.186   4.858  0.00  0.00    +0.277 C 
ENDBRANCH  30  35
ENDBRANCH  12  27
BRANCH  17  37
ATOM     37  S   UNL     1      -0.735  -3.446   8.610  0.00  0.00    -0.092 S 
ATOM     38  C   UNL     1      -1.214  -1.718   8.883  0.00  0.00    +0.093 C 
ENDBRANCH  17  37
TORSDOF 5
