REMARK  Name = ZINC05035247
REMARK  5 active torsions:
REMARK  status: ('A' for Active; 'I' for Inactive)
REMARK    1  A    between atoms: C_1  and  C_2
REMARK    2  A    between atoms: C_2  and  C_3
REMARK    3  A    between atoms: C_3  and  C_4
REMARK    4  A    between atoms: C_4  and  N_5
REMARK    5  A    between atoms: C_16  and  C_19
REMARK                            x       y       z     vdW  Elec       q    Type
REMARK                         _______ _______ _______ _____ _____    ______ ____
ROOT
ATOM      1  N   UNL     1       5.345   3.882  -2.724  0.00  0.00    -0.328 N 
ATOM      2  C   UNL     1       5.098   2.761  -1.958  0.00  0.00    +0.130 A 
ATOM      3  C   UNL     1       6.157   1.768  -1.726  0.00  0.00    +0.040 A 
ATOM      4  C   UNL     1       7.434   1.918  -2.266  0.00  0.00    +0.013 A 
ATOM      5  C   UNL     1       8.392   0.959  -2.020  0.00  0.00    +0.001 A 
ATOM      6  C   UNL     1       8.093  -0.151  -1.242  0.00  0.00    +0.002 A 
ATOM      7  C   UNL     1       6.834  -0.313  -0.702  0.00  0.00    +0.028 A 
ATOM      8  C   UNL     1       5.856   0.642  -0.938  0.00  0.00    +0.080 A 
ATOM      9  N   UNL     1       4.579   0.523  -0.418  0.00  0.00    -0.193 N 
ATOM     10  C   UNL     1       3.638   1.484  -0.678  0.00  0.00    +0.186 A 
ATOM     11  N   UNL     1       3.911   2.565  -1.423  0.00  0.00    -0.210 NA
ATOM     12  C   UNL     1       2.480   1.072  -0.016  0.00  0.00    +0.139 A 
ATOM     13  N   UNL     1       2.740  -0.087   0.596  0.00  0.00    -0.127 NA
ATOM     14  N   UNL     1       3.959  -0.442   0.384  0.00  0.00    -0.058 NA
ATOM     15  H   UNL     1       6.223   4.019  -3.114  0.00  0.00    +0.147 HD
ENDROOT
BRANCH  12  16
ATOM     16  C   UNL     1       1.185   1.791   0.000  0.00  0.00    +0.006 A 
ATOM     17  C   UNL     1      -0.013   1.076   0.008  0.00  0.00    +0.013 A 
ATOM     18  C   UNL     1      -1.216   1.750   0.017  0.00  0.00    +0.039 A 
ATOM     19  C   UNL     1      -1.236   3.136   0.029  0.00  0.00    +0.123 A 
ATOM     20  C   UNL     1      -0.049   3.851   0.022  0.00  0.00    +0.039 A 
ATOM     21  C   UNL     1       1.159   3.186   0.008  0.00  0.00    +0.013 A 
ATOM     22  F   UNL     1      -2.417   3.792   0.043  0.00  0.00    -0.205 F 
ENDBRANCH  12  16
BRANCH   1  23
ATOM     23  C   UNL     1       4.282   4.865  -2.948  0.00  0.00    +0.103 C 
BRANCH  23  24
ATOM     24  C   UNL     1       4.814   6.001  -3.823  0.00  0.00    +0.018 C 
BRANCH  24  26
ATOM     25  C   UNL     1       4.237   8.164  -4.932  0.00  0.00    +0.004 C 
ATOM     26  C   UNL     1       3.704   7.028  -4.057  0.00  0.00    -0.002 C 
ENDBRANCH  24  26
ENDBRANCH  23  24
ENDBRANCH   1  23
TORSDOF 4
