REMARK  Name = ZINC22061358
REMARK  11 active torsions:
REMARK  status: ('A' for Active; 'I' for Inactive)
REMARK    1  A    between atoms: C_1  and  C_2
REMARK    2  A    between atoms: C_2  and  C_3
REMARK    3  A    between atoms: C_3  and  C_4
REMARK    4  A    between atoms: C_3  and  C_5
REMARK    5  A    between atoms: C_3  and  C_6
REMARK    6  A    between atoms: N_14  and  C_18
REMARK    7  A    between atoms: C_18  and  C_19
REMARK    8  A    between atoms: N_21  and  C_22
REMARK    9  A    between atoms: C_25  and  S_28
REMARK   10  A    between atoms: S_28  and  C_29
REMARK   11  A    between atoms: C_29  and  C_30
REMARK                            x       y       z     vdW  Elec       q    Type
REMARK                         _______ _______ _______ _____ _____    ______ ____
ROOT
ATOM      1  C   UNL     1       4.046  -7.774  -1.327  0.00  0.00    +0.214 C 
ENDROOT
BRANCH   1  10
ATOM      2  C   UNL     1       0.730  -2.034  -1.256  0.00  0.00    -0.005 C 
ATOM      3  C   UNL     1       1.479  -2.536  -0.020  0.00  0.00    +0.006 C 
ATOM      4  C   UNL     1       1.493  -4.067  -0.020  0.00  0.00    +0.035 C 
ATOM      5  C   UNL     1       2.174  -4.572  -1.287  0.00  0.00    +0.113 C 
ATOM      6  C   UNL     1       1.453  -4.059  -2.529  0.00  0.00    +0.035 C 
ATOM      7  C   UNL     1       1.439  -2.529  -2.519  0.00  0.00    +0.006 C 
ATOM      8  C   UNL     1       2.221  -6.083  -1.292  0.00  0.00    +0.247 C 
ATOM      9  O   UNL     1       1.280  -6.847  -1.279  0.00  0.00    -0.273 OA
ATOM     10  N   UNL     1       3.532  -6.402  -1.315  0.00  0.00    -0.215 N 
ATOM     11  C   UNL     1       4.305  -5.309  -1.323  0.00  0.00    +0.310 C 
ATOM     12  O   UNL     1       5.520  -5.340  -1.343  0.00  0.00    -0.252 OA
ATOM     13  N   UNL     1       3.586  -4.170  -1.308  0.00  0.00    -0.285 N 
ATOM     14  H   UNL     1       3.854  -3.104  -1.310  0.00  0.00    +0.151 HD
BRANCH   2  15
ATOM     15  C   UNL     1       0.705  -0.504  -1.251  0.00  0.00    -0.032 C 
ATOM     16  C   UNL     1      -0.045  -0.003  -2.487  0.00  0.00    +0.011 C 
ATOM     17  C   UNL     1       2.139   0.029  -1.273  0.00  0.00    +0.011 C 
BRANCH  15  19
ATOM     18  C   UNL     1      -0.029   1.520   0.016  0.00  0.00    +0.004 C 
ATOM     19  C   UNL     1      -0.004  -0.010   0.011  0.00  0.00    +0.003 C 
ENDBRANCH  15  19
ENDBRANCH   2  15
ENDBRANCH   1  10
BRANCH   1  20
ATOM     20  C   UNL     1       4.199  -8.240  -2.752  0.00  0.00    +0.235 C 
ATOM     21  O   UNL     1       3.908  -7.499  -3.667  0.00  0.00    -0.274 OA
ATOM     22  N   UNL     1       4.660  -9.480  -3.009  0.00  0.00    -0.284 N 
ATOM     23  H   UNL     1       4.995 -10.124  -2.183  0.00  0.00    +0.155 HD
BRANCH  22  24
ATOM     24  C   UNL     1       4.711  -9.948  -4.329  0.00  0.00    +0.033 A 
ATOM     25  C   UNL     1       4.469 -11.289  -4.600  0.00  0.00    +0.024 A 
ATOM     26  C   UNL     1       4.513 -11.749  -5.901  0.00  0.00    +0.016 A 
ATOM     27  C   UNL     1       4.812 -10.874  -6.938  0.00  0.00    +0.008 A 
ATOM     28  C   UNL     1       5.061  -9.534  -6.665  0.00  0.00    +0.016 A 
ATOM     29  C   UNL     1       5.010  -9.073  -5.365  0.00  0.00    +0.024 A 
BRANCH  27  30
ATOM     30  S   UNL     1       4.877 -11.463  -8.597  0.00  0.00    -0.120 S 
BRANCH  30  31
ATOM     31  C   UNL     1       4.493 -13.230  -8.451  0.00  0.00    +0.111 C 
BRANCH  31  32
ATOM     32  C   UNL     1       4.514 -13.863  -9.818  0.00  0.00    -0.019 A 
ATOM     33  C   UNL     1       3.360 -13.921 -10.583  0.00  0.00    +0.007 A 
ATOM     34  C   UNL     1       3.428 -14.509 -11.837  0.00  0.00    +0.020 A 
ATOM     35  C   UNL     1       4.634 -15.023 -12.275  0.00  0.00    +0.111 A 
ATOM     36  N   UNL     1       5.711 -14.954 -11.518  0.00  0.00    -0.263 NA
ATOM     37  C   UNL     1       5.684 -14.398 -10.322  0.00  0.00    +0.115 A 
ENDBRANCH  31  32
ENDBRANCH  30  31
ENDBRANCH  27  30
ENDBRANCH  22  24
ENDBRANCH   1  20
TORSDOF 8
