REMARK  Name = ZINC44737036
REMARK  9 active torsions:
REMARK  status: ('A' for Active; 'I' for Inactive)
REMARK    1  A    between atoms: C_1  and  C_2
REMARK    2  A    between atoms: C_9  and  C_11
REMARK    3  A    between atoms: C_11  and  C_13
REMARK    4  A    between atoms: C_11  and  N_14
REMARK    5  A    between atoms: C_15  and  C_17
REMARK    6  A    between atoms: C_28  and  C_30
REMARK    7  A    between atoms: C_35  and  O_36
REMARK    8  A    between atoms: O_36  and  C_37
REMARK    9  A    between atoms: C_37  and  C_39
REMARK                            x       y       z     vdW  Elec       q    Type
REMARK                         _______ _______ _______ _____ _____    ______ ____
ROOT
ATOM      1  C   UNL     1       1.919  -8.597   1.483  0.00  0.00    +0.100 C 
ATOM      2  C   UNL     1       2.878  -8.002   0.428  0.00  0.00    +0.121 C 
ATOM      3  N   UNL     1       4.234  -8.305   0.943  0.00  0.00    -0.296 N 
ATOM      4  C   UNL     1       4.119  -9.672   1.505  0.00  0.00    +0.115 C 
ATOM      5  C   UNL     1       2.735  -9.695   2.185  0.00  0.00    -0.004 C 
ATOM      6  C   UNL     1       2.073 -11.055   1.987  0.00  0.00    -0.010 C 
ATOM      7  C   UNL     1       2.870 -12.121   2.743  0.00  0.00    -0.082 C 
ATOM      8  N   UNL     1       2.917 -11.780   4.170  0.00  0.00    +0.379 N 
ATOM      9  C   UNL     1       3.639 -10.516   4.359  0.00  0.00    -0.082 C 
ATOM     10  C   UNL     1       2.873  -9.382   3.672  0.00  0.00    -0.010 C 
ATOM     11  C   UNL     1       5.327  -7.516   0.907  0.00  0.00    +0.250 C 
ATOM     12  O   UNL     1       6.399  -7.944   1.289  0.00  0.00    -0.270 OA
ATOM     13  H   UNL     1       1.977 -11.686   4.523  0.00  0.00    -0.086 HD
ATOM     14  H   UNL     1       3.391 -12.515   4.675  0.00  0.00    -0.086 HD
ENDROOT
BRANCH  11  15
ATOM     15  C   UNL     1       5.221  -6.132   0.405  0.00  0.00    +0.079 A 
ATOM     16  C   UNL     1       4.345  -5.829  -0.640  0.00  0.00    +0.017 A 
ATOM     17  C   UNL     1       4.251  -4.534  -1.103  0.00  0.00    +0.001 A 
ATOM     18  C   UNL     1       5.021  -3.531  -0.538  0.00  0.00    +0.004 A 
ATOM     19  C   UNL     1       5.891  -3.818   0.495  0.00  0.00    +0.047 A 
ATOM     20  C   UNL     1       5.995  -5.114   0.978  0.00  0.00    +0.144 A 
BRANCH  20  21
ATOM     21  O   UNL     1       6.846  -5.396   1.997  0.00  0.00    -0.425 OA
BRANCH  21  22
ATOM     22  C   UNL     1       6.358  -5.378   3.249  0.00  0.00    +0.309 C 
ATOM     23  O   UNL     1       5.177  -5.205   3.434  0.00  0.00    -0.251 OA
ATOM     24  C   UNL     1       7.285  -5.573   4.421  0.00  0.00    +0.136 C 
ENDBRANCH  21  22
ENDBRANCH  20  21
ENDBRANCH  11  15
BRANCH   1  26
ATOM     25  N   UNL     1       0.299  -7.612   3.071  0.00  0.00    -0.305 N 
ATOM     26  C   UNL     1       1.504  -7.539   2.471  0.00  0.00    +0.219 C 
ATOM     27  O   UNL     1       2.253  -6.620   2.727  0.00  0.00    -0.275 OA
ATOM     28  H   UNL     1      -0.301  -8.346   2.867  0.00  0.00    +0.149 HD
BRANCH  25  29
ATOM     29  C   UNL     1      -0.104  -6.583   4.033  0.00  0.00    +0.136 C 
ATOM     30  C   UNL     1       0.443  -6.935   5.417  0.00  0.00    +0.036 C 
BRANCH  29  39
ATOM     31  C   UNL     1      -7.337  -4.973   4.726  0.00  0.00    +0.044 C 
ATOM     32  C   UNL     1      -6.051  -5.710   4.455  0.00  0.00    -0.048 A 
ATOM     33  C   UNL     1      -6.090  -7.029   4.023  0.00  0.00    +0.005 A 
ATOM     34  C   UNL     1      -4.936  -7.714   3.772  0.00  0.00    +0.030 A 
ATOM     35  C   UNL     1      -3.700  -7.086   3.950  0.00  0.00    +0.089 A 
ATOM     36  C   UNL     1      -3.660  -5.751   4.387  0.00  0.00    +0.067 A 
ATOM     37  C   UNL     1      -4.844  -5.069   4.632  0.00  0.00    +0.031 A 
ATOM     38  N   UNL     1      -2.323  -5.416   4.466  0.00  0.00    -0.340 N 
ATOM     39  C   UNL     1      -1.609  -6.511   4.091  0.00  0.00    +0.128 A 
ATOM     40  N   UNL     1      -2.413  -7.488   3.788  0.00  0.00    -0.231 NA
ATOM     41  H   UNL     1      -1.960  -4.559   4.739  0.00  0.00    +0.167 HD
ENDBRANCH  29  39
ENDBRANCH  25  29
ENDBRANCH   1  26
TORSDOF 6
