REMARK  Name = ZINC45673495
REMARK  7 active torsions:
REMARK  status: ('A' for Active; 'I' for Inactive)
REMARK    1  A    between atoms: C_1  and  C_2
REMARK    2  A    between atoms: C_2  and  C_3
REMARK    3  A    between atoms: C_2  and  C_4
REMARK    4  A    between atoms: C_4  and  C_6
REMARK    5  A    between atoms: C_4  and  N_16
REMARK    6  A    between atoms: C_17  and  C_19
REMARK    7  A    between atoms: C_19  and  N_20
REMARK                            x       y       z     vdW  Elec       q    Type
REMARK                         _______ _______ _______ _____ _____    ______ ____
ROOT
ATOM      1  N   UNL     1      -1.413  -1.998   0.005  0.00  0.00    -0.304 N 
ATOM      2  C   UNL     1      -1.314  -2.665  -1.163  0.00  0.00    +0.232 C 
ATOM      3  O   UNL     1      -1.240  -2.051  -2.206  0.00  0.00    -0.274 OA
ATOM      4  H   UNL     1      -1.472  -2.489   0.840  0.00  0.00    +0.149 HD
ENDROOT
BRANCH   1   5
ATOM      5  C   UNL     1      -1.433  -0.534   0.013  0.00  0.00    +0.141 C 
BRANCH   5   6
ATOM      6  C   UNL     1      -2.139  -0.048   1.253  0.00  0.00    +0.129 A 
ATOM      7  N   UNL     1      -3.315   0.636   1.263  0.00  0.00    -0.340 N 
ATOM      8  H   UNL     1      -3.838   0.891   0.487  0.00  0.00    +0.167 HD
ATOM      9  C   UNL     1      -3.626   0.898   2.582  0.00  0.00    +0.066 A 
ATOM     10  C   UNL     1      -4.676   1.547   3.217  0.00  0.00    +0.028 A 
ATOM     11  C   UNL     1      -4.690   1.639   4.593  0.00  0.00    +0.002 A 
ATOM     12  C   UNL     1      -3.662   1.089   5.345  0.00  0.00    +0.002 A 
ATOM     13  C   UNL     1      -2.620   0.447   4.737  0.00  0.00    +0.030 A 
ATOM     14  C   UNL     1      -2.585   0.341   3.344  0.00  0.00    +0.089 A 
ATOM     15  N   UNL     1      -1.714  -0.226   2.470  0.00  0.00    -0.231 NA
ENDBRANCH   5   6
BRANCH   5  17
ATOM     16  C   UNL     1      -0.019   1.526   0.010  0.00  0.00    +0.009 C 
ATOM     17  C   UNL     1       0.002  -0.004   0.002  0.00  0.00    +0.011 C 
ATOM     18  C   UNL     1       0.742  -0.511   1.242  0.00  0.00    +0.009 C 
ENDBRANCH   5  17
ENDBRANCH   1   5
BRANCH   2  19
ATOM     19  C   UNL     1      -1.293  -4.171  -1.171  0.00  0.00    +0.213 C 
BRANCH  19  20
ATOM     20  N   UNL     1      -1.179  -4.651  -2.550  0.00  0.00    -0.215 N 
ATOM     21  C   UNL     1      -2.234  -4.909  -3.354  0.00  0.00    +0.247 C 
ATOM     22  O   UNL     1      -3.410  -4.793  -3.084  0.00  0.00    -0.273 OA
ATOM     23  C   UNL     1      -1.636  -5.370  -4.659  0.00  0.00    +0.113 C 
ATOM     24  C   UNL     1      -2.052  -4.449  -5.813  0.00  0.00    +0.035 C 
ATOM     25  C   UNL     1      -2.194  -5.406  -7.024  0.00  0.00    +0.003 C 
ATOM     26  C   UNL     1      -2.797  -6.683  -6.386  0.00  0.00    +0.003 C 
ATOM     27  C   UNL     1      -2.099  -6.786  -5.012  0.00  0.00    +0.035 C 
ATOM     28  N   UNL     1      -0.189  -5.321  -4.437  0.00  0.00    -0.285 N 
ATOM     29  C   UNL     1      -0.017  -4.882  -3.174  0.00  0.00    +0.310 C 
ATOM     30  O   UNL     1       1.071  -4.718  -2.658  0.00  0.00    -0.252 OA
ATOM     31  H   UNL     1       0.505  -5.554  -5.072  0.00  0.00    +0.151 HD
ENDBRANCH  19  20
ENDBRANCH   2  19
TORSDOF 5
