REMARK  Name = ZINC49234506
REMARK  8 active torsions:
REMARK  status: ('A' for Active; 'I' for Inactive)
REMARK    1  A    between atoms: C_1  and  C_2
REMARK    2  A    between atoms: C_5  and  N_21
REMARK    3  A    between atoms: C_6  and  C_20
REMARK    4  A    between atoms: C_7  and  S_8
REMARK    5  A    between atoms: S_8  and  N_11
REMARK    6  A    between atoms: C_14  and  C_17
REMARK    7  A    between atoms: C_17  and  C_18
REMARK    8  A    between atoms: C_17  and  C_19
REMARK                            x       y       z     vdW  Elec       q    Type
REMARK                         _______ _______ _______ _____ _____    ______ ____
ROOT
ATOM      1  S   UNL     1       0.025   0.175   2.725  0.00  0.00    +0.102 S 
ATOM      2  O   UNL     1       0.597  -0.696   3.692  0.00  0.00    -0.146 OA
ATOM      3  O   UNL     1       0.556   1.465   2.454  0.00  0.00    -0.146 OA
ENDROOT
BRANCH   1  10
ATOM      4  C   UNL     1      -0.018   1.503   0.010  0.00  0.00    +0.046 C 
ATOM      5  C   UNL     1       0.002  -0.004   0.002  0.00  0.00    -0.023 A 
ATOM      6  C   UNL     1       0.006  -0.687  -1.200  0.00  0.00    +0.007 A 
ATOM      7  C   UNL     1       0.024  -2.068  -1.212  0.00  0.00    +0.023 A 
ATOM      8  C   UNL     1       0.040  -2.771  -0.013  0.00  0.00    +0.029 A 
ATOM      9  C   UNL     1       0.036  -2.081   1.192  0.00  0.00    -0.003 A 
ATOM     10  C   UNL     1       0.023  -0.700   1.196  0.00  0.00    +0.120 A 
ATOM     11  C   UNL     1       0.052  -2.839   2.495  0.00  0.00    +0.048 C 
BRANCH   8  12
ATOM     12  N   UNL     1       0.058  -4.167  -0.021  0.00  0.00    -0.358 N 
ATOM     13  H   UNL     1       0.060  -4.648  -0.864  0.00  0.00    +0.142 HD
ATOM     14  H   UNL     1       0.069  -4.657   0.816  0.00  0.00    +0.142 HD
ENDBRANCH   8  12
ENDBRANCH   1  10
BRANCH   1  15
ATOM     15  N   UNL     1      -1.556   0.397   3.165  0.00  0.00    -0.103 NA
ATOM     16  C   UNL     1      -1.844   1.028   4.277  0.00  0.00    +0.192 A 
ATOM     17  N   UNL     1      -3.076   1.313   4.826  0.00  0.00    -0.336 N 
ATOM     18  C   UNL     1      -3.120   1.991   6.008  0.00  0.00    +0.027 A 
ATOM     19  C   UNL     1      -1.991   2.365   6.610  0.00  0.00    +0.070 A 
ATOM     20  S   UNL     1      -0.746   1.744   5.491  0.00  0.00    -0.057 S 
ATOM     21  H   UNL     1      -3.893   1.037   4.381  0.00  0.00    +0.168 HD
BRANCH  18  22
ATOM     22  C   UNL     1      -4.450   2.319   6.637  0.00  0.00    +0.030 C 
ATOM     23  C   UNL     1      -5.266   3.189   5.679  0.00  0.00    +0.013 C 
ATOM     24  C   UNL     1      -5.212   1.023   6.923  0.00  0.00    +0.013 C 
ENDBRANCH  18  22
ENDBRANCH   1  15
TORSDOF 4
