REMARK  Name = ZINC12597660
REMARK  10 active torsions:
REMARK  status: ('A' for Active; 'I' for Inactive)
REMARK    1  A    between atoms: C_1  and  C_2
REMARK    2  A    between atoms: C_5  and  O_32
REMARK    3  A    between atoms: C_11  and  C_12
REMARK    4  A    between atoms: C_12  and  N_59
REMARK    5  A    between atoms: C_13  and  C_15
REMARK    6  A    between atoms: C_13  and  C_16
REMARK    7  A    between atoms: C_13  and  N_59
REMARK    8  A    between atoms: N_19  and  C_22
REMARK    9  A    between atoms: C_20  and  C_21
REMARK   10  A    between atoms: O_32  and  C_33
REMARK                            x       y       z     vdW  Elec       q    Type
REMARK                         _______ _______ _______ _____ _____    ______ ____
ROOT
ATOM      1  C   UNL     1      -7.303   2.875   0.230  0.00  0.00    -0.040 C 
ATOM      2  C   UNL     1      -7.703   3.063   1.695  0.00  0.00    -0.009 C 
ENDROOT
BRANCH   1   3
ATOM      3  C   UNL     1      -5.807   2.717   0.135  0.00  0.00    -0.021 A 
ATOM      4  C   UNL     1      -5.114   1.510  -0.000  0.00  0.00    +0.137 A 
ATOM      5  N   UNL     1      -3.833   1.773  -0.050  0.00  0.00    -0.174 NA
ATOM      6  N   UNL     1      -3.666   3.160   0.052  0.00  0.00    -0.236 N 
ATOM      7  C   UNL     1      -4.898   3.719   0.171  0.00  0.00    +0.043 A 
ATOM      8  C   UNL     1      -5.198   5.189   0.314  0.00  0.00    +0.066 C 
BRANCH   6   9
ATOM      9  C   UNL     1      -2.447   3.847   0.039  0.00  0.00    +0.073 A 
ATOM     10  C   UNL     1      -2.273   4.940  -0.781  0.00  0.00    +0.028 A 
ATOM     11  C   UNL     1      -1.065   5.630  -0.801  0.00  0.00    +0.003 A 
ATOM     12  C   UNL     1      -0.023   5.247  -0.013  0.00  0.00    +0.008 A 
ATOM     13  C   UNL     1      -0.160   4.137   0.839  0.00  0.00    -0.016 A 
ATOM     14  C   UNL     1      -1.385   3.427   0.867  0.00  0.00    +0.008 A 
ATOM     15  C   UNL     1      -1.517   2.314   1.713  0.00  0.00    +0.010 A 
ATOM     16  C   UNL     1      -0.473   1.940   2.502  0.00  0.00    +0.001 A 
ATOM     17  C   UNL     1       0.733   2.639   2.475  0.00  0.00    +0.001 A 
ATOM     18  C   UNL     1       0.899   3.718   1.663  0.00  0.00    +0.008 A 
ENDBRANCH   6   9
ENDBRANCH   1   3
BRANCH   1  19
ATOM     19  N   UNL     1      -7.952   1.663  -0.305  0.00  0.00    +0.387 N 
ATOM     20  H   UNL     1      -7.396   1.299  -1.088  0.00  0.00    -0.085 HD
ATOM     21  H   UNL     1      -8.008   0.954   0.434  0.00  0.00    -0.085 HD
BRANCH  19  22
ATOM     22  C   UNL     1      -9.312   1.979  -0.781  0.00  0.00    -0.027 C 
BRANCH  22  33
ATOM     23  C   UNL     1     -10.618  -0.258   0.929  0.00  0.00    +0.046 C 
ATOM     24  C   UNL     1     -10.513  -0.237  -0.574  0.00  0.00    -0.024 A 
ATOM     25  C   UNL     1     -11.005  -1.264  -1.496  0.00  0.00    +0.006 A 
ATOM     26  C   UNL     1     -11.668  -2.482  -1.326  0.00  0.00    +0.056 A 
ATOM     27  C   UNL     1     -12.002  -3.236  -2.433  0.00  0.00    +0.121 A 
ATOM     28  C   UNL     1     -11.680  -2.788  -3.712  0.00  0.00    +0.047 A 
ATOM     29  C   UNL     1     -11.027  -1.589  -3.890  0.00  0.00    +0.030 A 
ATOM     30  C   UNL     1     -10.681  -0.814  -2.788  0.00  0.00    +0.047 A 
ATOM     31  N   UNL     1     -10.046   0.402  -2.647  0.00  0.00    -0.359 N 
ATOM     32  H   UNL     1      -9.713   0.945  -3.379  0.00  0.00    +0.166 HD
ATOM     33  C   UNL     1      -9.950   0.725  -1.322  0.00  0.00    +0.003 A 
BRANCH  27  34
ATOM     34  O   UNL     1     -12.647  -4.423  -2.274  0.00  0.00    -0.495 OA
ATOM     35  C   UNL     1     -12.963  -5.153  -3.460  0.00  0.00    +0.277 C 
ENDBRANCH  27  34
ENDBRANCH  22  33
ENDBRANCH  19  22
ENDBRANCH   1  19
TORSDOF 6
