REMARK  Name = ZINC08825302
REMARK  11 active torsions:
REMARK  status: ('A' for Active; 'I' for Inactive)
REMARK    1  A    between atoms: C_1  and  C_2
REMARK    2  A    between atoms: C_2  and  C_3
REMARK    3  A    between atoms: C_3  and  C_4
REMARK    4  A    between atoms: C_4  and  N_5
REMARK    5  A    between atoms: N_5  and  C_6
REMARK    6  A    between atoms: C_7  and  N_22
REMARK    7  A    between atoms: N_8  and  C_15
REMARK    8  A    between atoms: C_15  and  C_16
REMARK    9  A    between atoms: C_23  and  C_25
REMARK   10  A    between atoms: C_25  and  S_26
REMARK   11  A    between atoms: S_26  and  C_27
REMARK                            x       y       z     vdW  Elec       q    Type
REMARK                         _______ _______ _______ _____ _____    ______ ____
ROOT
ATOM      1  N   UNL     1       4.710  -4.502  -0.123  0.00  0.00    -0.264 N 
ATOM      2  C   UNL     1       3.414  -4.175  -0.304  0.00  0.00    +0.230 C 
ATOM      3  O   UNL     1       2.590  -5.044  -0.502  0.00  0.00    -0.274 OA
ENDROOT
BRANCH   1   4
ATOM      4  C   UNL     1       5.094  -5.859  -0.068  0.00  0.00    +0.140 A 
ATOM      5  C   UNL     1       4.630  -6.679   0.941  0.00  0.00    +0.128 A 
ATOM      6  N   UNL     1       5.019  -7.998   0.966  0.00  0.00    -0.276 N 
ATOM      7  C   UNL     1       5.849  -8.481   0.024  0.00  0.00    +0.331 A 
ATOM      8  O   UNL     1       6.185  -9.649   0.067  0.00  0.00    -0.246 OA
ATOM      9  N   UNL     1       6.314  -7.696  -0.964  0.00  0.00    -0.273 N 
ATOM     10  H   UNL     1       6.930  -8.080  -1.652  0.00  0.00    +0.173 HD
ATOM     11  C   UNL     1       5.961  -6.398  -1.036  0.00  0.00    +0.277 A 
ATOM     12  O   UNL     1       6.389  -5.695  -1.936  0.00  0.00    -0.266 OA
BRANCH   5  13
ATOM     13  N   UNL     1       3.787  -6.184   1.907  0.00  0.00    -0.343 N 
ATOM     14  H   UNL     1       3.600  -5.233   1.946  0.00  0.00    +0.144 HD
ATOM     15  H   UNL     1       3.379  -6.785   2.549  0.00  0.00    +0.144 HD
ENDBRANCH   5  13
BRANCH   6  16
ATOM     16  C   UNL     1       4.530  -8.881   2.029  0.00  0.00    +0.163 C 
BRANCH  16  17
ATOM     17  C   UNL     1       5.480  -8.833   3.197  0.00  0.00    -0.028 A 
ATOM     18  C   UNL     1       6.535  -9.723   3.268  0.00  0.00    +0.005 A 
ATOM     19  C   UNL     1       7.410  -9.676   4.338  0.00  0.00    +0.000 A 
ATOM     20  C   UNL     1       7.223  -8.746   5.342  0.00  0.00    +0.000 A 
ATOM     21  C   UNL     1       6.164  -7.859   5.275  0.00  0.00    +0.000 A 
ATOM     22  C   UNL     1       5.293  -7.902   4.202  0.00  0.00    +0.005 A 
ENDBRANCH  16  17
ENDBRANCH   6  16
ENDBRANCH   1   4
BRANCH   1  23
ATOM     23  C   UNL     1       5.719  -3.449   0.016  0.00  0.00    +0.114 C 
BRANCH  23  24
ATOM     24  C   UNL     1       5.902  -3.111   1.497  0.00  0.00    +0.019 C 
BRANCH  24  26
ATOM     25  C   UNL     1       7.140  -1.673   3.123  0.00  0.00    +0.004 C 
ATOM     26  C   UNL     1       6.956  -2.011   1.642  0.00  0.00    -0.002 C 
ENDBRANCH  24  26
ENDBRANCH  23  24
ENDBRANCH   1  23
BRANCH   2  27
ATOM     27  C   UNL     1       2.988  -2.730  -0.260  0.00  0.00    +0.172 C 
BRANCH  27  28
ATOM     28  S   UNL     1       1.203  -2.618  -0.536  0.00  0.00    -0.096 S 
BRANCH  28  29
ATOM     29  C   UNL     1       0.987  -0.872  -0.435  0.00  0.00    +0.108 A 
ATOM     30  C   UNL     1      -0.294  -0.286  -0.594  0.00  0.00    +0.032 A 
ATOM     31  C   UNL     1      -1.438  -1.054  -0.834  0.00  0.00    +0.012 A 
ATOM     32  C   UNL     1      -2.645  -0.435  -0.978  0.00  0.00    +0.001 A 
ATOM     33  C   UNL     1      -2.753   0.950  -0.888  0.00  0.00    +0.002 A 
ATOM     34  C   UNL     1      -1.657   1.726  -0.649  0.00  0.00    +0.028 A 
ATOM     35  C   UNL     1      -0.401   1.123  -0.502  0.00  0.00    +0.075 A 
ATOM     36  N   UNL     1       0.709   1.840  -0.270  0.00  0.00    -0.235 NA
ATOM     37  C   UNL     1       1.869   1.244  -0.132  0.00  0.00    +0.223 A 
ATOM     38  N   UNL     1       2.019  -0.069  -0.209  0.00  0.00    -0.229 NA
ENDBRANCH  28  29
ENDBRANCH  27  28
ENDBRANCH   2  27
TORSDOF 10
