REMARK  Name = ZINC20608631
REMARK  13 active torsions:
REMARK  status: ('A' for Active; 'I' for Inactive)
REMARK    1  A    between atoms: C_1  and  C_2
REMARK    2  A    between atoms: C_2  and  N_3
REMARK    3  A    between atoms: N_3  and  C_4
REMARK    4  A    between atoms: N_3  and  S_6
REMARK    5  A    between atoms: C_4  and  C_5
REMARK    6  A    between atoms: S_6  and  C_9
REMARK    7  A    between atoms: C_12  and  C_15
REMARK    8  A    between atoms: N_19  and  C_20
REMARK    9  A    between atoms: C_23  and  O_26
REMARK   10  A    between atoms: O_26  and  C_27
REMARK   11  A    between atoms: C_27  and  C_28
REMARK   12  A    between atoms: N_29  and  C_30
REMARK   13  A    between atoms: C_30  and  C_31
REMARK                            x       y       z     vdW  Elec       q    Type
REMARK                         _______ _______ _______ _____ _____    ______ ____
ROOT
ATOM      1  C   UNL     1       0.049  -4.266  -0.020  0.00  0.00    +0.058 A 
ATOM      2  C   UNL     1       0.174  -4.956   1.132  0.00  0.00    +0.075 A 
ATOM      3  S   UNL     1       0.147  -6.647   0.561  0.00  0.00    -0.059 S 
ATOM      4  C   UNL     1      -0.021  -6.317  -1.186  0.00  0.00    +0.152 A 
ATOM      5  N   UNL     1      -0.098  -7.167  -2.191  0.00  0.00    -0.336 N 
ATOM      6  N   UNL     1      -0.049  -4.942  -1.206  0.00  0.00    -0.316 N 
ATOM      7  H   UNL     1      -0.284  -6.798  -3.211  0.00  0.00    +0.168 HD
ENDROOT
BRANCH   1  11
ATOM      8  C   UNL     1      -0.025  -0.019   0.032  0.00  0.00    +0.106 A 
ATOM      9  C   UNL     1       1.008  -0.698   0.654  0.00  0.00    +0.029 A 
ATOM     10  C   UNL     1       1.035  -2.077   0.646  0.00  0.00    +0.012 A 
ATOM     11  C   UNL     1       0.023  -2.788  -0.002  0.00  0.00    -0.001 A 
ATOM     12  C   UNL     1      -1.013  -2.097  -0.632  0.00  0.00    +0.012 A 
ATOM     13  C   UNL     1      -1.031  -0.718  -0.612  0.00  0.00    +0.029 A 
BRANCH   8  14
ATOM     14  S   UNL     1      -0.056   1.742   0.053  0.00  0.00    +0.061 S 
ATOM     15  O   UNL     1       1.285   2.170   0.251  0.00  0.00    -0.153 OA
ATOM     16  O   UNL     1      -0.828   2.149  -1.068  0.00  0.00    -0.153 OA
BRANCH  14  17
ATOM     17  N   UNL     1      -0.902   2.201   1.401  0.00  0.00    -0.177 NA
BRANCH  17  19
ATOM     18  C   UNL     1       0.137   3.900   2.822  0.00  0.00    +0.022 C 
ATOM     19  C   UNL     1      -0.200   2.415   2.669  0.00  0.00    +0.106 C 
ENDBRANCH  17  19
BRANCH  17  20
ATOM     20  C   UNL     1      -2.352   2.394   1.325  0.00  0.00    +0.106 C 
ATOM     21  C   UNL     1      -3.060   1.111   1.765  0.00  0.00    +0.022 C 
ENDBRANCH  17  20
ENDBRANCH  14  17
ENDBRANCH   8  14
ENDBRANCH   1  11
BRANCH   5  22
ATOM     22  C   UNL     1       0.052  -8.509  -1.966  0.00  0.00    +0.041 A 
ATOM     23  C   UNL     1       1.329  -9.075  -1.933  0.00  0.00    +0.029 A 
ATOM     24  C   UNL     1       1.476 -10.427  -1.702  0.00  0.00    +0.047 A 
ATOM     25  C   UNL     1       0.357 -11.226  -1.511  0.00  0.00    +0.121 A 
ATOM     26  C   UNL     1      -0.913 -10.669  -1.548  0.00  0.00    +0.047 A 
ATOM     27  C   UNL     1      -1.070  -9.318  -1.774  0.00  0.00    +0.029 A 
BRANCH  25  28
ATOM     28  O   UNL     1       0.507 -12.560  -1.288  0.00  0.00    -0.492 OA
BRANCH  28  29
ATOM     29  C   UNL     1       1.843 -13.067  -1.264  0.00  0.00    +0.225 C 
ATOM     30  C   UNL     1       1.811 -14.575  -1.002  0.00  0.00    +0.048 C 
ENDBRANCH  28  29
ENDBRANCH  25  28
ENDBRANCH   5  22
BRANCH   6  31
ATOM     31  C   UNL     1      -0.179  -4.215  -2.472  0.00  0.00    +0.159 C 
BRANCH  31  32
ATOM     32  C   UNL     1       1.180  -4.058  -3.103  0.00  0.00    -0.028 A 
ATOM     33  C   UNL     1       1.991  -2.998  -2.744  0.00  0.00    +0.005 A 
ATOM     34  C   UNL     1       3.239  -2.856  -3.320  0.00  0.00    +0.000 A 
ATOM     35  C   UNL     1       3.674  -3.769  -4.262  0.00  0.00    +0.000 A 
ATOM     36  C   UNL     1       2.861  -4.827  -4.625  0.00  0.00    +0.000 A 
ATOM     37  C   UNL     1       1.614  -4.971  -4.046  0.00  0.00    +0.005 A 
ENDBRANCH  31  32
ENDBRANCH   6  31
TORSDOF 10
