REMARK  Name = ZINC63838891
REMARK  7 active torsions:
REMARK  status: ('A' for Active; 'I' for Inactive)
REMARK    1  A    between atoms: C_1  and  O_2
REMARK    2  A    between atoms: O_2  and  C_3
REMARK    3  A    between atoms: C_8  and  C_9
REMARK    4  A    between atoms: C_13  and  S_23
REMARK    5  A    between atoms: N_15  and  C_16
REMARK    6  A    between atoms: S_23  and  C_24
REMARK    7  A    between atoms: C_24  and  C_25
REMARK                            x       y       z     vdW  Elec       q    Type
REMARK                         _______ _______ _______ _____ _____    ______ ____
ROOT
ATOM      1  C   UNL     1       0.011  -3.023   0.373  0.00  0.00    +0.192 C 
ATOM      2  N   UNL     1      -1.221  -2.248   0.102  0.00  0.00    -0.230 NA
ATOM      3  N   UNL     1      -2.139  -3.222  -0.510  0.00  0.00    -0.226 NA
ATOM      4  C   UNL     1      -1.853  -4.469   0.247  0.00  0.00    +0.217 C 
ATOM      5  N   UNL     1      -0.392  -4.437   0.465  0.00  0.00    -0.284 N 
ATOM      6  H   UNL     1      -1.035  -1.482  -0.527  0.00  0.00    +0.143 HD
ATOM      7  H   UNL     1      -3.099  -2.938  -0.390  0.00  0.00    +0.143 HD
ENDROOT
BRANCH   5   8
ATOM      8  C   UNL     1       0.443  -5.531   0.710  0.00  0.00    +0.033 A 
ATOM      9  C   UNL     1       1.819  -5.354   0.779  0.00  0.00    +0.024 A 
ATOM     10  C   UNL     1       2.641  -6.437   1.022  0.00  0.00    +0.022 A 
ATOM     11  C   UNL     1       2.096  -7.696   1.195  0.00  0.00    +0.041 A 
ATOM     12  C   UNL     1       0.725  -7.875   1.127  0.00  0.00    +0.022 A 
ATOM     13  C   UNL     1      -0.102  -6.795   0.890  0.00  0.00    +0.024 A 
ATOM     14 CL   UNL     1       3.133  -9.055   1.499  0.00  0.00    -0.084 Cl
ENDBRANCH   5   8
BRANCH   1  20
ATOM     15  C   UNL     1       1.151  -1.297   1.791  0.00  0.00    +0.126 A 
ATOM     16  C   UNL     1       1.713  -0.887   2.992  0.00  0.00    +0.046 A 
ATOM     17  C   UNL     1       1.752  -1.754   4.066  0.00  0.00    +0.004 A 
ATOM     18  C   UNL     1       1.233  -3.030   3.946  0.00  0.00    +0.001 A 
ATOM     19  C   UNL     1       0.673  -3.442   2.750  0.00  0.00    +0.010 A 
ATOM     20  C   UNL     1       0.627  -2.576   1.674  0.00  0.00    +0.030 A 
BRANCH  15  22
ATOM     21  C   UNL     1       1.671   0.855   0.925  0.00  0.00    +0.277 C 
ATOM     22  O   UNL     1       1.111  -0.446   0.732  0.00  0.00    -0.495 OA
ENDBRANCH  15  22
ENDBRANCH   1  20
BRANCH   4  23
ATOM     23  S   UNL     1      -2.736  -4.466   1.832  0.00  0.00    -0.118 S 
BRANCH  23  24
ATOM     24  C   UNL     1      -2.333  -2.852   2.555  0.00  0.00    +0.119 C 
BRANCH  24  25
ATOM     25  C   UNL     1      -3.139  -2.654   3.840  0.00  0.00    +0.184 C 
ATOM     26  N   UNL     1      -2.867  -3.750   4.779  0.00  0.00    -0.363 N 
ATOM     27  C   UNL     1      -3.995  -4.360   5.004  0.00  0.00    +0.060 A 
ATOM     28  C   UNL     1      -4.358  -5.513   5.840  0.00  0.00    +0.027 A 
ATOM     29  C   UNL     1      -5.639  -5.931   5.876  0.00  0.00    +0.002 A 
ATOM     30  C   UNL     1      -6.661  -5.307   5.139  0.00  0.00    +0.002 A 
ATOM     31  C   UNL     1      -6.437  -4.243   4.341  0.00  0.00    +0.027 A 
ATOM     32  C   UNL     1      -5.077  -3.699   4.224  0.00  0.00    +0.060 A 
ATOM     33  N   UNL     1      -4.576  -2.706   3.547  0.00  0.00    -0.363 N 
ATOM     34  H   UNL     1      -2.005  -3.978   5.161  0.00  0.00    +0.162 HD
ATOM     35  H   UNL     1      -5.064  -2.110   2.958  0.00  0.00    +0.162 HD
ENDBRANCH  24  25
ENDBRANCH  23  24
ENDBRANCH   4  23
TORSDOF 6
