REMARK  Name = ZINC54160810
REMARK  5 active torsions:
REMARK  status: ('A' for Active; 'I' for Inactive)
REMARK    1  A    between atoms: C_1  and  C_2
REMARK    2  A    between atoms: C_2  and  C_4
REMARK    3  A    between atoms: C_2  and  O_18
REMARK    4  A    between atoms: C_7  and  C_9
REMARK    5  A    between atoms: C_13  and  N_15
REMARK                            x       y       z     vdW  Elec       q    Type
REMARK                         _______ _______ _______ _____ _____    ______ ____
ROOT
ATOM      1  C   UNL     1       0.731  -0.503   1.223  0.00  0.00    +0.038 A 
ATOM      2  C   UNL     1       0.235  -0.982   2.395  0.00  0.00    +0.125 A 
ATOM      3  N   UNL     1       1.056  -1.371   3.342  0.00  0.00    -0.247 NA
ATOM      4  C   UNL     1       2.370  -1.306   3.183  0.00  0.00    +0.109 A 
ATOM      5  S   UNL     1       2.488  -0.637   1.529  0.00  0.00    -0.070 S 
ENDROOT
BRANCH   4   6
ATOM      6  C   UNL     1       3.449  -1.690   4.119  0.00  0.00    +0.009 A 
ATOM      7  C   UNL     1       4.786  -1.533   3.750  0.00  0.00    +0.011 A 
ATOM      8  C   UNL     1       5.787  -1.892   4.628  0.00  0.00    +0.003 A 
ATOM      9  C   UNL     1       5.469  -2.408   5.872  0.00  0.00    +0.033 A 
ATOM     10  C   UNL     1       4.146  -2.566   6.244  0.00  0.00    +0.127 A 
ATOM     11  C   UNL     1       3.135  -2.205   5.377  0.00  0.00    +0.043 A 
BRANCH  10  12
ATOM     12  N   UNL     1       3.814  -3.118   7.577  0.00  0.00    +0.056 N 
ATOM     13  O   UNL     1       4.699  -3.430   8.339  0.00  0.00    -0.126 OA
ATOM     14  O   UNL     1       2.658  -3.256   7.903  0.00  0.00    -0.126 OA
ENDBRANCH  10  12
ENDBRANCH   4   6
BRANCH   1  16
ATOM     15  C   UNL     1      -0.019   1.526   0.010  0.00  0.00    +0.043 C 
ATOM     16  C   UNL     1       0.002  -0.004   0.002  0.00  0.00    +0.150 C 
BRANCH  16  17
ATOM     17  O   UNL     1       0.671  -0.465  -1.174  0.00  0.00    -0.387 OA
ATOM     18  H   UNL     1       1.588  -0.167  -1.247  0.00  0.00    +0.210 HD
ENDBRANCH  16  17
ENDBRANCH   1  16
TORSDOF 4
