REMARK  Name = ZINC49526879
REMARK  7 active torsions:
REMARK  status: ('A' for Active; 'I' for Inactive)
REMARK    1  A    between atoms: C_1  and  C_2
REMARK    2  A    between atoms: C_3  and  C_22
REMARK    3  A    between atoms: C_7  and  C_8
REMARK    4  A    between atoms: C_8  and  N_10
REMARK    5  A    between atoms: N_11  and  C_12
REMARK    6  A    between atoms: C_12  and  C_14
REMARK    7  A    between atoms: C_12  and  C_15
REMARK                            x       y       z     vdW  Elec       q    Type
REMARK                         _______ _______ _______ _____ _____    ______ ____
ROOT
ATOM      1  C   UNL     1      -0.493   1.448   0.021  0.00  0.00    +0.046 C 
ATOM      2  C   UNL     1      -0.257  -0.040   0.010  0.00  0.00    -0.015 A 
ATOM      3  C   UNL     1      -0.252  -0.754  -1.177  0.00  0.00    +0.064 A 
ATOM      4  N   UNL     1      -0.043  -2.056  -1.167  0.00  0.00    -0.152 NA
ATOM      5  N   UNL     1       0.161  -2.716  -0.086  0.00  0.00    -0.133 NA
ATOM      6  C   UNL     1       0.177  -2.135   1.105  0.00  0.00    +0.151 A 
ATOM      7  C   UNL     1      -0.029  -0.745   1.200  0.00  0.00    +0.049 A 
ATOM      8  N   UNL     1       0.401  -2.886   2.246  0.00  0.00    -0.321 N 
ATOM      9  C   UNL     1      -0.486  -0.041  -2.483  0.00  0.00    +0.068 C 
ATOM     10  H   UNL     1       0.424  -2.454   3.114  0.00  0.00    +0.148 HD
ENDROOT
BRANCH   7  11
ATOM     11  C   UNL     1      -0.013  -0.057   2.504  0.00  0.00    +0.081 C 
ATOM     12  S   UNL     1       1.439   0.639   3.086  0.00  0.00    -0.035 S 
BRANCH  11  13
ATOM     13  N   UNL     1      -1.140   0.024   3.238  0.00  0.00    -0.352 N 
ATOM     14  H   UNL     1      -1.979  -0.303   2.876  0.00  0.00    +0.143 HD
ATOM     15  H   UNL     1      -1.113   0.410   4.127  0.00  0.00    +0.143 HD
ENDBRANCH  11  13
ENDBRANCH   7  11
BRANCH   8  16
ATOM     16  C   UNL     1       0.603  -4.333   2.142  0.00  0.00    +0.099 C 
ATOM     17  C   UNL     1      -0.755  -5.037   2.122  0.00  0.00    +0.033 C 
BRANCH  16  18
ATOM     18  C   UNL     1       1.402  -4.815   3.325  0.00  0.00    -0.027 A 
ATOM     19  C   UNL     1       1.150  -4.302   4.584  0.00  0.00    +0.006 A 
ATOM     20  C   UNL     1       1.881  -4.745   5.670  0.00  0.00    +0.015 A 
ATOM     21  C   UNL     1       2.866  -5.701   5.497  0.00  0.00    +0.018 A 
ATOM     22  C   UNL     1       3.118  -6.214   4.237  0.00  0.00    +0.015 A 
ATOM     23  C   UNL     1       2.382  -5.775   3.153  0.00  0.00    +0.006 A 
ATOM     24 BR   UNL     1       3.868  -6.306   6.982  0.00  0.00    -0.050 Br
ENDBRANCH  16  18
ENDBRANCH   8  16
TORSDOF 4
