REMARK  Name = ZINC50587456
REMARK  2 active torsions:
REMARK  status: ('A' for Active; 'I' for Inactive)
REMARK    1  A    between atoms: C_1  and  C_2
REMARK    2  A    between atoms: C_4  and  C_13
REMARK                            x       y       z     vdW  Elec       q    Type
REMARK                         _______ _______ _______ _____ _____    ______ ____
ROOT
ATOM      1  C   UNL     1      -0.018   1.503   0.010  0.00  0.00    +0.069 C 
ATOM      2  C   UNL     1       0.002  -0.004   0.002  0.00  0.00    +0.079 A 
ATOM      3  C   UNL     1       0.008  -0.817  -1.137  0.00  0.00    +0.085 A 
ATOM      4  C   UNL     1       0.027  -2.108  -0.729  0.00  0.00    +0.062 A 
ATOM      5  N   UNL     1       0.034  -2.109   0.629  0.00  0.00    -0.214 N 
ATOM      6  N   UNL     1       0.023  -0.776   1.059  0.00  0.00    -0.168 NA
ATOM      7  C   UNL     1       0.052  -3.244   1.455  0.00  0.00    +0.201 A 
ATOM      8  C   UNL     1       0.052  -3.159   2.837  0.00  0.00    +0.184 A 
ATOM      9  N   UNL     1       0.070  -4.311   3.463  0.00  0.00    -0.177 NA
ATOM     10  S   UNL     1       0.087  -5.413   2.283  0.00  0.00    +0.119 S 
ATOM     11  N   UNL     1       0.065  -4.468   0.974  0.00  0.00    -0.170 NA
ATOM     12 CL   UNL     1       0.029  -1.641   3.678  0.00  0.00    -0.057 Cl
ATOM     13  C   UNL     1       0.040  -3.323  -1.620  0.00  0.00    +0.067 C 
ATOM     14 CL   UNL     1      -0.007  -0.267  -2.784  0.00  0.00    -0.080 Cl
ENDROOT
TORSDOF 0
