REMARK  Name = ZINC46813745
REMARK  9 active torsions:
REMARK  status: ('A' for Active; 'I' for Inactive)
REMARK    1  A    between atoms: C_1  and  C_2
REMARK    2  A    between atoms: C_2  and  C_3
REMARK    3  A    between atoms: C_3  and  C_5
REMARK    4  A    between atoms: C_3  and  N_21
REMARK    5  A    between atoms: C_5  and  N_6
REMARK    6  A    between atoms: C_7  and  C_9
REMARK    7  A    between atoms: N_17  and  C_18
REMARK    8  A    between atoms: C_18  and  C_19
REMARK    9  A    between atoms: C_18  and  C_20
REMARK                            x       y       z     vdW  Elec       q    Type
REMARK                         _______ _______ _______ _____ _____    ______ ____
ROOT
ATOM      1  N   UNL     1       1.177  -2.422  -2.373  0.00  0.00    -0.317 N 
ATOM      2  C   UNL     1       1.090  -3.718  -2.732  0.00  0.00    +0.216 C 
ATOM      3  O   UNL     1       0.315  -4.456  -2.160  0.00  0.00    -0.276 OA
ATOM      4  H   UNL     1       1.796  -1.833  -2.830  0.00  0.00    +0.149 HD
ENDROOT
BRANCH   2   5
ATOM      5  C   UNL     1       1.954  -4.251  -3.845  0.00  0.00    +0.078 C 
ATOM      6  C   UNL     1       1.652  -3.487  -5.136  0.00  0.00    +0.032 C 
ATOM      7  C   UNL     1       2.557  -4.008  -6.257  0.00  0.00    +0.110 C 
ATOM      8  N   UNL     1       2.387  -5.463  -6.364  0.00  0.00    -0.286 N 
ATOM      9  C   UNL     1       2.566  -6.285  -5.160  0.00  0.00    +0.110 C 
ATOM     10  C   UNL     1       1.661  -5.739  -4.051  0.00  0.00    +0.032 C 
ATOM     11  C   UNL     1       2.074  -6.033  -7.545  0.00  0.00    +0.302 C 
ATOM     12  O   UNL     1       2.019  -5.354  -8.552  0.00  0.00    -0.253 OA
ATOM     13  N   UNL     1       1.820  -7.355  -7.608  0.00  0.00    -0.297 N 
ATOM     14  H   UNL     1       1.791  -7.883  -6.795  0.00  0.00    +0.150 HD
BRANCH  13  15
ATOM     15  C   UNL     1       1.589  -7.995  -8.905  0.00  0.00    +0.068 C 
ATOM     16  C   UNL     1       2.931  -8.371  -9.535  0.00  0.00    +0.027 C 
ATOM     17  C   UNL     1       0.746  -9.257  -8.709  0.00  0.00    +0.027 C 
ENDBRANCH  13  15
ENDBRANCH   2   5
BRANCH   1  18
ATOM     18  C   UNL     1       0.336  -1.904  -1.290  0.00  0.00    +0.089 C 
BRANCH  18  19
ATOM     19  C   UNL     1       0.758  -0.471  -0.959  0.00  0.00    -0.051 C 
BRANCH  19  20
ATOM     20  N   UNL     1       2.081  -0.485  -0.320  0.00  0.00    +0.385 N 
ATOM     21  C   UNL     1       3.063  -1.085  -1.236  0.00  0.00    -0.073 C 
ATOM     22  C   UNL     1       4.466  -0.815  -0.691  0.00  0.00    +0.017 C 
ATOM     23  C   UNL     1       4.539  -1.227   0.757  0.00  0.00    -0.048 A 
ATOM     24  C   UNL     1       5.787  -1.391   1.339  0.00  0.00    +0.004 A 
ATOM     25  C   UNL     1       5.893  -1.765   2.664  0.00  0.00    +0.000 A 
ATOM     26  C   UNL     1       4.750  -1.976   3.413  0.00  0.00    +0.000 A 
ATOM     27  C   UNL     1       3.508  -1.814   2.833  0.00  0.00    +0.002 A 
ATOM     28  C   UNL     1       3.399  -1.440   1.502  0.00  0.00    -0.061 A 
ATOM     29  C   UNL     1       2.024  -1.283   0.908  0.00  0.00    -0.042 C 
ATOM     30  H   UNL     1       2.358   0.459  -0.097  0.00  0.00    -0.081 HD
ENDBRANCH  19  20
BRANCH  19  32
ATOM     31  C   UNL     1       0.121   1.608   0.272  0.00  0.00    +0.002 C 
ATOM     32  C   UNL     1      -0.263   0.152  -0.004  0.00  0.00    -0.017 C 
ENDBRANCH  19  32
ENDBRANCH  18  19
ENDBRANCH   1  18
TORSDOF 6
