REMARK  Name = ZINC36146624
REMARK  12 active torsions:
REMARK  status: ('A' for Active; 'I' for Inactive)
REMARK    1  A    between atoms: C_5  and  C_7
REMARK    2  A    between atoms: C_7  and  N_8
REMARK    3  A    between atoms: N_8  and  C_9
REMARK    4  A    between atoms: N_8  and  C_25
REMARK    5  A    between atoms: C_9  and  C_10
REMARK    6  A    between atoms: C_13  and  C_16
REMARK    7  A    between atoms: C_25  and  C_26
REMARK    8  A    between atoms: C_26  and  C_28
REMARK    9  A    between atoms: C_26  and  O_36
REMARK   10  A    between atoms: C_28  and  O_29
REMARK   11  A    between atoms: O_29  and  C_30
REMARK   12  A    between atoms: C_30  and  C_31
REMARK                            x       y       z     vdW  Elec       q    Type
REMARK                         _______ _______ _______ _____ _____    ______ ____
ROOT
ATOM      1  N   UNL     1       1.697  -2.386   1.415  0.00  0.00    +0.387 N 
ATOM      2  H   UNL     1       2.370  -1.890   1.979  0.00  0.00    -0.081 HD
ENDROOT
BRANCH   1   3
ATOM      3  C   UNL     1       1.563  -1.720   0.113  0.00  0.00    -0.041 C 
BRANCH   3   8
ATOM      4  C   UNL     1      -0.392   1.505   0.295  0.00  0.00    +0.000 A 
ATOM      5  C   UNL     1       0.581   2.395   0.713  0.00  0.00    +0.001 A 
ATOM      6  C   UNL     1       1.871   1.954   0.936  0.00  0.00    +0.020 A 
ATOM      7  C   UNL     1       2.190   0.622   0.742  0.00  0.00    +0.042 A 
ATOM      8  C   UNL     1       1.216  -0.268   0.325  0.00  0.00    -0.046 A 
ATOM      9  C   UNL     1      -0.074   0.174   0.101  0.00  0.00    +0.003 A 
ATOM     10 CL   UNL     1       3.811   0.067   1.022  0.00  0.00    -0.083 Cl
ENDBRANCH   3   8
ENDBRANCH   1   3
BRANCH   1  11
ATOM     11  C   UNL     1       2.151  -3.768   1.213  0.00  0.00    -0.030 C 
BRANCH  11  12
ATOM     12  C   UNL     1       3.531  -3.760   0.552  0.00  0.00    +0.194 C 
ATOM     13  C   UNL     1       4.024  -5.201   0.279  0.00  0.00    +0.104 C 
ATOM     14  C   UNL     1       5.508  -5.104   0.574  0.00  0.00    +0.091 C 
ATOM     15  N   UNL     1       5.721  -4.011   1.228  0.00  0.00    -0.089 NA
ATOM     16  O   UNL     1       4.537  -3.273   1.463  0.00  0.00    -0.392 OA
BRANCH  14  17
ATOM     17  C   UNL     1       6.534  -6.089   0.180  0.00  0.00    +0.003 A 
ATOM     18  C   UNL     1       6.169  -7.233  -0.533  0.00  0.00    +0.013 A 
ATOM     19  C   UNL     1       7.129  -8.152  -0.899  0.00  0.00    +0.050 A 
ATOM     20  C   UNL     1       8.459  -7.945  -0.562  0.00  0.00    +0.166 A 
ATOM     21  C   UNL     1       8.830  -6.805   0.151  0.00  0.00    +0.167 A 
ATOM     22  C   UNL     1       7.873  -5.877   0.516  0.00  0.00    +0.059 A 
ATOM     23  O   UNL     1      10.180  -6.839   0.355  0.00  0.00    -0.453 OA
ATOM     24  C   UNL     1      10.570  -8.204   0.119  0.00  0.00    +0.466 C 
ATOM     25  O   UNL     1       9.577  -8.690  -0.803  0.00  0.00    -0.453 OA
ENDBRANCH  14  17
ENDBRANCH  11  12
ENDBRANCH   1  11
BRANCH   1  26
ATOM     26  C   UNL     1       0.396  -2.393   2.098  0.00  0.00    -0.044 C 
BRANCH  26  27
ATOM     27  C   UNL     1       0.573  -2.911   3.526  0.00  0.00    +0.124 C 
BRANCH  27  28
ATOM     28  O   UNL     1       0.909  -4.299   3.492  0.00  0.00    -0.391 OA
ATOM     29  H   UNL     1       0.242  -4.855   3.068  0.00  0.00    +0.210 HD
ENDBRANCH  27  28
BRANCH  27  30
ATOM     30  C   UNL     1      -0.732  -2.721   4.302  0.00  0.00    +0.189 C 
BRANCH  30  31
ATOM     31  O   UNL     1      -0.534  -3.096   5.667  0.00  0.00    -0.370 OA
BRANCH  31  32
ATOM     32  C   UNL     1      -1.698  -2.956   6.484  0.00  0.00    +0.234 C 
BRANCH  32  33
ATOM     33  C   UNL     1      -1.376  -3.377   7.894  0.00  0.00    +0.130 A 
ATOM     34  C   UNL     1      -0.922  -2.571   8.871  0.00  0.00    +0.047 A 
ATOM     35  C   UNL     1      -0.756  -3.376  10.022  0.00  0.00    +0.041 A 
ATOM     36  C   UNL     1      -1.119  -4.625   9.679  0.00  0.00    +0.195 A 
ATOM     37  O   UNL     1      -1.498  -4.619   8.391  0.00  0.00    -0.465 OA
ENDBRANCH  32  33
ENDBRANCH  31  32
ENDBRANCH  30  31
ENDBRANCH  27  30
ENDBRANCH  26  27
ENDBRANCH   1  26
TORSDOF 12
