REMARK  Name = ZINC04322309
REMARK  2 active torsions:
REMARK  status: ('A' for Active; 'I' for Inactive)
REMARK    1  A    between atoms: C_8  and  N_11
REMARK    2  A    between atoms: N_21  and  C_22
REMARK                            x       y       z     vdW  Elec       q    Type
REMARK                         _______ _______ _______ _____ _____    ______ ____
ROOT
ATOM      1  N   UNL     1      -1.510   5.081   0.044  0.00  0.00    -0.321 N 
ATOM      2  C   UNL     1      -2.127   5.769  -0.982  0.00  0.00    +0.162 A 
ATOM      3  C   UNL     1      -2.142   7.237  -0.967  0.00  0.00    +0.162 A 
ATOM      4  N   UNL     1      -2.724   7.912  -1.935  0.00  0.00    -0.204 NA
ATOM      5  C   UNL     1      -3.307   7.253  -2.944  0.00  0.00    +0.244 A 
ATOM      6  C   UNL     1      -3.292   5.770  -2.959  0.00  0.00    +0.244 A 
ATOM      7  N   UNL     1      -2.690   5.101  -1.967  0.00  0.00    -0.204 NA
ATOM      8  N   UNL     1      -3.939   5.486  -4.064  0.00  0.00    -0.027 NA
ATOM      9  O   UNL     1      -4.275   6.519  -4.605  0.00  0.00    -0.238 OA
ATOM     10  N   UNL     1      -3.960   7.547  -4.043  0.00  0.00    -0.027 NA
ATOM     11  N   UNL     1      -1.540   7.916   0.074  0.00  0.00    -0.321 N 
ATOM     12  H   UNL     1      -1.089   5.567   0.770  0.00  0.00    +0.148 HD
ATOM     13  H   UNL     1      -1.109   7.423   0.790  0.00  0.00    +0.148 HD
ENDROOT
BRANCH   1  21
ATOM     14  C   UNL     1      -0.013   1.086   0.008  0.00  0.00    +0.007 C 
ATOM     15  C   UNL     1      -0.729   1.579   1.267  0.00  0.00    -0.008 C 
ATOM     16  C   UNL     1      -2.164   1.050   1.278  0.00  0.00    +0.007 C 
ATOM     17  C   UNL     1      -2.904   1.556   0.038  0.00  0.00    -0.008 C 
ATOM     18  C   UNL     1      -2.188   1.063  -1.221  0.00  0.00    +0.007 C 
ATOM     19  C   UNL     1      -0.753   1.593  -1.232  0.00  0.00    -0.008 C 
ATOM     20  C   UNL     1      -0.773   3.123  -1.223  0.00  0.00    +0.029 C 
ATOM     21  C   UNL     1      -1.490   3.616   0.036  0.00  0.00    +0.034 C 
ATOM     22  C   UNL     1      -0.750   3.109   1.275  0.00  0.00    +0.029 C 
ATOM     23  C   UNL     1      -2.925   3.086   0.047  0.00  0.00    +0.029 C 
ENDBRANCH   1  21
BRANCH  11  24
ATOM     24  C   UNL     1      -1.551   9.380   0.097  0.00  0.00    +0.034 C 
ATOM     25  C   UNL     1      -2.997   9.879   0.118  0.00  0.00    +0.029 C 
ATOM     26  C   UNL     1      -3.009  11.409   0.142  0.00  0.00    -0.008 C 
ATOM     27  C   UNL     1      -2.280  11.905   1.393  0.00  0.00    +0.007 C 
ATOM     28  C   UNL     1      -0.833  11.406   1.372  0.00  0.00    -0.008 C 
ATOM     29  C   UNL     1      -0.822   9.876   1.347  0.00  0.00    +0.029 C 
ATOM     30  C   UNL     1      -0.128  11.941   0.124  0.00  0.00    +0.007 C 
ATOM     31  C   UNL     1      -0.857  11.445  -1.127  0.00  0.00    -0.008 C 
ATOM     32  C   UNL     1      -2.303  11.944  -1.105  0.00  0.00    +0.007 C 
ATOM     33  C   UNL     1      -0.845   9.915  -1.151  0.00  0.00    +0.029 C 
ENDBRANCH  11  24
TORSDOF 2
