REMARK  Name = ZINC10933707
REMARK  6 active torsions:
REMARK  status: ('A' for Active; 'I' for Inactive)
REMARK    1  A    between atoms: N_9  and  C_12
REMARK    2  A    between atoms: C_12  and  O_13
REMARK    3  A    between atoms: O_13  and  C_14
REMARK    4  A    between atoms: C_14  and  C_16
REMARK    5  A    between atoms: C_20  and  N_21
REMARK    6  A    between atoms: C_22  and  C_24
REMARK                            x       y       z     vdW  Elec       q    Type
REMARK                         _______ _______ _______ _____ _____    ______ ____
ROOT
ATOM      1  C   UNL     1      -1.154   3.394  -2.720  0.00  0.00    +0.091 A 
ATOM      2  C   UNL     1      -2.450   4.062  -2.608  0.00  0.00    -0.021 A 
ATOM      3  C   UNL     1      -2.954   4.529  -3.764  0.00  0.00    -0.004 A 
ATOM      4  S   UNL     1      -1.751   4.086  -4.994  0.00  0.00    -0.077 S 
ATOM      5  C   UNL     1      -0.589   3.298  -3.982  0.00  0.00    +0.086 A 
ATOM      6  C   UNL     1      -4.281   5.211  -3.567  0.00  0.00    +0.043 C 
ATOM      7  C   UNL     1      -4.350   5.498  -2.051  0.00  0.00    +0.010 C 
ATOM      8  C   UNL     1      -3.428   4.401  -1.482  0.00  0.00    +0.037 C 
ENDROOT
BRANCH   5   9
ATOM      9  N   UNL     1       0.614   2.713  -4.345  0.00  0.00    -0.279 N 
ATOM     10  C   UNL     1       1.002   2.717  -5.636  0.00  0.00    +0.221 C 
ATOM     11  O   UNL     1       0.299   3.232  -6.479  0.00  0.00    -0.275 OA
ATOM     12  H   UNL     1       1.176   2.301  -3.671  0.00  0.00    +0.155 HD
BRANCH  10  13
ATOM     13  C   UNL     1       2.310   2.081  -6.031  0.00  0.00    +0.075 C 
ATOM     14  C   UNL     1       3.458   2.778  -5.297  0.00  0.00    +0.013 C 
ATOM     15  C   UNL     1       4.786   2.132  -5.698  0.00  0.00    +0.001 C 
ATOM     16  C   UNL     1       4.986   2.273  -7.208  0.00  0.00    +0.000 C 
ATOM     17  C   UNL     1       3.838   1.576  -7.942  0.00  0.00    +0.001 C 
ATOM     18  C   UNL     1       2.510   2.222  -7.541  0.00  0.00    +0.013 C 
ENDBRANCH  10  13
ENDBRANCH   5   9
BRANCH   1  19
ATOM     19  C   UNL     1      -0.480   2.841  -1.543  0.00  0.00    +0.343 C 
ATOM     20  O   UNL     1       0.291   3.531  -0.904  0.00  0.00    -0.245 OA
BRANCH  19  21
ATOM     21  O   UNL     1      -0.715   1.567  -1.168  0.00  0.00    -0.438 OA
BRANCH  21  22
ATOM     22  C   UNL     1      -0.013   1.086   0.008  0.00  0.00    +0.383 C 
BRANCH  22  31
ATOM     23  C   UNL     1      -3.927   1.178   4.756  0.00  0.00    +0.001 A 
ATOM     24  C   UNL     1      -3.502   2.404   5.253  0.00  0.00    +0.002 A 
ATOM     25  C   UNL     1      -2.497   3.107   4.629  0.00  0.00    +0.030 A 
ATOM     26  C   UNL     1      -1.895   2.584   3.481  0.00  0.00    +0.100 A 
ATOM     27  C   UNL     1      -2.329   1.338   2.980  0.00  0.00    +0.068 A 
ATOM     28  C   UNL     1      -3.348   0.642   3.627  0.00  0.00    +0.015 A 
ATOM     29  C   UNL     1      -1.679   0.809   1.771  0.00  0.00    +0.281 A 
ATOM     30  O   UNL     1      -2.010  -0.259   1.290  0.00  0.00    -0.265 OA
ATOM     31  N   UNL     1      -0.698   1.558   1.213  0.00  0.00    -0.174 N 
ATOM     32  N   UNL     1      -0.336   2.779   1.790  0.00  0.00    -0.059 NA
ATOM     33  N   UNL     1      -0.901   3.250   2.841  0.00  0.00    -0.131 NA
ENDBRANCH  22  31
ENDBRANCH  21  22
ENDBRANCH  19  21
ENDBRANCH   1  19
TORSDOF 6
