REMARK  Name = ZINC13647250
REMARK  8 active torsions:
REMARK  status: ('A' for Active; 'I' for Inactive)
REMARK    1  A    between atoms: C_4  and  O_25
REMARK    2  A    between atoms: C_5  and  C_7
REMARK    3  A    between atoms: C_9  and  C_13
REMARK    4  A    between atoms: N_15  and  N_16
REMARK    5  A    between atoms: C_17  and  C_18
REMARK    6  A    between atoms: C_22  and  O_24
REMARK    7  A    between atoms: O_25  and  C_26
REMARK    8  A    between atoms: C_26  and  C_27
REMARK                            x       y       z     vdW  Elec       q    Type
REMARK                         _______ _______ _______ _____ _____    ______ ____
ROOT
ATOM      1  C   UNL     1       1.244  -2.166  -0.023  0.00  0.00    +0.097 A 
ATOM      2  C   UNL     1       0.123  -3.017  -0.022  0.00  0.00    +0.062 A 
ATOM      3  C   UNL     1       0.639  -4.299  -0.033  0.00  0.00    +0.122 A 
ATOM      4  N   UNL     1       1.999  -4.169  -0.039  0.00  0.00    -0.272 N 
ATOM      5  H   UNL     1       2.630  -4.907  -0.047  0.00  0.00    +0.189 HD
ATOM      6  N   UNL     1       2.319  -2.926  -0.039  0.00  0.00    -0.173 NA
ENDROOT
BRANCH   1  11
ATOM      7  C   UNL     1      -0.017   1.376   0.010  0.00  0.00    +0.001 A 
ATOM      8  C   UNL     1       1.169   2.089   0.002  0.00  0.00    +0.004 A 
ATOM      9  C   UNL     1       2.381   1.425  -0.013  0.00  0.00    +0.046 A 
ATOM     10  C   UNL     1       2.414   0.040  -0.022  0.00  0.00    +0.130 A 
ATOM     11  C   UNL     1       1.218  -0.682  -0.014  0.00  0.00    +0.044 A 
ATOM     12  C   UNL     1       0.002  -0.004   0.002  0.00  0.00    +0.014 A 
BRANCH  10  13
ATOM     13  O   UNL     1       3.605  -0.613  -0.038  0.00  0.00    -0.487 OA
BRANCH  13  14
ATOM     14  C   UNL     1       4.787   0.191  -0.046  0.00  0.00    +0.264 C 
BRANCH  14  15
ATOM     15  C   UNL     1       6.001  -0.701  -0.064  0.00  0.00    -0.010 A 
ATOM     16  C   UNL     1       6.567  -1.121   1.125  0.00  0.00    +0.008 A 
ATOM     17  C   UNL     1       7.682  -1.939   1.110  0.00  0.00    +0.020 A 
ATOM     18  C   UNL     1       8.230  -2.337  -0.097  0.00  0.00    +0.041 A 
ATOM     19  C   UNL     1       7.663  -1.916  -1.286  0.00  0.00    +0.020 A 
ATOM     20  C   UNL     1       6.546  -1.103  -1.269  0.00  0.00    +0.008 A 
ATOM     21 CL   UNL     1       9.630  -3.364  -0.117  0.00  0.00    -0.084 Cl
ENDBRANCH  14  15
ENDBRANCH  13  14
ENDBRANCH  10  13
ENDBRANCH   1  11
BRANCH   3  22
ATOM     22  C   UNL     1      -0.126  -5.556  -0.036  0.00  0.00    +0.281 C 
ATOM     23  O   UNL     1      -1.342  -5.528  -0.030  0.00  0.00    -0.267 OA
ATOM     24  N   UNL     1       0.521  -6.739  -0.047  0.00  0.00    -0.202 N 
ATOM     25  H   UNL     1       1.491  -6.761  -0.052  0.00  0.00    +0.178 HD
BRANCH  24  26
ATOM     26  N   UNL     1      -0.207  -7.936  -0.050  0.00  0.00    -0.187 NA
ATOM     27  C   UNL     1       0.416  -9.074  -0.061  0.00  0.00    +0.138 C 
BRANCH  27  28
ATOM     28  C   UNL     1      -0.351 -10.334  -0.064  0.00  0.00    -0.002 A 
ATOM     29  C   UNL     1      -1.748 -10.305  -0.062  0.00  0.00    +0.010 A 
ATOM     30  C   UNL     1      -2.461 -11.486  -0.066  0.00  0.00    +0.004 A 
ATOM     31  C   UNL     1      -1.798 -12.699  -0.070  0.00  0.00    +0.045 A 
ATOM     32  C   UNL     1      -0.410 -12.739  -0.072  0.00  0.00    +0.117 A 
ATOM     33  C   UNL     1       0.316 -11.560  -0.075  0.00  0.00    +0.054 A 
BRANCH  32  34
ATOM     34  O   UNL     1       0.235 -13.935  -0.077  0.00  0.00    -0.507 OA
ATOM     35  H   UNL     1       0.421 -14.278  -0.962  0.00  0.00    +0.292 HD
ENDBRANCH  32  34
ENDBRANCH  27  28
ENDBRANCH  24  26
ENDBRANCH   3  22
TORSDOF 8
