REMARK  Name = ZINC09296719
REMARK  5 active torsions:
REMARK  status: ('A' for Active; 'I' for Inactive)
REMARK    1  A    between atoms: N_10  and  N_11
REMARK    2  A    between atoms: C_12  and  C_13
REMARK    3  A    between atoms: C_15  and  N_20
REMARK    4  A    between atoms: C_18  and  O_19
REMARK    5  A    between atoms: N_21  and  C_22
REMARK                            x       y       z     vdW  Elec       q    Type
REMARK                         _______ _______ _______ _____ _____    ______ ____
ROOT
ATOM      1  C   UNL     1       5.726  -7.293   2.905  0.00  0.00    +0.038 A 
ATOM      2  C   UNL     1       6.221  -8.250   2.022  0.00  0.00    +0.042 A 
ATOM      3  C   UNL     1       7.517  -8.124   1.520  0.00  0.00    +0.087 A 
ATOM      4  C   UNL     1       8.313  -7.039   1.905  0.00  0.00    +0.033 A 
ATOM      5  C   UNL     1       7.821  -6.094   2.779  0.00  0.00    +0.048 A 
ATOM      6  C   UNL     1       6.532  -6.207   3.280  0.00  0.00    +0.126 A 
ENDROOT
BRANCH   1   8
ATOM      7  N   UNL     1       3.934  -6.582   4.338  0.00  0.00    -0.188 NA
ATOM      8  C   UNL     1       4.358  -7.418   3.440  0.00  0.00    +0.142 C 
BRANCH   7  18
ATOM      9  C   UNL     1      -0.660  -3.654   8.935  0.00  0.00    +0.002 A 
ATOM     10  C   UNL     1       0.368  -2.761   9.202  0.00  0.00    +0.001 A 
ATOM     11  C   UNL     1       1.570  -2.893   8.531  0.00  0.00    +0.017 A 
ATOM     12  C   UNL     1       1.727  -3.901   7.614  0.00  0.00    +0.041 A 
ATOM     13  C   UNL     1       0.702  -4.828   7.316  0.00  0.00    +0.080 A 
ATOM     14  C   UNL     1      -0.513  -4.664   8.021  0.00  0.00    +0.029 A 
ATOM     15  N   UNL     1       1.009  -5.763   6.390  0.00  0.00    -0.224 NA
ATOM     16  C   UNL     1       2.182  -5.813   5.800  0.00  0.00    +0.179 A 
ATOM     17  S   UNL     1       3.044  -4.438   6.549  0.00  0.00    -0.051 S 
ATOM     18  N   UNL     1       2.633  -6.701   4.846  0.00  0.00    -0.215 N 
ATOM     19  H   UNL     1       2.051  -7.408   4.527  0.00  0.00    +0.176 HD
ENDBRANCH   7  18
ENDBRANCH   1   8
BRANCH   6  20
ATOM     20  O   UNL     1       6.052  -5.270   4.136  0.00  0.00    -0.506 OA
ATOM     21  H   UNL     1       6.223  -5.465   5.068  0.00  0.00    +0.292 HD
ENDBRANCH   6  20
BRANCH   3  22
ATOM     22  N   UNL     1       8.009  -9.058   0.654  0.00  0.00    -0.149 NA
ATOM     23  N   UNL     1       7.206  -9.883   0.071  0.00  0.00    -0.148 NA
BRANCH  23  24
ATOM     24  C   UNL     1       5.896  -9.544  -0.118  0.00  0.00    +0.104 A 
ATOM     25  C   UNL     1       5.526  -8.199  -0.208  0.00  0.00    +0.032 A 
ATOM     26  C   UNL     1       4.203  -7.863  -0.400  0.00  0.00    +0.022 A 
ATOM     27  C   UNL     1       3.240  -8.855  -0.503  0.00  0.00    +0.042 A 
ATOM     28  C   UNL     1       3.599 -10.189  -0.415  0.00  0.00    +0.042 A 
ATOM     29  C   UNL     1       4.921 -10.540  -0.228  0.00  0.00    +0.069 A 
ATOM     30 CL   UNL     1       5.371 -12.214  -0.124  0.00  0.00    -0.081 Cl
ATOM     31 CL   UNL     1       1.576  -8.422  -0.743  0.00  0.00    -0.083 Cl
ENDBRANCH  23  24
ENDBRANCH   3  22
TORSDOF 5
