REMARK  Name = ZINC39631266
REMARK  11 active torsions:
REMARK  status: ('A' for Active; 'I' for Inactive)
REMARK    1  A    between atoms: C_1  and  C_2
REMARK    2  A    between atoms: C_2  and  C_4
REMARK    3  A    between atoms: C_2  and  N_11
REMARK    4  A    between atoms: C_4  and  C_5
REMARK    5  A    between atoms: C_5  and  C_6
REMARK    6  A    between atoms: C_6  and  C_7
REMARK    7  A    between atoms: C_7  and  C_8
REMARK    8  A    between atoms: C_7  and  C_9
REMARK    9  A    between atoms: C_7  and  O_10
REMARK   10  A    between atoms: C_12  and  C_14
REMARK   11  A    between atoms: C_25  and  C_27
REMARK                            x       y       z     vdW  Elec       q    Type
REMARK                         _______ _______ _______ _____ _____    ______ ____
ROOT
ATOM      1  C   UNL     1       2.783  -1.099   2.395  0.00  0.00    +0.100 C 
ATOM      2  C   UNL     1       2.678  -0.070   3.542  0.00  0.00    +0.121 C 
ATOM      3  N   UNL     1       3.999  -0.120   4.212  0.00  0.00    -0.296 N 
ATOM      4  C   UNL     1       4.971  -0.257   3.101  0.00  0.00    +0.115 C 
ATOM      5  C   UNL     1       4.289  -1.218   2.107  0.00  0.00    -0.004 C 
ATOM      6  C   UNL     1       4.761  -2.649   2.350  0.00  0.00    -0.010 C 
ATOM      7  C   UNL     1       6.249  -2.756   2.003  0.00  0.00    -0.082 C 
ATOM      8  N   UNL     1       6.454  -2.382   0.598  0.00  0.00    +0.379 N 
ATOM      9  C   UNL     1       6.084  -0.977   0.394  0.00  0.00    -0.082 C 
ATOM     10  C   UNL     1       4.589  -0.795   0.673  0.00  0.00    -0.010 C 
ATOM     11  C   UNL     1       4.258  -0.056   5.533  0.00  0.00    +0.252 C 
ATOM     12  O   UNL     1       5.406  -0.110   5.931  0.00  0.00    -0.270 OA
ATOM     13  H   UNL     1       7.425  -2.512   0.356  0.00  0.00    -0.086 HD
ATOM     14  H   UNL     1       5.881  -2.968   0.009  0.00  0.00    -0.086 HD
ENDROOT
BRANCH  11  15
ATOM     15  C   UNL     1       3.149   0.081   6.497  0.00  0.00    +0.107 A 
ATOM     16  C   UNL     1       2.541  -1.058   7.035  0.00  0.00    +0.138 A 
ATOM     17  C   UNL     1       1.503  -0.921   7.938  0.00  0.00    +0.039 A 
ATOM     18  C   UNL     1       1.065   0.338   8.308  0.00  0.00    +0.006 A 
ATOM     19  C   UNL     1       1.661   1.469   7.780  0.00  0.00    +0.039 A 
ATOM     20  C   UNL     1       2.704   1.350   6.881  0.00  0.00    +0.138 A 
ATOM     21  F   UNL     1       3.288   2.457   6.371  0.00  0.00    -0.205 F 
ATOM     22  F   UNL     1       2.967  -2.288   6.674  0.00  0.00    -0.205 F 
ENDBRANCH  11  15
BRANCH   1  24
ATOM     23  N   UNL     1       1.500  -1.477   0.314  0.00  0.00    -0.312 N 
ATOM     24  C   UNL     1       2.054  -0.600   1.174  0.00  0.00    +0.218 C 
ATOM     25  O   UNL     1       1.965   0.592   0.965  0.00  0.00    -0.275 OA
ATOM     26  H   UNL     1       1.571  -2.430   0.480  0.00  0.00    +0.149 HD
BRANCH  23  28
ATOM     27  C   UNL     1      -0.657  -0.665  -0.504  0.00  0.00    +0.028 C 
ATOM     28  C   UNL     1       0.792  -0.992  -0.873  0.00  0.00    +0.070 C 
BRANCH  28  29
ATOM     29  C   UNL     1       0.810  -2.073  -1.956  0.00  0.00    +0.022 C 
BRANCH  29  30
ATOM     30  C   UNL     1       2.250  -2.312  -2.414  0.00  0.00    +0.005 C 
BRANCH  30  31
ATOM     31  C   UNL     1       2.269  -3.393  -3.496  0.00  0.00    +0.034 C 
BRANCH  31  32
ATOM     32  C   UNL     1       3.709  -3.631  -3.954  0.00  0.00    +0.061 C 
ATOM     33  C   UNL     1       4.554  -4.088  -2.763  0.00  0.00    +0.041 C 
ATOM     34  C   UNL     1       3.728  -4.713  -5.037  0.00  0.00    +0.041 C 
BRANCH  32  35
ATOM     35  O   UNL     1       4.248  -2.418  -4.483  0.00  0.00    -0.389 OA
ATOM     36  H   UNL     1       3.761  -2.070  -5.243  0.00  0.00    +0.210 HD
ENDBRANCH  32  35
ENDBRANCH  31  32
ENDBRANCH  30  31
ENDBRANCH  29  30
ENDBRANCH  28  29
ENDBRANCH  23  28
ENDBRANCH   1  24
TORSDOF 8
