REMARK  Name = ZINC11661087
REMARK  13 active torsions:
REMARK  status: ('A' for Active; 'I' for Inactive)
REMARK    1  A    between atoms: C_1  and  O_2
REMARK    2  A    between atoms: O_2  and  C_3
REMARK    3  A    between atoms: C_3  and  C_4
REMARK    4  A    between atoms: C_4  and  N_69
REMARK    5  A    between atoms: C_5  and  C_6
REMARK    6  A    between atoms: C_5  and  N_69
REMARK    7  A    between atoms: C_11  and  O_12
REMARK    8  A    between atoms: O_12  and  C_13
REMARK    9  A    between atoms: C_13  and  C_14
REMARK   10  A    between atoms: C_14  and  O_15
REMARK   11  A    between atoms: C_16  and  C_17
REMARK   12  A    between atoms: C_16  and  N_69
REMARK   13  A    between atoms: C_23  and  N_71
REMARK                            x       y       z     vdW  Elec       q    Type
REMARK                         _______ _______ _______ _____ _____    ______ ____
ROOT
ATOM      1  N   UNL     1       1.586   1.925  -0.041  0.00  0.00    +0.384 N 
ATOM      2  H   UNL     1       2.135   1.545  -0.821  0.00  0.00    -0.081 HD
ENDROOT
BRANCH   1   3
ATOM      3  C   UNL     1       0.157   1.621  -0.267  0.00  0.00    -0.050 C 
BRANCH   3   4
ATOM      4  C   UNL     1      -0.686   2.094   0.919  0.00  0.00    +0.141 C 
BRANCH   4   6
ATOM      5  C   UNL     1      -1.385   4.069   2.083  0.00  0.00    +0.193 C 
ATOM      6  O   UNL     1      -0.695   3.522   0.957  0.00  0.00    -0.385 OA
ENDBRANCH   4   6
ENDBRANCH   3   4
ENDBRANCH   1   3
BRANCH   1   7
ATOM      7  C   UNL     1       2.042   1.298   1.218  0.00  0.00    -0.039 C 
BRANCH   7   8
ATOM      8  C   UNL     1       2.189  -0.185   0.994  0.00  0.00    -0.022 A 
ATOM      9  C   UNL     1       1.250  -1.058   1.507  0.00  0.00    +0.005 A 
ATOM     10  C   UNL     1       1.385  -2.419   1.302  0.00  0.00    +0.000 A 
ATOM     11  C   UNL     1       2.459  -2.909   0.583  0.00  0.00    +0.004 A 
ATOM     12  C   UNL     1       3.400  -2.040   0.067  0.00  0.00    +0.046 A 
ATOM     13  C   UNL     1       3.265  -0.674   0.267  0.00  0.00    +0.122 A 
BRANCH  13  14
ATOM     14  O   UNL     1       4.188   0.184  -0.244  0.00  0.00    -0.489 OA
BRANCH  14  15
ATOM     15  C   UNL     1       5.269  -0.390  -0.981  0.00  0.00    +0.256 C 
BRANCH  15  16
ATOM     16  C   UNL     1       6.197   0.722  -1.474  0.00  0.00    +0.196 C 
BRANCH  16  17
ATOM     17  O   UNL     1       6.805   1.367  -0.352  0.00  0.00    -0.392 OA
ATOM     18  H   UNL     1       7.408   2.084  -0.590  0.00  0.00    +0.210 HD
ENDBRANCH  16  17
ENDBRANCH  15  16
ENDBRANCH  14  15
ENDBRANCH  13  14
ENDBRANCH   7   8
ENDBRANCH   1   7
BRANCH   1  19
ATOM     19  C   UNL     1       1.788   3.388   0.022  0.00  0.00    -0.077 C 
BRANCH  19  20
ATOM     20  C   UNL     1       1.444   3.993  -1.341  0.00  0.00    -0.044 C 
ATOM     21  C   UNL     1       2.424   3.471  -2.394  0.00  0.00    -0.002 C 
ATOM     22  C   UNL     1       2.111   4.127  -3.742  0.00  0.00    -0.018 C 
ATOM     23  C   UNL     1       2.197   5.648  -3.595  0.00  0.00    -0.078 C 
ATOM     24  C   UNL     1       1.550   5.518  -1.264  0.00  0.00    -0.077 C 
ATOM     25  N   UNL     1       1.212   6.089  -2.585  0.00  0.00    +0.382 N 
ATOM     26  H   UNL     1       0.280   5.760  -2.862  0.00  0.00    -0.081 HD
BRANCH  25  27
ATOM     27  C   UNL     1       1.196   7.565  -2.507  0.00  0.00    -0.060 C 
ATOM     28  C   UNL     1      -0.026   8.039  -1.692  0.00  0.00    +0.020 C 
ATOM     29  C   UNL     1      -0.483   9.313  -2.376  0.00  0.00    -0.046 A 
ATOM     30  C   UNL     1      -1.313  10.326  -1.921  0.00  0.00    +0.004 A 
ATOM     31  C   UNL     1      -1.593  11.410  -2.730  0.00  0.00    +0.000 A 
ATOM     32  C   UNL     1      -1.044  11.486  -3.996  0.00  0.00    +0.000 A 
ATOM     33  C   UNL     1      -0.216  10.478  -4.450  0.00  0.00    +0.004 A 
ATOM     34  C   UNL     1       0.066   9.390  -3.642  0.00  0.00    -0.046 A 
ATOM     35  C   UNL     1       0.927   8.172  -3.900  0.00  0.00    +0.020 C 
ENDBRANCH  25  27
ENDBRANCH  19  20
ENDBRANCH   1  19
TORSDOF 12
