REMARK  Name = ZINC63896810
REMARK  10 active torsions:
REMARK  status: ('A' for Active; 'I' for Inactive)
REMARK    1  A    between atoms: C_1  and  O_2
REMARK    2  A    between atoms: O_2  and  C_3
REMARK    3  A    between atoms: C_6  and  C_9
REMARK    4  A    between atoms: C_14  and  N_18
REMARK    5  A    between atoms: N_18  and  C_19
REMARK    6  A    between atoms: C_19  and  C_20
REMARK    7  A    between atoms: C_20  and  C_22
REMARK    8  A    between atoms: C_20  and  C_30
REMARK    9  A    between atoms: C_25  and  O_28
REMARK   10  A    between atoms: O_28  and  C_29
REMARK                            x       y       z     vdW  Elec       q    Type
REMARK                         _______ _______ _______ _____ _____    ______ ____
ROOT
ATOM      1  C   UNL     1      -1.292  -4.982   3.291  0.00  0.00    +0.115 C 
ENDROOT
BRANCH   1   2
ATOM      2  N   UNL     1      -0.136  -4.388   3.968  0.00  0.00    -0.328 N 
ATOM      3  H   UNL     1       0.365  -3.678   3.539  0.00  0.00    +0.147 HD
BRANCH   2   9
ATOM      4  C   UNL     1       2.428  -3.430   5.318  0.00  0.00    +0.002 A 
ATOM      5  C   UNL     1       3.502  -3.138   6.088  0.00  0.00    +0.056 A 
ATOM      6  S   UNL     1       3.251  -4.131   7.547  0.00  0.00    -0.076 S 
ATOM      7  C   UNL     1       1.723  -4.911   7.097  0.00  0.00    +0.114 A 
ATOM      8  C   UNL     1       1.439  -4.377   5.823  0.00  0.00    +0.055 A 
ATOM      9  C   UNL     1       0.240  -4.842   5.220  0.00  0.00    +0.131 A 
ATOM     10  N   UNL     1      -0.514  -5.714   5.871  0.00  0.00    -0.220 NA
ATOM     11  C   UNL     1      -0.189  -6.169   7.067  0.00  0.00    +0.224 A 
ATOM     12  N   UNL     1       0.917  -5.782   7.672  0.00  0.00    -0.228 NA
BRANCH   4  16
ATOM     13  C   UNL     1       1.939  -1.610   1.506  0.00  0.00    +0.120 A 
ATOM     14  C   UNL     1       2.015  -0.821   2.645  0.00  0.00    +0.046 A 
ATOM     15  C   UNL     1       2.174  -1.408   3.883  0.00  0.00    +0.012 A 
ATOM     16  C   UNL     1       2.257  -2.796   3.989  0.00  0.00    -0.016 A 
ATOM     17  C   UNL     1       2.179  -3.586   2.843  0.00  0.00    +0.012 A 
ATOM     18  C   UNL     1       2.016  -2.993   1.608  0.00  0.00    +0.046 A 
BRANCH  13  20
ATOM     19  C   UNL     1       1.839   0.398   0.237  0.00  0.00    +0.277 C 
ATOM     20  O   UNL     1       1.782  -1.029   0.287  0.00  0.00    -0.495 OA
ENDBRANCH  13  20
ENDBRANCH   4  16
ENDBRANCH   2   9
ENDBRANCH   1   2
BRANCH   1  21
ATOM     21  C   UNL     1      -1.601  -4.188   2.020  0.00  0.00    +0.064 C 
BRANCH  21  22
ATOM     22  C   UNL     1      -2.022  -2.789   2.392  0.00  0.00    -0.033 C 
ATOM     23  C   UNL     1      -1.752  -1.651   1.713  0.00  0.00    -0.000 A 
ATOM     24  C   UNL     1      -1.011  -1.384   0.474  0.00  0.00    +0.010 A 
ATOM     25  C   UNL     1      -0.907  -0.110   0.033  0.00  0.00    +0.001 A 
ATOM     26  C   UNL     1      -1.487   0.960   0.728  0.00  0.00    +0.002 A 
ATOM     27  C   UNL     1      -2.182   0.794   1.874  0.00  0.00    +0.026 A 
ATOM     28  C   UNL     1      -2.355  -0.504   2.428  0.00  0.00    +0.043 A 
ATOM     29  N   UNL     1      -2.974  -0.917   3.507  0.00  0.00    -0.380 N 
ATOM     30  C   UNL     1      -2.839  -2.375   3.595  0.00  0.00    +0.145 C 
ATOM     31  H   UNL     1      -3.446  -0.353   4.140  0.00  0.00    +0.160 HD
ENDBRANCH  21  22
BRANCH  21  32
ATOM     32  C   UNL     1      -2.715  -4.864   1.264  0.00  0.00    -0.038 A 
ATOM     33  C   UNL     1      -3.952  -5.029   1.859  0.00  0.00    +0.008 A 
ATOM     34  C   UNL     1      -4.975  -5.649   1.168  0.00  0.00    +0.046 A 
ATOM     35  C   UNL     1      -4.761  -6.106  -0.124  0.00  0.00    +0.120 A 
ATOM     36  C   UNL     1      -3.519  -5.938  -0.719  0.00  0.00    +0.046 A 
ATOM     37  C   UNL     1      -2.501  -5.313  -0.026  0.00  0.00    +0.008 A 
BRANCH  35  38
ATOM     38  O   UNL     1      -5.766  -6.716  -0.806  0.00  0.00    -0.495 OA
ATOM     39  C   UNL     1      -5.473  -7.161  -2.132  0.00  0.00    +0.277 C 
ENDBRANCH  35  38
ENDBRANCH  21  32
ENDBRANCH   1  21
TORSDOF 8
