REMARK  Name = ZINC21976263
REMARK  10 active torsions:
REMARK  status: ('A' for Active; 'I' for Inactive)
REMARK    1  A    between atoms: C_1  and  C_2
REMARK    2  A    between atoms: C_5  and  N_9
REMARK    3  A    between atoms: C_7  and  C_8
REMARK    4  A    between atoms: C_10  and  C_28
REMARK    5  A    between atoms: C_13  and  S_14
REMARK    6  A    between atoms: S_14  and  C_15
REMARK    7  A    between atoms: C_15  and  C_17
REMARK    8  A    between atoms: C_15  and  C_18
REMARK    9  A    between atoms: N_24  and  C_25
REMARK   10  A    between atoms: N_24  and  C_26
REMARK                            x       y       z     vdW  Elec       q    Type
REMARK                         _______ _______ _______ _____ _____    ______ ____
ROOT
ATOM      1  N   UNL     1       2.404   1.105  -0.015  0.00  0.00    -0.270 N 
ATOM      2  C   UNL     1       2.919   0.293   0.972  0.00  0.00    +0.169 A 
ATOM      3  N   UNL     1       4.082  -0.142   0.546  0.00  0.00    -0.128 NA
ATOM      4  N   UNL     1       4.332   0.341  -0.618  0.00  0.00    -0.122 NA
ATOM      5  C   UNL     1       3.341   1.111  -1.011  0.00  0.00    +0.197 A 
ENDROOT
BRANCH   1  10
ATOM      6  C   UNL     1      -2.553   3.867   0.048  0.00  0.00    +0.044 C 
ATOM      7  C   UNL     1      -1.237   3.134   0.031  0.00  0.00    -0.047 A 
ATOM      8  C   UNL     1      -1.217   1.751   0.017  0.00  0.00    +0.005 A 
ATOM      9  C   UNL     1      -0.013   1.076   0.008  0.00  0.00    +0.026 A 
ATOM     10  C   UNL     1       1.180   1.787   0.000  0.00  0.00    +0.051 A 
ATOM     11  C   UNL     1       1.157   3.175   0.008  0.00  0.00    +0.030 A 
ATOM     12  C   UNL     1      -0.051   3.844   0.023  0.00  0.00    -0.046 A 
ATOM     13  C   UNL     1      -0.077   5.351   0.032  0.00  0.00    +0.044 C 
ENDBRANCH   1  10
BRANCH   2  14
ATOM     14  C   UNL     1       2.280  -0.030   2.265  0.00  0.00    +0.022 A 
ATOM     15  C   UNL     1       1.202   0.724   2.743  0.00  0.00    +0.031 A 
ATOM     16  C   UNL     1       0.632   0.384   3.952  0.00  0.00    +0.111 A 
ATOM     17  N   UNL     1       1.096  -0.629   4.659  0.00  0.00    -0.263 NA
ATOM     18  C   UNL     1       2.113  -1.363   4.247  0.00  0.00    +0.111 A 
ATOM     19  C   UNL     1       2.739  -1.097   3.048  0.00  0.00    +0.031 A 
ENDBRANCH   2  14
BRANCH   5  20
ATOM     20  S   UNL     1       3.239   1.986  -2.537  0.00  0.00    -0.075 S 
BRANCH  20  21
ATOM     21  C   UNL     1       4.814   1.499  -3.285  0.00  0.00    +0.119 C 
ATOM     22  C   UNL     1       5.968   2.058  -2.451  0.00  0.00    +0.028 C 
BRANCH  21  23
ATOM     23  C   UNL     1       4.895   2.047  -4.686  0.00  0.00    +0.149 A 
ATOM     24  N   UNL     1       4.543   3.298  -4.926  0.00  0.00    -0.198 NA
ATOM     25  C   UNL     1       4.614   3.786  -6.162  0.00  0.00    +0.217 A 
ATOM     26  N   UNL     1       5.040   3.014  -7.156  0.00  0.00    -0.181 NA
ATOM     27  C   UNL     1       5.393   1.757  -6.911  0.00  0.00    +0.222 A 
ATOM     28  N   UNL     1       5.324   1.277  -5.671  0.00  0.00    -0.198 NA
ATOM     29  N   UNL     1       5.836   0.950  -7.940  0.00  0.00    -0.306 N 
ATOM     30  C   UNL     1       5.917   1.480  -9.303  0.00  0.00    +0.132 C 
ATOM     31  C   UNL     1       6.225  -0.436  -7.668  0.00  0.00    +0.132 C 
ATOM     32  N   UNL     1       4.245   5.092  -6.412  0.00  0.00    -0.327 N 
ATOM     33  H   UNL     1       4.304   5.495  -7.434  0.00  0.00    +0.145 HD
ATOM     34  H   UNL     1       3.892   5.731  -5.589  0.00  0.00    +0.145 HD
ENDBRANCH  21  23
ENDBRANCH  20  21
ENDBRANCH   5  20
TORSDOF 5
