REMARK  Name = ZINC39345580
REMARK  4 active torsions:
REMARK  status: ('A' for Active; 'I' for Inactive)
REMARK    1  A    between atoms: C_1  and  C_2
REMARK    2  A    between atoms: C_4  and  C_19
REMARK    3  A    between atoms: C_8  and  C_10
REMARK    4  A    between atoms: C_13  and  C_15
REMARK                            x       y       z     vdW  Elec       q    Type
REMARK                         _______ _______ _______ _____ _____    ______ ____
ROOT
ATOM      1  C   UNL     1      -0.018   1.503   0.010  0.00  0.00    +0.040 C 
ATOM      2  C   UNL     1       0.002  -0.004   0.002  0.00  0.00    -0.054 C 
ATOM      3  C   UNL     1       0.006  -0.695  -1.148  0.00  0.00    +0.020 C 
ATOM      4  C   UNL     1       0.025  -2.103  -1.149  0.00  0.00    +0.031 C 
ATOM      5  N   UNL     1       0.040  -2.837  -0.070  0.00  0.00    -0.185 NA
ATOM      6  C   UNL     1       0.039  -2.309   1.161  0.00  0.00    +0.249 C 
ATOM      7  O   UNL     1       0.054  -3.021   2.144  0.00  0.00    -0.273 OA
ATOM      8  C   UNL     1       0.025  -0.799   1.293  0.00  0.00    +0.149 C 
ATOM      9  C   UNL     1       0.028  -2.807  -2.482  0.00  0.00    +0.063 C 
ENDROOT
BRANCH   8  10
ATOM     10  C   UNL     1       1.245  -0.384   2.075  0.00  0.00    +0.063 C 
ATOM     11  N   UNL     1       2.174   0.429   1.694  0.00  0.00    -0.157 NA
ATOM     12  N   UNL     1       3.161   0.597   2.659  0.00  0.00    -0.149 NA
ATOM     13  C   UNL     1       2.933  -0.097   3.725  0.00  0.00    +0.149 C 
ATOM     14  C   UNL     1       1.630  -0.830   3.472  0.00  0.00    +0.115 C 
BRANCH  13  15
ATOM     15  C   UNL     1       3.784  -0.161   4.967  0.00  0.00    +0.432 C 
ATOM     16  F   UNL     1       4.902   0.666   4.809  0.00  0.00    -0.165 F 
ATOM     17  F   UNL     1       3.036   0.271   6.067  0.00  0.00    -0.165 F 
ATOM     18  F   UNL     1       4.204  -1.479   5.177  0.00  0.00    -0.165 F 
ENDBRANCH  13  15
ENDBRANCH   8  10
TORSDOF 2
