REMARK  Name = ZINC40343718
REMARK  13 active torsions:
REMARK  status: ('A' for Active; 'I' for Inactive)
REMARK    1  A    between atoms: C_1  and  C_2
REMARK    2  A    between atoms: C_5  and  C_8
REMARK    3  A    between atoms: C_8  and  N_9
REMARK    4  A    between atoms: C_10  and  C_27
REMARK    5  A    between atoms: C_13  and  C_20
REMARK    6  A    between atoms: C_30  and  O_35
REMARK    7  A    between atoms: C_31  and  O_33
REMARK    8  A    between atoms: O_33  and  C_34
REMARK    9  A    between atoms: O_35  and  C_36
REMARK   10  A    between atoms: C_36  and  C_37
REMARK   11  A    between atoms: C_37  and  C_38
REMARK   12  A    between atoms: C_38  and  C_39
REMARK   13  A    between atoms: C_38  and  C_40
REMARK                            x       y       z     vdW  Elec       q    Type
REMARK                         _______ _______ _______ _____ _____    ______ ____
ROOT
ATOM      1  N   UNL     1       1.447  -4.746  -0.032  0.00  0.00    -0.281 N 
ATOM      2  C   UNL     1       2.257  -5.010  -1.228  0.00  0.00    +0.142 C 
ATOM      3  C   UNL     1       3.599  -5.469  -0.729  0.00  0.00    +0.035 A 
ATOM      4  C   UNL     1       4.890  -5.904  -1.047  0.00  0.00    +0.099 A 
ATOM      5  N   UNL     1       5.522  -6.128   0.088  0.00  0.00    -0.173 NA
ATOM      6  N   UNL     1       4.759  -5.878   1.091  0.00  0.00    -0.272 N 
ATOM      7  H   UNL     1       5.013  -5.972   2.023  0.00  0.00    +0.189 HD
ATOM      8  C   UNL     1       3.535  -5.459   0.651  0.00  0.00    +0.126 A 
ATOM      9  C   UNL     1       2.199  -5.004   1.053  0.00  0.00    +0.266 C 
ATOM     10  O   UNL     1       1.825  -4.881   2.203  0.00  0.00    -0.268 OA
ENDROOT
BRANCH   4  11
ATOM     11  C   UNL     1       5.446  -6.081  -2.412  0.00  0.00    +0.003 A 
ATOM     12  C   UNL     1       4.626  -6.519  -3.450  0.00  0.00    +0.011 A 
ATOM     13  C   UNL     1       5.147  -6.682  -4.717  0.00  0.00    +0.020 A 
ATOM     14  C   UNL     1       6.483  -6.411  -4.958  0.00  0.00    +0.041 A 
ATOM     15  C   UNL     1       7.303  -5.976  -3.930  0.00  0.00    +0.020 A 
ATOM     16  C   UNL     1       6.789  -5.804  -2.661  0.00  0.00    +0.011 A 
ATOM     17 CL   UNL     1       7.134  -6.618  -6.554  0.00  0.00    -0.084 Cl
ENDBRANCH   4  11
BRANCH   2  18
ATOM     18  C   UNL     1       2.408  -3.750  -2.041  0.00  0.00    -0.019 A 
ATOM     19  C   UNL     1       2.585  -2.536  -1.405  0.00  0.00    +0.009 A 
ATOM     20  C   UNL     1       2.723  -1.377  -2.146  0.00  0.00    +0.050 A 
ATOM     21  C   UNL     1       2.685  -1.432  -3.530  0.00  0.00    +0.162 A 
ATOM     22  C   UNL     1       2.507  -2.654  -4.171  0.00  0.00    +0.162 A 
ATOM     23  C   UNL     1       2.374  -3.812  -3.422  0.00  0.00    +0.055 A 
BRANCH  22  24
ATOM     24  O   UNL     1       2.469  -2.713  -5.529  0.00  0.00    -0.491 OA
ATOM     25  C   UNL     1       2.284  -4.002  -6.118  0.00  0.00    +0.277 C 
ENDBRANCH  22  24
BRANCH  21  26
ATOM     26  O   UNL     1       2.821  -0.293  -4.261  0.00  0.00    -0.488 OA
BRANCH  26  27
ATOM     27  C   UNL     1       2.999   0.926  -3.536  0.00  0.00    +0.229 C 
BRANCH  27  28
ATOM     28  C   UNL     1       3.133   2.090  -4.521  0.00  0.00    +0.044 C 
BRANCH  28  29
ATOM     29  C   UNL     1       3.324   3.394  -3.745  0.00  0.00    -0.014 C 
ATOM     30  C   UNL     1       3.582   4.539  -4.727  0.00  0.00    +0.007 C 
ATOM     31  C   UNL     1       2.063   3.694  -2.932  0.00  0.00    +0.007 C 
ENDBRANCH  28  29
ENDBRANCH  27  28
ENDBRANCH  26  27
ENDBRANCH  21  26
ENDBRANCH   2  18
BRANCH   1  32
ATOM     32  C   UNL     1       0.059  -4.275  -0.021  0.00  0.00    +0.144 C 
BRANCH  32  37
ATOM     33  C   UNL     1      -0.018   1.503   0.010  0.00  0.00    +0.044 C 
ATOM     34  C   UNL     1       0.002  -0.004   0.002  0.00  0.00    -0.050 A 
ATOM     35  C   UNL     1       0.006  -0.689  -1.199  0.00  0.00    +0.003 A 
ATOM     36  C   UNL     1       0.025  -2.071  -1.206  0.00  0.00    +0.005 A 
ATOM     37  C   UNL     1       0.040  -2.768  -0.013  0.00  0.00    -0.030 A 
ATOM     38  C   UNL     1       0.037  -2.084   1.188  0.00  0.00    +0.005 A 
ATOM     39  C   UNL     1       0.023  -0.702   1.195  0.00  0.00    +0.003 A 
ENDBRANCH  32  37
ENDBRANCH   1  32
TORSDOF 9
