REMARK  Name = ZINC09126858
REMARK  8 active torsions:
REMARK  status: ('A' for Active; 'I' for Inactive)
REMARK    1  A    between atoms: C_4  and  C_7
REMARK    2  A    between atoms: C_8  and  S_9
REMARK    3  A    between atoms: S_9  and  N_12
REMARK    4  A    between atoms: N_12  and  C_13
REMARK    5  A    between atoms: C_16  and  C_19
REMARK    6  A    between atoms: N_21  and  N_22
REMARK    7  A    between atoms: C_23  and  C_25
REMARK    8  A    between atoms: C_25  and  C_26
REMARK                            x       y       z     vdW  Elec       q    Type
REMARK                         _______ _______ _______ _____ _____    ______ ____
ROOT
ATOM      1  C   UNL     1      -3.523   3.440   0.067  0.00  0.00    +0.048 A 
ATOM      2  C   UNL     1      -3.370   2.059  -0.027  0.00  0.00    +0.025 A 
ATOM      3  C   UNL     1      -2.112   1.502  -0.012  0.00  0.00    +0.015 A 
ATOM      4  C   UNL     1      -0.987   2.324   0.098  0.00  0.00    +0.038 A 
ATOM      5  C   UNL     1      -1.144   3.710   0.197  0.00  0.00    +0.015 A 
ATOM      6  C   UNL     1      -2.405   4.261   0.177  0.00  0.00    +0.025 A 
ENDROOT
BRANCH   4   7
ATOM      7  C   UNL     1       0.364   1.730   0.114  0.00  0.00    +0.260 C 
ATOM      8  O   UNL     1       0.499   0.525   0.033  0.00  0.00    -0.269 OA
ATOM      9  N   UNL     1       1.448   2.525   0.214  0.00  0.00    -0.230 N 
ATOM     10  H   UNL     1       1.340   3.487   0.280  0.00  0.00    +0.173 HD
BRANCH   9  11
ATOM     11  N   UNL     1       2.731   1.961   0.225  0.00  0.00    -0.234 N 
ATOM     12  C   UNL     1       3.815   2.756   0.325  0.00  0.00    +0.230 C 
ATOM     13  O   UNL     1       3.680   3.958   0.406  0.00  0.00    -0.274 OA
ATOM     14  H   UNL     1       2.838   1.000   0.159  0.00  0.00    +0.173 HD
BRANCH  12  15
ATOM     15  C   UNL     1       5.194   2.150   0.336  0.00  0.00    +0.104 C 
BRANCH  15  16
ATOM     16  C   UNL     1       6.239   3.261   0.457  0.00  0.00    -0.020 C 
ATOM     17  C   UNL     1       6.110   4.214  -0.733  0.00  0.00    +0.011 C 
ATOM     18  C   UNL     1       7.154   5.326  -0.611  0.00  0.00    -0.010 C 
ATOM     19  C   UNL     1       8.555   4.711  -0.600  0.00  0.00    +0.007 C 
ATOM     20  C   UNL     1       8.684   3.757   0.590  0.00  0.00    -0.010 C 
ATOM     21  C   UNL     1       7.639   2.646   0.468  0.00  0.00    +0.011 C 
ATOM     22  C   UNL     1       8.457   4.531   1.890  0.00  0.00    +0.007 C 
ATOM     23  C   UNL     1       7.056   5.146   1.879  0.00  0.00    -0.010 C 
ATOM     24  C   UNL     1       6.927   6.099   0.689  0.00  0.00    +0.007 C 
ATOM     25  C   UNL     1       6.011   4.035   1.757  0.00  0.00    +0.011 C 
ENDBRANCH  15  16
ENDBRANCH  12  15
ENDBRANCH   9  11
ENDBRANCH   4   7
BRANCH   1  26
ATOM     26  N   UNL     1      -4.796   3.999   0.051  0.00  0.00    -0.217 N 
ATOM     27  H   UNL     1      -5.447   3.706  -0.606  0.00  0.00    +0.174 HD
BRANCH  26  28
ATOM     28  S   UNL     1      -5.201   5.166   1.154  0.00  0.00    +0.066 S 
ATOM     29  O   UNL     1      -4.199   6.170   1.069  0.00  0.00    -0.151 OA
ATOM     30  O   UNL     1      -6.580   5.448   0.959  0.00  0.00    -0.151 OA
BRANCH  28  32
ATOM     31  C   UNL     1      -4.142   4.891   3.603  0.00  0.00    +0.028 C 
ATOM     32  C   UNL     1      -5.056   4.444   2.754  0.00  0.00    +0.157 C 
BRANCH  31  36
ATOM     33  C   UNL     1      -3.793   3.149   7.461  0.00  0.00    +0.000 A 
ATOM     34  C   UNL     1      -2.950   4.182   7.093  0.00  0.00    +0.001 A 
ATOM     35  C   UNL     1      -3.058   4.753   5.842  0.00  0.00    +0.008 A 
ATOM     36  C   UNL     1      -4.020   4.284   4.946  0.00  0.00    -0.024 A 
ATOM     37  C   UNL     1      -4.870   3.245   5.325  0.00  0.00    +0.008 A 
ATOM     38  C   UNL     1      -4.748   2.679   6.577  0.00  0.00    +0.001 A 
ENDBRANCH  31  36
ENDBRANCH  28  32
ENDBRANCH  26  28
ENDBRANCH   1  26
TORSDOF 8
