REMARK  Name = ZINC24945945
REMARK  5 active torsions:
REMARK  status: ('A' for Active; 'I' for Inactive)
REMARK    1  A    between atoms: C_4  and  C_7
REMARK    2  A    between atoms: N_16  and  C_17
REMARK    3  A    between atoms: C_17  and  C_18
REMARK    4  A    between atoms: C_27  and  S_29
REMARK    5  A    between atoms: S_29  and  N_32
REMARK                            x       y       z     vdW  Elec       q    Type
REMARK                         _______ _______ _______ _____ _____    ______ ____
ROOT
ATOM      1  C   UNL     1      -7.484  -3.960   0.404  0.00  0.00    +0.020 C 
ENDROOT
BRANCH   1   2
ATOM      2  C   UNL     1      -8.495  -3.043  -0.234  0.00  0.00    +0.203 C 
ATOM      3  O   UNL     1      -9.583  -2.889   0.279  0.00  0.00    -0.277 OA
ATOM      4  N   UNL     1      -8.189  -2.393  -1.374  0.00  0.00    -0.272 N 
ATOM      5  C   UNL     1      -6.912  -2.497  -2.085  0.00  0.00    +0.118 C 
ATOM      6  C   UNL     1      -7.055  -1.579  -3.309  0.00  0.00    +0.056 C 
ATOM      7  C   UNL     1      -8.450  -1.005  -3.194  0.00  0.00    -0.023 A 
ATOM      8  C   UNL     1      -9.045  -1.520  -2.053  0.00  0.00    +0.040 A 
ATOM      9  C   UNL     1     -10.348  -1.131  -1.734  0.00  0.00    +0.026 A 
ATOM     10  C   UNL     1     -11.028  -0.248  -2.546  0.00  0.00    +0.030 A 
ATOM     11  C   UNL     1     -10.425   0.259  -3.682  0.00  0.00    +0.105 A 
ATOM     12  C   UNL     1      -9.137  -0.125  -4.007  0.00  0.00    +0.034 A 
BRANCH  11  13
ATOM     13  S   UNL     1     -11.298   1.387  -4.717  0.00  0.00    +0.056 S 
ATOM     14  O   UNL     1     -12.682   1.158  -4.490  0.00  0.00    -0.153 OA
ATOM     15  O   UNL     1     -10.712   1.290  -6.008  0.00  0.00    -0.153 OA
BRANCH  13  16
ATOM     16  N   UNL     1     -10.973   2.913  -4.162  0.00  0.00    -0.204 NA
ATOM     17  H   UNL     1     -11.503   3.649  -4.784  0.00  0.00    +0.144 HD
ATOM     18  H   UNL     1      -9.891   3.099  -4.213  0.00  0.00    +0.144 HD
ENDBRANCH  13  16
ENDBRANCH  11  13
ENDBRANCH   1   2
BRANCH   1  27
ATOM     19  C   UNL     1      -9.166  -5.314   1.499  0.00  0.00    -0.005 C 
ATOM     20  C   UNL     1      -9.673  -5.761   2.867  0.00  0.00    -0.047 A 
ATOM     21  C   UNL     1     -10.503  -6.861   3.066  0.00  0.00    +0.010 A 
ATOM     22  C   UNL     1     -10.905  -7.188   4.316  0.00  0.00    +0.045 A 
ATOM     23  S   UNL     1     -10.111  -5.926   5.301  0.00  0.00    -0.101 S 
ATOM     24  C   UNL     1      -9.310  -5.063   3.979  0.00  0.00    -0.010 A 
ATOM     25  C   UNL     1      -8.435  -3.853   4.027  0.00  0.00    +0.024 C 
ATOM     26  C   UNL     1      -8.299  -3.316   2.592  0.00  0.00    -0.072 C 
ATOM     27  N   UNL     1      -8.002  -4.440   1.692  0.00  0.00    +0.393 N 
ATOM     28  H   UNL     1      -7.220  -5.045   2.175  0.00  0.00    -0.080 HD
BRANCH  19  32
ATOM     29  C   UNL     1      -8.025  -8.733  -0.794  0.00  0.00    +0.000 A 
ATOM     30  C   UNL     1      -9.244  -8.122  -1.024  0.00  0.00    +0.000 A 
ATOM     31  C   UNL     1      -9.613  -7.015  -0.282  0.00  0.00    +0.002 A 
ATOM     32  C   UNL     1      -8.764  -6.520   0.690  0.00  0.00    -0.057 A 
ATOM     33  C   UNL     1      -7.543  -7.128   0.916  0.00  0.00    +0.002 A 
ATOM     34  C   UNL     1      -7.176  -8.238   0.177  0.00  0.00    +0.000 A 
ENDBRANCH  19  32
ENDBRANCH   1  27
TORSDOF 5
