REMARK  Name = ZINC18179839
REMARK  11 active torsions:
REMARK  status: ('A' for Active; 'I' for Inactive)
REMARK    1  A    between atoms: C_1  and  C_2
REMARK    2  A    between atoms: C_5  and  N_8
REMARK    3  A    between atoms: C_9  and  O_40
REMARK    4  A    between atoms: C_10  and  C_14
REMARK    5  A    between atoms: C_11  and  C_13
REMARK    6  A    between atoms: C_14  and  C_16
REMARK    7  A    between atoms: C_14  and  C_25
REMARK    8  A    between atoms: C_21  and  N_22
REMARK    9  A    between atoms: C_27  and  C_39
REMARK   10  A    between atoms: N_29  and  C_32
REMARK   11  A    between atoms: C_35  and  C_38
REMARK                            x       y       z     vdW  Elec       q    Type
REMARK                         _______ _______ _______ _____ _____    ______ ____
ROOT
ATOM      1  C   UNL     1       0.456   3.846   1.901  0.00  0.00    +0.076 C 
ENDROOT
BRANCH   1   2
ATOM      2  C   UNL     1      -1.047   3.567   1.835  0.00  0.00    +0.135 C 
ATOM      3  C   UNL     1      -1.329   2.374   0.946  0.00  0.00    +0.047 C 
ATOM      4  N   UNL     1      -1.882   1.484   1.675  0.00  0.00    -0.181 NA
ATOM      5  N   UNL     1      -2.045   1.885   2.998  0.00  0.00    -0.160 N 
ATOM      6  C   UNL     1      -1.572   3.134   3.190  0.00  0.00    +0.249 C 
ATOM      7  O   UNL     1      -1.565   3.770   4.223  0.00  0.00    -0.273 OA
ATOM      8  C   UNL     1      -1.010   2.256  -0.522  0.00  0.00    +0.063 C 
BRANCH   5   9
ATOM      9  C   UNL     1      -2.625   1.095   3.998  0.00  0.00    +0.060 A 
ATOM     10  C   UNL     1      -2.739   1.584   5.293  0.00  0.00    +0.026 A 
ATOM     11  C   UNL     1      -3.315   0.804   6.276  0.00  0.00    +0.005 A 
ATOM     12  C   UNL     1      -3.769  -0.466   5.975  0.00  0.00    -0.050 A 
ATOM     13  C   UNL     1      -3.654  -0.959   4.688  0.00  0.00    +0.005 A 
ATOM     14  C   UNL     1      -3.083  -0.182   3.699  0.00  0.00    +0.026 A 
ATOM     15  C   UNL     1      -4.392  -1.317   7.052  0.00  0.00    +0.044 C 
ENDBRANCH   5   9
ENDBRANCH   1   2
BRANCH   1  18
ATOM     16  N   UNL     1       0.764   7.083   3.574  0.00  0.00    -0.200 N 
ATOM     17  C   UNL     1       0.359   6.323   2.522  0.00  0.00    +0.220 A 
ATOM     18  C   UNL     1       0.708   5.036   2.790  0.00  0.00    +0.045 A 
ATOM     19  C   UNL     1       1.335   5.013   4.040  0.00  0.00    +0.068 A 
ATOM     20  N   UNL     1       1.374   6.234   4.507  0.00  0.00    -0.168 NA
ATOM     21  C   UNL     1       1.878   3.788   4.730  0.00  0.00    +0.068 C 
BRANCH  16  26
ATOM     22  C   UNL     1       0.097  12.695   4.096  0.00  0.00    +0.044 C 
ATOM     23  C   UNL     1       0.274  11.205   3.958  0.00  0.00    -0.050 A 
ATOM     24  C   UNL     1       0.193  10.394   5.075  0.00  0.00    +0.005 A 
ATOM     25  C   UNL     1       0.355   9.028   4.951  0.00  0.00    +0.028 A 
ATOM     26  C   UNL     1       0.599   8.469   3.703  0.00  0.00    +0.069 A 
ATOM     27  C   UNL     1       0.685   9.287   2.585  0.00  0.00    +0.028 A 
ATOM     28  C   UNL     1       0.517  10.652   2.714  0.00  0.00    +0.005 A 
ENDBRANCH  16  26
BRANCH  17  29
ATOM     29  O   UNL     1      -0.276   6.767   1.408  0.00  0.00    -0.492 OA
ATOM     30  H   UNL     1      -1.240   6.766   1.478  0.00  0.00    +0.294 HD
ENDBRANCH  17  29
ENDBRANCH   1  18
BRANCH   1  31
ATOM     31  C   UNL     1       0.976   4.134   0.516  0.00  0.00    -0.008 A 
ATOM     32  C   UNL     1       0.166   4.770  -0.407  0.00  0.00    +0.006 A 
ATOM     33  C   UNL     1       0.643   5.035  -1.677  0.00  0.00    +0.000 A 
ATOM     34  C   UNL     1       1.929   4.665  -2.024  0.00  0.00    +0.002 A 
ATOM     35  C   UNL     1       2.738   4.029  -1.101  0.00  0.00    +0.033 A 
ATOM     36  C   UNL     1       2.263   3.768   0.171  0.00  0.00    +0.130 A 
BRANCH  36  37
ATOM     37  N   UNL     1       3.131   3.093   1.161  0.00  0.00    +0.057 N 
ATOM     38  O   UNL     1       4.308   2.905   0.911  0.00  0.00    -0.126 OA
ATOM     39  O   UNL     1       2.669   2.726   2.227  0.00  0.00    -0.126 OA
ENDBRANCH  36  37
ENDBRANCH   1  31
TORSDOF 7
