REMARK  Name = ZINC39687412
REMARK  6 active torsions:
REMARK  status: ('A' for Active; 'I' for Inactive)
REMARK    1  A    between atoms: C_1  and  C_2
REMARK    2  A    between atoms: C_2  and  C_4
REMARK    3  A    between atoms: C_2  and  O_32
REMARK    4  A    between atoms: C_8  and  C_17
REMARK    5  A    between atoms: N_19  and  C_20
REMARK    6  A    between atoms: O_32  and  C_33
REMARK                            x       y       z     vdW  Elec       q    Type
REMARK                         _______ _______ _______ _____ _____    ______ ____
ROOT
ATOM      1  C   UNL     1       0.593  -0.942   1.093  0.00  0.00    +0.256 C 
ATOM      2  O   UNL     1      -0.147  -1.346   1.964  0.00  0.00    -0.272 OA
ATOM      3  N   UNL     1       1.900  -0.745   1.356  0.00  0.00    -0.297 N 
ATOM      4  C   UNL     1       2.964  -0.326   0.413  0.00  0.00    +0.121 C 
ATOM      5  C   UNL     1       3.842   0.652   1.224  0.00  0.00    +0.100 C 
ATOM      6  C   UNL     1       3.600   0.270   2.694  0.00  0.00    -0.004 C 
ATOM      7  C   UNL     1       2.598  -0.892   2.656  0.00  0.00    +0.115 C 
ATOM      8  C   UNL     1       3.002   1.450   3.454  0.00  0.00    -0.010 C 
ATOM      9  C   UNL     1       2.823   1.065   4.926  0.00  0.00    -0.082 C 
ATOM     10  N   UNL     1       4.123   0.696   5.498  0.00  0.00    +0.379 N 
ATOM     11  C   UNL     1       4.649  -0.496   4.822  0.00  0.00    -0.082 C 
ATOM     12  C   UNL     1       4.904  -0.177   3.346  0.00  0.00    -0.010 C 
ATOM     13  H   UNL     1       4.770   1.461   5.380  0.00  0.00    -0.086 HD
ATOM     14  H   UNL     1       4.013   0.502   6.482  0.00  0.00    -0.086 HD
ENDROOT
BRANCH   5  15
ATOM     15  C   UNL     1       3.414   2.075   0.971  0.00  0.00    +0.218 C 
ATOM     16  O   UNL     1       2.237   2.342   0.854  0.00  0.00    -0.275 OA
ATOM     17  N   UNL     1       4.340   3.050   0.876  0.00  0.00    -0.312 N 
ATOM     18  H   UNL     1       5.281   2.836   0.970  0.00  0.00    +0.149 HD
BRANCH  17  19
ATOM     19  C   UNL     1       3.923   4.433   0.631  0.00  0.00    +0.076 C 
ATOM     20  C   UNL     1       3.747   4.653  -0.874  0.00  0.00    +0.041 C 
ATOM     21  C   UNL     1       3.279   6.090  -1.124  0.00  0.00    +0.108 C 
ATOM     22  N   UNL     1       4.226   7.014  -0.486  0.00  0.00    -0.317 N 
ATOM     23  C   UNL     1       4.537   6.835   0.939  0.00  0.00    +0.108 C 
ATOM     24  C   UNL     1       4.991   5.390   1.166  0.00  0.00    +0.041 C 
ATOM     25  C   UNL     1       4.817   8.039  -1.216  0.00  0.00    +0.099 A 
ATOM     26  C   UNL     1       5.806   8.822  -0.630  0.00  0.00    +0.042 A 
ATOM     27  C   UNL     1       6.386   9.837  -1.368  0.00  0.00    +0.005 A 
ATOM     28  C   UNL     1       5.955  10.037  -2.673  0.00  0.00    +0.018 A 
ATOM     29  C   UNL     1       4.969   9.223  -3.192  0.00  0.00    +0.084 A 
ATOM     30  N   UNL     1       4.437   8.257  -2.466  0.00  0.00    -0.350 N 
ATOM     31  H   UNL     1       3.748   7.696  -2.856  0.00  0.00    +0.166 HD
ENDBRANCH  17  19
ENDBRANCH   5  15
BRANCH   1  33
ATOM     32  C   UNL     1       0.069   0.850  -0.540  0.00  0.00    +0.062 C 
ATOM     33  C   UNL     1       0.051  -0.658  -0.285  0.00  0.00    +0.256 C 
BRANCH  33  34
ATOM     34  O   UNL     1      -1.291  -1.141  -0.377  0.00  0.00    -0.480 OA
BRANCH  34  35
ATOM     35  C   UNL     1      -1.763  -1.417  -1.621  0.00  0.00    +0.122 A 
ATOM     36  C   UNL     1      -0.966  -1.190  -2.733  0.00  0.00    +0.045 A 
ATOM     37  C   UNL     1      -1.448  -1.472  -3.997  0.00  0.00    +0.004 A 
ATOM     38  C   UNL     1      -2.724  -1.980  -4.153  0.00  0.00    +0.000 A 
ATOM     39  C   UNL     1      -3.521  -2.207  -3.046  0.00  0.00    +0.004 A 
ATOM     40  C   UNL     1      -3.041  -1.932  -1.780  0.00  0.00    +0.045 A 
ENDBRANCH  34  35
ENDBRANCH  33  34
ENDBRANCH   1  33
TORSDOF 5
