REMARK  Name = ZINC08672640
REMARK  14 active torsions:
REMARK  status: ('A' for Active; 'I' for Inactive)
REMARK    1  A    between atoms: C_1  and  C_2
REMARK    2  A    between atoms: C_6  and  C_14
REMARK    3  A    between atoms: C_7  and  O_13
REMARK    4  A    between atoms: C_11  and  C_12
REMARK    5  A    between atoms: C_14  and  C_16
REMARK    6  A    between atoms: C_14  and  N_70
REMARK    7  A    between atoms: N_20  and  C_21
REMARK    8  A    between atoms: C_21  and  C_22
REMARK    9  A    between atoms: C_21  and  C_23
REMARK   10  A    between atoms: C_21  and  C_24
REMARK   11  A    between atoms: C_25  and  C_26
REMARK   12  A    between atoms: C_25  and  N_70
REMARK   13  A    between atoms: C_31  and  C_32
REMARK   14  A    between atoms: C_31  and  N_70
REMARK                            x       y       z     vdW  Elec       q    Type
REMARK                         _______ _______ _______ _____ _____    ______ ____
ROOT
ATOM      1  C   UNL     1       4.154  -0.868  -0.391  0.00  0.00    +0.039 C 
ENDROOT
BRANCH   1   7
ATOM      2  C   UNL     1      -1.122   3.194   2.880  0.00  0.00    +0.044 C 
ATOM      3  C   UNL     1      -0.088   2.995   1.802  0.00  0.00    -0.047 A 
ATOM      4  C   UNL     1       0.645   1.847   1.776  0.00  0.00    +0.013 A 
ATOM      5  C   UNL     1       1.608   1.661   0.773  0.00  0.00    +0.001 A 
ATOM      6  C   UNL     1       2.385   0.487   0.713  0.00  0.00    +0.017 A 
ATOM      7  C   UNL     1       3.302   0.370  -0.289  0.00  0.00    +0.008 A 
ATOM      8  C   UNL     1       3.451   1.403  -1.222  0.00  0.00    +0.215 A 
ATOM      9  N   UNL     1       2.723   2.497  -1.162  0.00  0.00    -0.213 NA
ATOM     10  C   UNL     1       1.807   2.669  -0.202  0.00  0.00    +0.075 A 
ATOM     11  C   UNL     1       1.028   3.837  -0.146  0.00  0.00    +0.032 A 
ATOM     12  C   UNL     1       0.106   3.988   0.844  0.00  0.00    -0.045 A 
ATOM     13  C   UNL     1      -0.721   5.246   0.902  0.00  0.00    +0.044 C 
BRANCH   8  14
ATOM     14  O   UNL     1       4.368   1.273  -2.212  0.00  0.00    -0.492 OA
ATOM     15  H   UNL     1       5.221   1.685  -2.016  0.00  0.00    +0.294 HD
ENDBRANCH   8  14
ENDBRANCH   1   7
BRANCH   1  16
ATOM     16  C   UNL     1       4.169  -1.580   0.937  0.00  0.00    +0.143 A 
ATOM     17  N   UNL     1       4.559  -1.084   2.086  0.00  0.00    -0.115 NA
ATOM     18  N   UNL     1       4.419  -1.998   2.983  0.00  0.00    -0.023 NA
ATOM     19  N   UNL     1       3.957  -3.067   2.434  0.00  0.00    -0.043 NA
ATOM     20  N   UNL     1       3.790  -2.849   1.174  0.00  0.00    -0.225 N 
BRANCH  20  21
ATOM     21  C   UNL     1       3.282  -3.804   0.185  0.00  0.00    +0.059 C 
ATOM     22  C   UNL     1       4.335  -4.019  -0.904  0.00  0.00    +0.036 C 
ATOM     23  C   UNL     1       2.978  -5.136   0.872  0.00  0.00    +0.036 C 
ATOM     24  C   UNL     1       2.001  -3.252  -0.446  0.00  0.00    +0.036 C 
ENDBRANCH  20  21
ENDBRANCH   1  16
BRANCH   1  25
ATOM     25  N   UNL     1       5.524  -0.469  -0.779  0.00  0.00    +0.396 N 
ATOM     26  H   UNL     1       5.467   0.282  -1.476  0.00  0.00    -0.080 HD
BRANCH  25  27
ATOM     27  C   UNL     1       6.237  -1.621  -1.371  0.00  0.00    -0.002 C 
BRANCH  27  28
ATOM     28  C   UNL     1       7.557  -1.146  -1.921  0.00  0.00    +0.089 A 
ATOM     29  C   UNL     1       8.741  -1.205  -1.286  0.00  0.00    +0.042 A 
ATOM     30  C   UNL     1       9.705  -0.656  -2.163  0.00  0.00    +0.041 A 
ATOM     31  C   UNL     1       9.050  -0.286  -3.278  0.00  0.00    +0.195 A 
ATOM     32  O   UNL     1       7.750  -0.585  -3.126  0.00  0.00    -0.470 OA
ENDBRANCH  27  28
ENDBRANCH  25  27
BRANCH  25  33
ATOM     33  C   UNL     1       6.259   0.027   0.403  0.00  0.00    -0.045 C 
BRANCH  33  34
ATOM     34  C   UNL     1       5.725   1.413   0.768  0.00  0.00    +0.102 C 
ATOM     35  C   UNL     1       6.696   2.127   1.734  0.00  0.00    +0.032 C 
ATOM     36  C   UNL     1       5.767   2.893   2.702  0.00  0.00    +0.030 C 
ATOM     37  C   UNL     1       4.344   2.552   2.206  0.00  0.00    +0.160 C 
ATOM     38  O   UNL     1       4.489   1.297   1.506  0.00  0.00    -0.378 OA
ENDBRANCH  33  34
ENDBRANCH  25  33
ENDBRANCH   1  25
TORSDOF 9
