REMARK  Name = ZINC64289643
REMARK  4 active torsions:
REMARK  status: ('A' for Active; 'I' for Inactive)
REMARK    1  A    between atoms: C_3  and  N_11
REMARK    2  A    between atoms: C_5  and  N_7
REMARK    3  A    between atoms: C_12  and  C_14
REMARK    4  A    between atoms: C_14  and  C_20
REMARK                            x       y       z     vdW  Elec       q    Type
REMARK                         _______ _______ _______ _____ _____    ______ ____
ROOT
ATOM      1  N   UNL     1       3.328   2.349  -0.209  0.00  0.00    -0.285 N 
ATOM      2  C   UNL     1       3.585   3.670  -0.284  0.00  0.00    +0.228 C 
ATOM      3  O   UNL     1       2.698   4.445  -0.574  0.00  0.00    -0.275 OA
ATOM      4  H   UNL     1       4.050   1.723  -0.044  0.00  0.00    +0.155 HD
ENDROOT
BRANCH   1   7
ATOM      5  C   UNL     1      -0.342   2.159  -0.035  0.00  0.00    +0.004 A 
ATOM      6  C   UNL     1       0.951   2.621   0.123  0.00  0.00    +0.023 A 
ATOM      7  C   UNL     1       2.019   1.881  -0.369  0.00  0.00    +0.035 A 
ATOM      8  C   UNL     1       1.786   0.678  -1.021  0.00  0.00    +0.046 A 
ATOM      9  C   UNL     1       0.487   0.218  -1.178  0.00  0.00    +0.037 A 
ATOM     10  C   UNL     1      -0.577   0.962  -0.683  0.00  0.00    +0.023 A 
BRANCH   9  11
ATOM     11  N   UNL     1       0.248  -0.995  -1.835  0.00  0.00    -0.270 N 
ATOM     12  C   UNL     1       1.138  -2.002  -1.734  0.00  0.00    +0.301 C 
ATOM     13  O   UNL     1       2.097  -1.894  -0.995  0.00  0.00    -0.253 OA
ATOM     14  N   UNL     1       0.965  -3.128  -2.454  0.00  0.00    -0.313 N 
ATOM     15  H   UNL     1      -0.557  -1.110  -2.362  0.00  0.00    +0.156 HD
ATOM     16  H   UNL     1       0.199  -3.214  -3.043  0.00  0.00    +0.146 HD
ATOM     17  H   UNL     1       1.605  -3.853  -2.381  0.00  0.00    +0.146 HD
ENDBRANCH   9  11
ENDBRANCH   1   7
BRANCH   2  18
ATOM     18  C   UNL     1       4.975   4.184  -0.009  0.00  0.00    +0.072 C 
ATOM     19  C   UNL     1       5.506   3.552   1.279  0.00  0.00    +0.021 C 
ATOM     20  C   UNL     1       4.586   3.919   2.445  0.00  0.00    +0.001 C 
ATOM     21  C   UNL     1       4.545   5.440   2.603  0.00  0.00    +0.000 C 
ATOM     22  C   UNL     1       4.014   6.072   1.315  0.00  0.00    +0.001 C 
ATOM     23  C   UNL     1       4.934   5.705   0.149  0.00  0.00    +0.021 C 
BRANCH  18  24
ATOM     24  C   UNL     1       5.881   3.823  -1.158  0.00  0.00    -0.029 A 
ATOM     25  C   UNL     1       6.411   4.818  -1.958  0.00  0.00    +0.008 A 
ATOM     26  C   UNL     1       7.243   4.491  -3.012  0.00  0.00    +0.050 A 
ATOM     27  C   UNL     1       7.548   3.165  -3.270  0.00  0.00    +0.166 A 
ATOM     28  C   UNL     1       7.014   2.162  -2.464  0.00  0.00    +0.167 A 
ATOM     29  C   UNL     1       6.185   2.497  -1.405  0.00  0.00    +0.054 A 
ATOM     30  O   UNL     1       7.459   0.954  -2.918  0.00  0.00    -0.453 OA
ATOM     31  C   UNL     1       7.939   1.198  -4.253  0.00  0.00    +0.466 C 
ATOM     32  O   UNL     1       8.327   2.585  -4.229  0.00  0.00    -0.453 OA
ENDBRANCH  18  24
ENDBRANCH   2  18
TORSDOF 4
