REMARK  Name = ZINC34122853
REMARK  1 active torsions:
REMARK  status: ('A' for Active; 'I' for Inactive)
REMARK    1  A    between atoms: N_4  and  C_6
REMARK                            x       y       z     vdW  Elec       q    Type
REMARK                         _______ _______ _______ _____ _____    ______ ____
ROOT
ATOM      1  C   UNL     1      -0.016   1.342   0.009  0.00  0.00    +0.020 A 
ATOM      2  C   UNL     1       1.323   1.786  -0.001  0.00  0.00    +0.020 A 
ATOM      3  C   UNL     1       2.113   0.696  -0.014  0.00  0.00    +0.095 A 
ATOM      4  N   UNL     1       1.309  -0.413  -0.013  0.00  0.00    -0.285 N 
ATOM      5  C   UNL     1       0.002  -0.004   0.002  0.00  0.00    +0.095 A 
ENDROOT
BRANCH   4   6
ATOM      6  C   UNL     1       1.733  -1.693  -0.024  0.00  0.00    +0.301 C 
ATOM      7  S   UNL     1       0.858  -2.892   0.829  0.00  0.00    +0.014 S 
ATOM      8  O   UNL     1       2.845  -2.028  -0.705  0.00  0.00    -0.259 OA
ENDBRANCH   4   6
TORSDOF 1
