REMARK  Name = ZINC59461418
REMARK  14 active torsions:
REMARK  status: ('A' for Active; 'I' for Inactive)
REMARK    1  A    between atoms: C_1  and  C_2
REMARK    2  A    between atoms: C_7  and  N_8
REMARK    3  A    between atoms: N_8  and  C_9
REMARK    4  A    between atoms: C_9  and  N_11
REMARK    5  A    between atoms: N_11  and  C_12
REMARK    6  A    between atoms: C_12  and  C_13
REMARK    7  A    between atoms: C_13  and  C_33
REMARK    8  A    between atoms: C_15  and  N_22
REMARK    9  A    between atoms: C_18  and  C_20
REMARK   10  A    between atoms: C_18  and  C_21
REMARK   11  A    between atoms: N_22  and  C_23
REMARK   12  A    between atoms: C_23  and  N_25
REMARK   13  A    between atoms: N_25  and  C_26
REMARK   14  A    between atoms: C_31  and  C_32
REMARK                            x       y       z     vdW  Elec       q    Type
REMARK                         _______ _______ _______ _____ _____    ______ ____
ROOT
ATOM      1  C   UNL     1      -0.055  -0.142   7.703  0.00  0.00    -0.014 C 
ATOM      2  C   UNL     1       1.042   0.892   7.471  0.00  0.00    +0.030 C 
ATOM      3  C   UNL     1       1.245   1.754   8.715  0.00  0.00    +0.073 C 
ATOM      4  C   UNL     1       1.683   0.858   9.870  0.00  0.00    +0.028 C 
ATOM      5  C   UNL     1       0.611  -0.178  10.189  0.00  0.00    -0.033 C 
ATOM      6  C   UNL     1       0.168  -0.956   8.964  0.00  0.00    +0.014 C 
ATOM      7  C   UNL     1      -0.580   0.495  10.876  0.00  0.00    +0.011 C 
ATOM      8  C   UNL     1       1.216  -1.182  11.196  0.00  0.00    +0.011 C 
ATOM      9  C   UNL     1      -1.424   0.543   7.723  0.00  0.00    +0.013 C 
ENDROOT
BRANCH   3  10
ATOM     10  N   UNL     1       2.298   2.743   8.447  0.00  0.00    -0.323 N 
ATOM     11  H   UNL     1       2.972   2.563   7.773  0.00  0.00    +0.148 HD
BRANCH  10  12
ATOM     12  C   UNL     1       2.328   3.899   9.138  0.00  0.00    +0.135 C 
ATOM     13  S   UNL     1       1.138   4.216  10.328  0.00  0.00    -0.019 S 
BRANCH  12  14
ATOM     14  N   UNL     1       3.294   4.807   8.893  0.00  0.00    -0.297 N 
ATOM     15  H   UNL     1       3.927   4.658   8.173  0.00  0.00    +0.154 HD
BRANCH  14  16
ATOM     16  C   UNL     1       3.384   5.962   9.676  0.00  0.00    +0.036 A 
ATOM     17  C   UNL     1       2.244   6.707   9.951  0.00  0.00    +0.023 A 
ATOM     18  C   UNL     1       2.336   7.847  10.725  0.00  0.00    +0.002 A 
ATOM     19  C   UNL     1       3.561   8.248  11.226  0.00  0.00    +0.000 A 
ATOM     20  C   UNL     1       4.697   7.508  10.954  0.00  0.00    +0.005 A 
ATOM     21  C   UNL     1       4.611   6.364  10.185  0.00  0.00    -0.029 A 
ATOM     22  C   UNL     1       5.850   5.556   9.895  0.00  0.00    +0.045 C 
ENDBRANCH  14  16
ENDBRANCH  12  14
ENDBRANCH  10  12
ENDBRANCH   3  10
BRANCH   1  23
ATOM     23  C   UNL     1      -0.044  -1.113   6.501  0.00  0.00    +0.110 C 
BRANCH  23  24
ATOM     24  N   UNL     1      -0.256  -0.359   5.263  0.00  0.00    -0.326 N 
ATOM     25  H   UNL     1      -0.376   0.603   5.295  0.00  0.00    +0.148 HD
BRANCH  24  26
ATOM     26  C   UNL     1      -0.286  -1.003   4.079  0.00  0.00    +0.135 C 
ATOM     27  S   UNL     1      -0.074  -2.701   4.022  0.00  0.00    -0.019 S 
BRANCH  26  28
ATOM     28  N   UNL     1      -0.481  -0.309   2.940  0.00  0.00    -0.297 N 
ATOM     29  H   UNL     1      -0.535   0.659   2.964  0.00  0.00    +0.154 HD
BRANCH  28  36
ATOM     30  C   UNL     1      -2.614   0.429   1.206  0.00  0.00    +0.045 C 
ATOM     31  C   UNL     1      -1.633  -0.658   0.846  0.00  0.00    -0.029 A 
ATOM     32  C   UNL     1      -1.751  -1.324  -0.358  0.00  0.00    +0.005 A 
ATOM     33  C   UNL     1      -0.852  -2.321  -0.690  0.00  0.00    +0.000 A 
ATOM     34  C   UNL     1       0.168  -2.654   0.183  0.00  0.00    +0.002 A 
ATOM     35  C   UNL     1       0.291  -1.992   1.389  0.00  0.00    +0.023 A 
ATOM     36  C   UNL     1      -0.607  -0.986   1.722  0.00  0.00    +0.036 A 
ENDBRANCH  28  36
ENDBRANCH  26  28
ENDBRANCH  24  26
ENDBRANCH  23  24
ENDBRANCH   1  23
TORSDOF 9
