REMARK  Name = ZINC20923661
REMARK  7 active torsions:
REMARK  status: ('A' for Active; 'I' for Inactive)
REMARK    1  A    between atoms: C_4  and  N_7
REMARK    2  A    between atoms: N_7  and  C_8
REMARK    3  A    between atoms: N_7  and  S_20
REMARK    4  A    between atoms: C_8  and  C_9
REMARK    5  A    between atoms: N_11  and  C_12
REMARK    6  A    between atoms: S_20  and  C_23
REMARK    7  A    between atoms: C_27  and  N_29
REMARK                            x       y       z     vdW  Elec       q    Type
REMARK                         _______ _______ _______ _____ _____    ______ ____
ROOT
ATOM      1  N   UNL     1      -1.666  -1.226  -1.308  0.00  0.00    -0.194 N 
ENDROOT
BRANCH   1   5
ATOM      2  C   UNL     1      -3.924   2.131  -2.293  0.00  0.00    +0.000 A 
ATOM      3  C   UNL     1      -4.244   1.390  -1.171  0.00  0.00    +0.002 A 
ATOM      4  C   UNL     1      -3.497   0.276  -0.841  0.00  0.00    +0.025 A 
ATOM      5  C   UNL     1      -2.423  -0.100  -1.638  0.00  0.00    +0.052 A 
ATOM      6  C   UNL     1      -2.101   0.650  -2.762  0.00  0.00    +0.025 A 
ATOM      7  C   UNL     1      -2.856   1.760  -3.089  0.00  0.00    +0.002 A 
ENDBRANCH   1   5
BRANCH   1   8
ATOM      8  S   UNL     1      -0.886  -1.300   0.152  0.00  0.00    +0.075 S 
ATOM      9  O   UNL     1      -0.811  -2.675   0.503  0.00  0.00    -0.150 OA
ATOM     10  O   UNL     1      -1.502  -0.332   0.990  0.00  0.00    -0.150 OA
BRANCH   8  11
ATOM     11  C   UNL     1       0.769  -0.756  -0.114  0.00  0.00    +0.111 A 
ATOM     12  C   UNL     1       1.750  -1.670  -0.453  0.00  0.00    +0.030 A 
ATOM     13  C   UNL     1       3.048  -1.244  -0.661  0.00  0.00    +0.024 A 
ATOM     14  C   UNL     1       3.366   0.096  -0.530  0.00  0.00    +0.071 A 
ATOM     15  C   UNL     1       2.384   1.009  -0.191  0.00  0.00    +0.146 A 
ATOM     16  C   UNL     1       1.086   0.583   0.017  0.00  0.00    +0.063 A 
ATOM     17 CL   UNL     1       4.997   0.631  -0.790  0.00  0.00    -0.081 Cl
BRANCH  15  18
ATOM     18  N   UNL     1       2.723   2.443  -0.052  0.00  0.00    +0.058 N 
ATOM     19  O   UNL     1       1.858   3.247   0.246  0.00  0.00    -0.126 OA
ATOM     20  O   UNL     1       3.867   2.819  -0.235  0.00  0.00    -0.126 OA
ENDBRANCH  15  18
ENDBRANCH   8  11
ENDBRANCH   1   8
BRANCH   1  21
ATOM     21  C   UNL     1      -1.561  -2.341  -2.252  0.00  0.00    +0.227 C 
BRANCH  21  22
ATOM     22  C   UNL     1      -2.740  -3.262  -2.075  0.00  0.00    +0.236 C 
ATOM     23  O   UNL     1      -3.586  -3.011  -1.242  0.00  0.00    -0.274 OA
ATOM     24  N   UNL     1      -2.856  -4.364  -2.842  0.00  0.00    -0.284 N 
ATOM     25  H   UNL     1      -2.051  -4.634  -3.541  0.00  0.00    +0.155 HD
BRANCH  24  26
ATOM     26  C   UNL     1      -4.001  -5.164  -2.749  0.00  0.00    +0.036 A 
ATOM     27  C   UNL     1      -3.908  -6.536  -2.942  0.00  0.00    +0.026 A 
ATOM     28  C   UNL     1      -5.036  -7.326  -2.845  0.00  0.00    +0.043 A 
ATOM     29  C   UNL     1      -6.264  -6.750  -2.566  0.00  0.00    +0.159 A 
ATOM     30  C   UNL     1      -6.362  -5.380  -2.378  0.00  0.00    +0.160 A 
ATOM     31  C   UNL     1      -5.232  -4.587  -2.469  0.00  0.00    +0.064 A 
ATOM     32  F   UNL     1      -7.560  -4.819  -2.105  0.00  0.00    -0.202 F 
ATOM     33  F   UNL     1      -7.368  -7.524  -2.476  0.00  0.00    -0.202 F 
ENDBRANCH  24  26
ENDBRANCH  21  22
ENDBRANCH   1  21
TORSDOF 7
