REMARK  Name = ZINC35636166
REMARK  7 active torsions:
REMARK  status: ('A' for Active; 'I' for Inactive)
REMARK    1  A    between atoms: C_1  and  C_2
REMARK    2  A    between atoms: C_5  and  C_8
REMARK    3  A    between atoms: N_13  and  C_16
REMARK    4  A    between atoms: C_16  and  C_18
REMARK    5  A    between atoms: C_16  and  C_24
REMARK    6  A    between atoms: N_26  and  C_27
REMARK    7  A    between atoms: N_34  and  C_38
REMARK                            x       y       z     vdW  Elec       q    Type
REMARK                         _______ _______ _______ _____ _____    ______ ____
ROOT
ATOM      1  C   UNL     1       0.190  -4.730  -0.425  0.00  0.00    +0.142 C 
ATOM      2  C   UNL     1      -1.243  -5.174  -0.208  0.00  0.00    +0.058 C 
ATOM      3  C   UNL     1      -1.471  -6.117   0.729  0.00  0.00    +0.042 C 
ATOM      4  C   UNL     1      -2.964  -6.362   0.731  0.00  0.00    +0.160 C 
ATOM      5  N   UNL     1      -3.497  -5.455  -0.297  0.00  0.00    -0.277 N 
ATOM      6  C   UNL     1      -2.453  -4.783  -0.816  0.00  0.00    +0.247 C 
ATOM      7  O   UNL     1      -2.543  -3.946  -1.696  0.00  0.00    -0.270 OA
ATOM      8  N   UNL     1      -0.448  -6.654   1.457  0.00  0.00    -0.260 N 
ATOM      9  C   UNL     1       0.835  -6.300   1.305  0.00  0.00    +0.307 C 
ATOM     10  O   UNL     1       1.678  -6.834   1.999  0.00  0.00    -0.252 OA
ATOM     11  N   UNL     1       1.220  -5.370   0.410  0.00  0.00    -0.288 N 
ATOM     12  C   UNL     1      -0.771  -7.674   2.457  0.00  0.00    +0.139 C 
ATOM     13  H   UNL     1       2.154  -5.128   0.318  0.00  0.00    +0.151 HD
ENDROOT
BRANCH   1  18
ATOM     14  C   UNL     1       0.442   0.971   0.483  0.00  0.00    +0.044 C 
ATOM     15  C   UNL     1       0.376  -0.515   0.246  0.00  0.00    -0.050 A 
ATOM     16  C   UNL     1       0.243  -1.005  -1.040  0.00  0.00    +0.004 A 
ATOM     17  C   UNL     1       0.182  -2.369  -1.257  0.00  0.00    +0.006 A 
ATOM     18  C   UNL     1       0.256  -3.243  -0.189  0.00  0.00    -0.023 A 
ATOM     19  C   UNL     1       0.391  -2.753   1.097  0.00  0.00    +0.006 A 
ATOM     20  C   UNL     1       0.455  -1.390   1.314  0.00  0.00    +0.004 A 
ENDBRANCH   1  18
BRANCH   5  21
ATOM     21  C   UNL     1      -4.903  -5.310  -0.683  0.00  0.00    +0.193 C 
BRANCH  21  22
ATOM     22  C   UNL     1      -5.082  -5.771  -2.107  0.00  0.00    -0.018 A 
ATOM     23  C   UNL     1      -4.518  -6.961  -2.524  0.00  0.00    +0.006 A 
ATOM     24  C   UNL     1      -4.683  -7.384  -3.830  0.00  0.00    +0.000 A 
ATOM     25  C   UNL     1      -5.413  -6.616  -4.718  0.00  0.00    +0.000 A 
ATOM     26  C   UNL     1      -5.978  -5.426  -4.300  0.00  0.00    +0.000 A 
ATOM     27  C   UNL     1      -5.817  -5.005  -2.993  0.00  0.00    +0.006 A 
ENDBRANCH  21  22
BRANCH  21  28
ATOM     28  C   UNL     1      -5.763  -6.147   0.228  0.00  0.00    +0.242 C 
ATOM     29  O   UNL     1      -5.252  -6.801   1.113  0.00  0.00    -0.273 OA
ATOM     30  N   UNL     1      -7.100  -6.170   0.060  0.00  0.00    -0.284 N 
ATOM     31  H   UNL     1      -7.502  -5.706  -0.691  0.00  0.00    +0.155 HD
BRANCH  30  32
ATOM     32  C   UNL     1      -7.908  -6.863   0.969  0.00  0.00    +0.034 A 
ATOM     33  C   UNL     1      -9.069  -7.487   0.532  0.00  0.00    +0.026 A 
ATOM     34  C   UNL     1      -9.865  -8.170   1.430  0.00  0.00    +0.040 A 
ATOM     35  C   UNL     1      -9.507  -8.233   2.766  0.00  0.00    +0.124 A 
ATOM     36  C   UNL     1      -8.350  -7.611   3.204  0.00  0.00    +0.040 A 
ATOM     37  C   UNL     1      -7.548  -6.932   2.308  0.00  0.00    +0.026 A 
ATOM     38  F   UNL     1     -10.287  -8.900   3.643  0.00  0.00    -0.205 F 
ENDBRANCH  30  32
ENDBRANCH  21  28
ENDBRANCH   5  21
TORSDOF 5
