REMARK  Name = ZINC38581246
REMARK  2 active torsions:
REMARK  status: ('A' for Active; 'I' for Inactive)
REMARK    1  A    between atoms: C_1  and  C_2
REMARK    2  A    between atoms: C_4  and  C_24
REMARK                            x       y       z     vdW  Elec       q    Type
REMARK                         _______ _______ _______ _____ _____    ______ ____
ROOT
ATOM      1  C   UNL     1      -0.418   1.570  -0.920  0.00  0.00    +0.062 C 
ATOM      2  C   UNL     1      -0.332   0.066  -0.897  0.00  0.00    +0.022 C 
ATOM      3  C   UNL     1      -1.249  -0.715  -0.401  0.00  0.00    -0.004 C 
ATOM      4  C   UNL     1      -2.496  -0.389   0.386  0.00  0.00    +0.060 C 
ATOM      5  C   UNL     1      -2.329  -1.060   1.756  0.00  0.00    +0.108 C 
ATOM      6  C   UNL     1      -1.668  -2.396   1.643  0.00  0.00    +0.216 C 
ATOM      7  O   UNL     1      -1.827  -3.154   2.576  0.00  0.00    -0.276 OA
ATOM      8  N   UNL     1      -0.925  -2.850   0.633  0.00  0.00    -0.292 N 
ATOM      9  C   UNL     1      -0.818  -2.152  -0.641  0.00  0.00    +0.210 C 
ATOM     10  N   UNL     1       0.560  -2.031  -1.122  0.00  0.00    -0.213 N 
ATOM     11  N   UNL     1       0.731  -0.663  -1.408  0.00  0.00    -0.265 N 
ATOM     12  C   UNL     1       1.467  -3.018  -1.264  0.00  0.00    +0.150 C 
ATOM     13  N   UNL     1       1.171  -4.270  -0.966  0.00  0.00    -0.221 NA
ATOM     14  C   UNL     1       2.042  -5.271  -1.025  0.00  0.00    +0.225 C 
ATOM     15  N   UNL     1       3.354  -5.071  -1.077  0.00  0.00    -0.218 NA
ATOM     16  C   UNL     1       3.748  -3.803  -1.136  0.00  0.00    +0.164 C 
ATOM     17  N   UNL     1       4.787  -3.153  -0.705  0.00  0.00    -0.219 NA
ATOM     18  C   UNL     1       4.564  -1.832  -0.692  0.00  0.00    +0.218 C 
ATOM     19  N   UNL     1       3.441  -1.496  -1.262  0.00  0.00    -0.253 NA
ATOM     20  C   UNL     1       2.855  -2.736  -1.773  0.00  0.00    +0.239 C 
ATOM     21  H   UNL     1      -0.435  -3.679   0.752  0.00  0.00    +0.151 HD
ATOM     22  H   UNL     1       1.484  -0.286  -1.890  0.00  0.00    +0.170 HD
ENDROOT
BRANCH   4  23
ATOM     23  C   UNL     1      -2.629   1.103   0.551  0.00  0.00    -0.021 A 
ATOM     24  C   UNL     1      -1.846   1.768   1.476  0.00  0.00    +0.008 A 
ATOM     25  C   UNL     1      -1.967   3.136   1.628  0.00  0.00    +0.039 A 
ATOM     26  C   UNL     1      -2.872   3.842   0.854  0.00  0.00    +0.125 A 
ATOM     27  C   UNL     1      -3.656   3.176  -0.073  0.00  0.00    +0.058 A 
ATOM     28  C   UNL     1      -3.530   1.808  -0.228  0.00  0.00    +0.047 A 
ATOM     29 CL   UNL     1      -4.508   0.972  -1.394  0.00  0.00    -0.083 Cl
ATOM     30  F   UNL     1      -2.991   5.180   1.003  0.00  0.00    -0.205 F 
ENDBRANCH   4  23
TORSDOF 1
