REMARK  Name = ZINC01087525
REMARK  7 active torsions:
REMARK  status: ('A' for Active; 'I' for Inactive)
REMARK    1  A    between atoms: C_1  and  C_2
REMARK    2  A    between atoms: C_10  and  C_13
REMARK    3  A    between atoms: C_18  and  C_23
REMARK    4  A    between atoms: C_26  and  O_31
REMARK    5  A    between atoms: C_27  and  O_29
REMARK    6  A    between atoms: O_29  and  C_30
REMARK    7  A    between atoms: O_31  and  C_32
REMARK                            x       y       z     vdW  Elec       q    Type
REMARK                         _______ _______ _______ _____ _____    ______ ____
ROOT
ATOM      1  C   UNL     1      -0.013   1.086   0.008  0.00  0.00    +0.143 C 
ATOM      2  C   UNL     1      -0.644   1.412  -1.325  0.00  0.00    +0.037 C 
ATOM      3  C   UNL     1      -1.591   2.335  -1.546  0.00  0.00    +0.017 C 
ATOM      4  C   UNL     1      -2.107   2.587  -2.954  0.00  0.00    +0.059 C 
ATOM      5  C   UNL     1      -2.089   1.287  -3.755  0.00  0.00    +0.032 C 
ATOM      6  C   UNL     1      -0.640   0.789  -3.804  0.00  0.00    +0.088 C 
ATOM      7  C   UNL     1      -0.138   0.637  -2.399  0.00  0.00    +0.163 C 
ATOM      8  O   UNL     1       0.731  -0.181  -2.173  0.00  0.00    -0.292 OA
ATOM      9  N   UNL     1      -2.156   3.113  -0.588  0.00  0.00    -0.316 N 
ATOM     10  C   UNL     1      -1.448   3.803   0.391  0.00  0.00    +0.052 A 
ATOM     11  C   UNL     1      -1.479   5.183   0.489  0.00  0.00    +0.025 A 
ATOM     12  C   UNL     1      -0.841   5.802   1.551  0.00  0.00    +0.002 A 
ATOM     13  C   UNL     1      -0.178   5.048   2.502  0.00  0.00    +0.002 A 
ATOM     14  C   UNL     1      -0.129   3.669   2.393  0.00  0.00    +0.025 A 
ATOM     15  C   UNL     1      -0.753   3.047   1.323  0.00  0.00    +0.049 A 
ATOM     16  N   UNL     1      -0.692   1.666   1.147  0.00  0.00    -0.331 N 
ATOM     17  H   UNL     1      -3.122   3.194  -0.585  0.00  0.00    +0.152 HD
ATOM     18  H   UNL     1      -1.113   1.084   1.799  0.00  0.00    +0.147 HD
ENDROOT
BRANCH   1  28
ATOM     19  C   UNL     1       7.117   1.097   2.452  0.00  0.00    +0.044 C 
ATOM     20  C   UNL     1       6.019   1.610   1.555  0.00  0.00    -0.050 A 
ATOM     21  C   UNL     1       6.292   2.612   0.634  0.00  0.00    +0.007 A 
ATOM     22  C   UNL     1       5.302   3.094  -0.194  0.00  0.00    +0.047 A 
ATOM     23  C   UNL     1       4.015   2.575  -0.112  0.00  0.00    +0.138 A 
ATOM     24  C   UNL     1       3.741   1.561   0.820  0.00  0.00    +0.065 A 
ATOM     25  C   UNL     1       4.751   1.082   1.653  0.00  0.00    +0.018 A 
ATOM     26  C   UNL     1       2.367   1.027   0.888  0.00  0.00    +0.198 A 
ATOM     27  O   UNL     1       2.066   0.146   1.675  0.00  0.00    -0.287 OA
ATOM     28  C   UNL     1       1.410   1.582  -0.003  0.00  0.00    +0.059 A 
ATOM     29  C   UNL     1       1.784   2.549  -0.861  0.00  0.00    +0.205 A 
ATOM     30  O   UNL     1       3.030   3.031  -0.912  0.00  0.00    -0.462 OA
ENDBRANCH   1  28
BRANCH   5  31
ATOM     31  C   UNL     1      -2.590   1.542  -5.153  0.00  0.00    -0.040 A 
ATOM     32  C   UNL     1      -1.930   2.441  -5.969  0.00  0.00    +0.008 A 
ATOM     33  C   UNL     1      -2.385   2.678  -7.253  0.00  0.00    +0.049 A 
ATOM     34  C   UNL     1      -3.506   2.013  -7.724  0.00  0.00    +0.161 A 
ATOM     35  C   UNL     1      -4.170   1.107  -6.903  0.00  0.00    +0.162 A 
ATOM     36  C   UNL     1      -3.705   0.871  -5.619  0.00  0.00    +0.053 A 
BRANCH  35  37
ATOM     37  O   UNL     1      -5.270   0.452  -7.361  0.00  0.00    -0.491 OA
ATOM     38  C   UNL     1      -5.902  -0.463  -6.462  0.00  0.00    +0.277 C 
ENDBRANCH  35  37
BRANCH  34  39
ATOM     39  O   UNL     1      -3.954   2.244  -8.987  0.00  0.00    -0.491 OA
ATOM     40  C   UNL     1      -3.222   3.186  -9.774  0.00  0.00    +0.277 C 
ENDBRANCH  34  39
ENDBRANCH   5  31
TORSDOF 4
