REMARK  Name = ZINC63351545
REMARK  7 active torsions:
REMARK  status: ('A' for Active; 'I' for Inactive)
REMARK    1  A    between atoms: C_1  and  C_2
REMARK    2  A    between atoms: C_2  and  O_3
REMARK    3  A    between atoms: O_3  and  C_4
REMARK    4  A    between atoms: C_6  and  C_11
REMARK    5  A    between atoms: C_9  and  O_10
REMARK    6  A    between atoms: N_12  and  N_13
REMARK    7  A    between atoms: C_33  and  C_35
REMARK                            x       y       z     vdW  Elec       q    Type
REMARK                         _______ _______ _______ _____ _____    ______ ____
ROOT
ATOM      1  N   UNL     1       1.385  -7.378   0.184  0.00  0.00    -0.183 N 
ATOM      2  C   UNL     1       2.646  -6.659   0.111  0.00  0.00    +0.230 C 
ATOM      3  C   UNL     1       3.816  -7.581   0.015  0.00  0.00    +0.236 C 
ATOM      4  O   UNL     1       4.920  -7.084  -0.053  0.00  0.00    -0.274 OA
ATOM      5  N   UNL     1       3.733  -8.917   0.000  0.00  0.00    -0.279 N 
ATOM      6  C   UNL     1       2.463  -9.629   0.095  0.00  0.00    +0.169 C 
ATOM      7  C   UNL     1       1.292  -8.707   0.184  0.00  0.00    +0.256 C 
ATOM      8  O   UNL     1       0.186  -9.199   0.256  0.00  0.00    -0.272 OA
ATOM      9  C   UNL     1       2.475 -10.563   1.319  0.00  0.00    +0.065 C 
ATOM     10  C   UNL     1       3.796 -11.292   1.290  0.00  0.00    -0.034 C 
ATOM     11  C   UNL     1       4.090 -12.584   1.365  0.00  0.00    -0.001 A 
ATOM     12  C   UNL     1       3.252 -13.767   1.615  0.00  0.00    +0.010 A 
ATOM     13  C   UNL     1       3.890 -14.967   1.603  0.00  0.00    +0.001 A 
ATOM     14  C   UNL     1       5.262 -15.107   1.370  0.00  0.00    +0.002 A 
ATOM     15  C   UNL     1       6.110 -14.073   1.141  0.00  0.00    +0.026 A 
ATOM     16  C   UNL     1       5.557 -12.759   1.138  0.00  0.00    +0.043 A 
ATOM     17  N   UNL     1       6.133 -11.605   0.972  0.00  0.00    -0.375 N 
ATOM     18  C   UNL     1       5.123 -10.559   1.132  0.00  0.00    +0.131 C 
ATOM     19  C   UNL     1       4.993  -9.685  -0.119  0.00  0.00    +0.133 C 
ATOM     20  H   UNL     1       7.072 -11.462   0.775  0.00  0.00    +0.160 HD
ENDROOT
BRANCH  19  21
ATOM     21  C   UNL     1       4.946 -10.557  -1.348  0.00  0.00    -0.025 A 
ATOM     22  C   UNL     1       3.946 -11.501  -1.487  0.00  0.00    +0.005 A 
ATOM     23  C   UNL     1       3.903 -12.300  -2.614  0.00  0.00    +0.000 A 
ATOM     24  C   UNL     1       4.859 -12.155  -3.602  0.00  0.00    +0.000 A 
ATOM     25  C   UNL     1       5.858 -11.209  -3.463  0.00  0.00    +0.000 A 
ATOM     26  C   UNL     1       5.899 -10.407  -2.338  0.00  0.00    +0.005 A 
ENDBRANCH  19  21
BRANCH   1  28
ATOM     27  C   UNL     1       0.250  -5.335   0.269  0.00  0.00    +0.138 C 
ATOM     28  N   UNL     1       0.201  -6.632   0.266  0.00  0.00    -0.184 NA
BRANCH  27  31
ATOM     29  C   UNL     1      -2.114  -2.423   0.437  0.00  0.00    +0.162 A 
ATOM     30  C   UNL     1      -0.944  -3.154   0.357  0.00  0.00    +0.059 A 
ATOM     31  C   UNL     1      -0.995  -4.551   0.354  0.00  0.00    -0.002 A 
ATOM     32  C   UNL     1      -2.229  -5.201   0.431  0.00  0.00    +0.013 A 
ATOM     33  C   UNL     1      -3.392  -4.465   0.511  0.00  0.00    +0.050 A 
ATOM     34  C   UNL     1      -3.341  -3.079   0.519  0.00  0.00    +0.158 A 
BRANCH  34  35
ATOM     35  O   UNL     1      -4.490  -2.358   0.603  0.00  0.00    -0.503 OA
ATOM     36  H   UNL     1      -4.885  -2.145  -0.254  0.00  0.00    +0.292 HD
ENDBRANCH  34  35
BRANCH  29  37
ATOM     37  O   UNL     1      -2.068  -1.064   0.441  0.00  0.00    -0.489 OA
BRANCH  37  39
ATOM     38  C   UNL     1      -0.925   1.064   0.372  0.00  0.00    +0.048 C 
ATOM     39  C   UNL     1      -0.777  -0.458   0.354  0.00  0.00    +0.226 C 
ENDBRANCH  37  39
ENDBRANCH  29  37
ENDBRANCH  27  31
ENDBRANCH   1  28
TORSDOF 6
