REMARK  Name = ZINC01268139
REMARK  7 active torsions:
REMARK  status: ('A' for Active; 'I' for Inactive)
REMARK    1  A    between atoms: C_1  and  C_2
REMARK    2  A    between atoms: C_9  and  N_13
REMARK    3  A    between atoms: C_10  and  C_11
REMARK    4  A    between atoms: C_14  and  C_16
REMARK    5  A    between atoms: C_17  and  C_18
REMARK    6  A    between atoms: C_23  and  O_24
REMARK    7  A    between atoms: O_24  and  C_25
REMARK                            x       y       z     vdW  Elec       q    Type
REMARK                         _______ _______ _______ _____ _____    ______ ____
ROOT
ATOM      1  N   UNL     1       4.727   4.293   0.263  0.00  0.00    -0.275 N 
ATOM      2  C   UNL     1       4.467   5.567   0.618  0.00  0.00    +0.241 C 
ATOM      3  O   UNL     1       3.320   5.921   0.821  0.00  0.00    -0.270 OA
ATOM      4  H   UNL     1       5.641   4.012   0.101  0.00  0.00    +0.156 HD
ENDROOT
BRANCH   1  12
ATOM      5  C   UNL     1      -1.402  -0.534  -0.293  0.00  0.00    +0.008 C 
ATOM      6  C   UNL     1       0.002  -0.004   0.002  0.00  0.00    -0.009 C 
ATOM      7  C   UNL     1       0.972  -0.478  -1.084  0.00  0.00    +0.008 C 
ATOM      8  C   UNL     1       2.411  -0.167  -0.669  0.00  0.00    +0.037 C 
ATOM      9  C   UNL     1       2.505   1.307  -0.294  0.00  0.00    -0.018 A 
ATOM     10  C   UNL     1       1.396   2.022  -0.000  0.00  0.00    -0.004 A 
ATOM     11  S   UNL     1       1.991   3.650   0.363  0.00  0.00    -0.077 S 
ATOM     12  C   UNL     1       3.687   3.386   0.129  0.00  0.00    +0.090 A 
ATOM     13  C   UNL     1       3.753   2.046  -0.225  0.00  0.00    +0.084 A 
ATOM     14  C   UNL     1      -0.019   1.531   0.011  0.00  0.00    +0.046 C 
BRANCH  13  15
ATOM     15  C   UNL     1       5.006   1.414  -0.510  0.00  0.00    +0.102 C 
ATOM     16  N   UNL     1       6.000   0.913  -0.737  0.00  0.00    -0.191 NA
ENDBRANCH  13  15
ENDBRANCH   1  12
BRANCH   2  17
ATOM     17  C   UNL     1       5.563   6.524   0.759  0.00  0.00    +0.068 C 
ATOM     18  C   UNL     1       5.303   7.801   1.115  0.00  0.00    +0.017 C 
BRANCH  18  19
ATOM     19  C   UNL     1       6.405   8.763   1.256  0.00  0.00    +0.020 A 
ATOM     20  C   UNL     1       7.725   8.361   1.024  0.00  0.00    +0.031 A 
ATOM     21  C   UNL     1       8.754   9.269   1.158  0.00  0.00    +0.043 A 
ATOM     22  C   UNL     1       8.486  10.579   1.523  0.00  0.00    +0.043 A 
ATOM     23  C   UNL     1       7.187  10.990   1.756  0.00  0.00    +0.084 A 
ATOM     24  C   UNL     1       6.139  10.092   1.621  0.00  0.00    +0.146 A 
ATOM     25 CL   UNL     1       6.867  12.634   2.212  0.00  0.00    -0.080 Cl
ATOM     26 CL   UNL     1      10.391   8.769   0.869  0.00  0.00    -0.083 Cl
BRANCH  24  27
ATOM     27  O   UNL     1       4.862  10.495   1.844  0.00  0.00    -0.493 OA
ATOM     28  C   UNL     1       4.368  10.375   3.179  0.00  0.00    +0.277 C 
ENDBRANCH  24  27
ENDBRANCH  18  19
ENDBRANCH   2  17
TORSDOF 5
