REMARK  Name = ZINC06443903
REMARK  12 active torsions:
REMARK  status: ('A' for Active; 'I' for Inactive)
REMARK    1  A    between atoms: C_1  and  C_2
REMARK    2  A    between atoms: C_12  and  C_14
REMARK    3  A    between atoms: C_14  and  C_16
REMARK    4  A    between atoms: C_14  and  N_66
REMARK    5  A    between atoms: N_20  and  C_21
REMARK    6  A    between atoms: C_21  and  C_22
REMARK    7  A    between atoms: C_21  and  C_23
REMARK    8  A    between atoms: C_21  and  C_24
REMARK    9  A    between atoms: C_25  and  C_26
REMARK   10  A    between atoms: C_25  and  N_66
REMARK   11  A    between atoms: C_32  and  C_33
REMARK   12  A    between atoms: C_32  and  N_66
REMARK                            x       y       z     vdW  Elec       q    Type
REMARK                         _______ _______ _______ _____ _____    ______ ____
ROOT
ATOM      1  C   UNL     1       0.636  -2.389   5.336  0.00  0.00    +0.040 C 
ENDROOT
BRANCH   1  13
ATOM      2  C   UNL     1       1.830  -0.130  -0.720  0.00  0.00    +0.046 C 
ATOM      3  C   UNL     1       1.117  -1.369  -0.242  0.00  0.00    -0.026 A 
ATOM      4  C   UNL     1       0.576  -2.251  -1.154  0.00  0.00    +0.005 A 
ATOM      5  C   UNL     1      -0.078  -3.399  -0.727  0.00  0.00    +0.001 A 
ATOM      6  C   UNL     1      -0.208  -3.669   0.606  0.00  0.00    +0.010 A 
ATOM      7  C   UNL     1       0.327  -2.785   1.549  0.00  0.00    -0.001 A 
ATOM      8  C   UNL     1       0.996  -1.624   1.119  0.00  0.00    +0.052 A 
ATOM      9  N   UNL     1       1.522  -0.756   2.053  0.00  0.00    -0.322 N 
ATOM     10  H   UNL     1       1.983   0.044   1.755  0.00  0.00    +0.169 HD
ATOM     11  C   UNL     1       1.405  -1.002   3.369  0.00  0.00    +0.251 A 
ATOM     12  O   UNL     1       1.882  -0.213   4.166  0.00  0.00    -0.268 OA
ATOM     13  C   UNL     1       0.744  -2.152   3.852  0.00  0.00    +0.011 A 
ATOM     14  C   UNL     1       0.205  -3.045   2.985  0.00  0.00    +0.017 A 
ENDBRANCH   1  13
BRANCH   1  15
ATOM     15  C   UNL     1      -0.303  -1.376   5.939  0.00  0.00    +0.143 A 
ATOM     16  N   UNL     1      -0.135  -0.076   5.974  0.00  0.00    -0.115 NA
ATOM     17  N   UNL     1      -1.152   0.441   6.572  0.00  0.00    -0.023 NA
ATOM     18  N   UNL     1      -1.965  -0.495   6.919  0.00  0.00    -0.043 NA
ATOM     19  N   UNL     1      -1.480  -1.629   6.542  0.00  0.00    -0.225 N 
BRANCH  19  20
ATOM     20  C   UNL     1      -2.092  -2.946   6.736  0.00  0.00    +0.059 C 
ATOM     21  C   UNL     1      -1.157  -3.825   7.568  0.00  0.00    +0.036 C 
ATOM     22  C   UNL     1      -3.426  -2.785   7.468  0.00  0.00    +0.036 C 
ATOM     23  C   UNL     1      -2.333  -3.602   5.375  0.00  0.00    +0.036 C 
ENDBRANCH  19  20
ENDBRANCH   1  15
BRANCH   1  24
ATOM     24  N   UNL     1       1.975  -2.230   5.941  0.00  0.00    +0.395 N 
ATOM     25  H   UNL     1       2.413  -1.381   5.564  0.00  0.00    -0.079 HD
BRANCH  24  26
ATOM     26  C   UNL     1       1.855  -2.097   7.408  0.00  0.00    -0.041 C 
BRANCH  26  27
ATOM     27  C   UNL     1       3.199  -1.718   7.974  0.00  0.00    -0.064 A 
ATOM     28  C   UNL     1       4.079  -2.703   8.383  0.00  0.00    +0.002 A 
ATOM     29  C   UNL     1       5.314  -2.355   8.897  0.00  0.00    +0.000 A 
ATOM     30  C   UNL     1       5.665  -1.023   9.012  0.00  0.00    +0.000 A 
ATOM     31  C   UNL     1       4.783  -0.039   8.608  0.00  0.00    +0.000 A 
ATOM     32  C   UNL     1       3.550  -0.386   8.089  0.00  0.00    +0.002 A 
ENDBRANCH  26  27
ENDBRANCH  24  26
BRANCH  24  33
ATOM     33  C   UNL     1       2.821  -3.395   5.607  0.00  0.00    -0.034 C 
BRANCH  33  34
ATOM     34  C   UNL     1       3.355  -3.219   4.209  0.00  0.00    -0.027 A 
ATOM     35  C   UNL     1       4.328  -2.386   3.765  0.00  0.00    +0.009 A 
ATOM     36  C   UNL     1       4.657  -2.395   2.423  0.00  0.00    +0.008 A 
ATOM     37  C   UNL     1       3.997  -3.236   1.590  0.00  0.00    +0.045 A 
ATOM     38  S   UNL     1       2.875  -4.058   2.708  0.00  0.00    -0.103 S 
ENDBRANCH  33  34
ENDBRANCH  24  33
ENDBRANCH   1  24
TORSDOF 8
