REMARK  Name = ZINC39211544
REMARK  9 active torsions:
REMARK  status: ('A' for Active; 'I' for Inactive)
REMARK    1  A    between atoms: C_1  and  C_2
REMARK    2  A    between atoms: C_4  and  C_14
REMARK    3  A    between atoms: C_7  and  O_12
REMARK    4  A    between atoms: O_12  and  C_13
REMARK    5  A    between atoms: C_14  and  C_15
REMARK    6  A    between atoms: C_15  and  N_16
REMARK    7  A    between atoms: N_16  and  C_17
REMARK    8  A    between atoms: C_17  and  C_18
REMARK    9  A    between atoms: N_21  and  C_28
REMARK                            x       y       z     vdW  Elec       q    Type
REMARK                         _______ _______ _______ _____ _____    ______ ____
ROOT
ATOM      1  C   UNL     1      -3.174   2.945   0.633  0.00  0.00    -0.078 C 
ENDROOT
BRANCH   1   2
ATOM      2  N   UNL     1      -4.148   2.770   1.718  0.00  0.00    +0.380 N 
ATOM      3  H   UNL     1      -5.048   2.536   1.327  0.00  0.00    -0.086 HD
ATOM      4  H   UNL     1      -3.843   2.027   2.328  0.00  0.00    -0.086 HD
BRANCH   2   5
ATOM      5  C   UNL     1      -4.256   4.019   2.485  0.00  0.00    -0.073 C 
BRANCH   5   6
ATOM      6  C   UNL     1      -5.271   3.837   3.615  0.00  0.00    +0.021 C 
ATOM      7  C   UNL     1      -5.341   5.104   4.483  0.00  0.00    +0.111 C 
ATOM      8  N   UNL     1      -6.724   5.576   4.363  0.00  0.00    -0.332 N 
ATOM      9  C   UNL     1      -7.450   4.725   3.527  0.00  0.00    +0.033 A 
ATOM     10  C   UNL     1      -6.666   3.681   3.052  0.00  0.00    -0.024 A 
ATOM     11  C   UNL     1      -7.202   2.727   2.209  0.00  0.00    +0.006 A 
ATOM     12  C   UNL     1      -8.529   2.803   1.829  0.00  0.00    +0.000 A 
ATOM     13  C   UNL     1      -9.321   3.836   2.296  0.00  0.00    +0.002 A 
ATOM     14  C   UNL     1      -8.789   4.797   3.140  0.00  0.00    +0.023 A 
ATOM     15  C   UNL     1      -7.264   6.767   5.022  0.00  0.00    +0.129 C 
ENDBRANCH   5   6
ENDBRANCH   2   5
ENDBRANCH   1   2
BRANCH   1  16
ATOM     16  C   UNL     1      -3.061   1.645  -0.165  0.00  0.00    +0.018 C 
BRANCH  16  20
ATOM     17  C   UNL     1      -0.013   1.086   0.008  0.00  0.00    +0.063 C 
ATOM     18  C   UNL     1      -0.742   1.585  -1.213  0.00  0.00    +0.017 A 
ATOM     19  H   UNL     1       0.790   1.775  -2.611  0.00  0.00    +0.166 HD
ATOM     20  C   UNL     1      -2.061   1.824  -1.278  0.00  0.00    -0.021 A 
ATOM     21  C   UNL     1      -2.345   2.293  -2.637  0.00  0.00    +0.006 A 
ATOM     22  C   UNL     1      -3.506   2.692  -3.302  0.00  0.00    +0.056 A 
ATOM     23  C   UNL     1      -3.434   3.090  -4.622  0.00  0.00    +0.121 A 
ATOM     24  C   UNL     1      -2.212   3.093  -5.288  0.00  0.00    +0.047 A 
ATOM     25  C   UNL     1      -1.060   2.701  -4.643  0.00  0.00    +0.030 A 
ATOM     26  C   UNL     1      -1.111   2.298  -3.313  0.00  0.00    +0.047 A 
ATOM     27  N   UNL     1      -0.156   1.867  -2.417  0.00  0.00    -0.358 N 
BRANCH  23  28
ATOM     28  O   UNL     1      -4.562   3.479  -5.274  0.00  0.00    -0.495 OA
ATOM     29  C   UNL     1      -4.417   3.878  -6.639  0.00  0.00    +0.277 C 
ENDBRANCH  23  28
ENDBRANCH  16  20
ENDBRANCH   1  16
TORSDOF 6
