REMARK  Name = ZINC26920236
REMARK  8 active torsions:
REMARK  status: ('A' for Active; 'I' for Inactive)
REMARK    1  A    between atoms: C_4  and  C_7
REMARK    2  A    between atoms: C_7  and  C_8
REMARK    3  A    between atoms: C_8  and  C_10
REMARK    4  A    between atoms: C_8  and  N_20
REMARK    5  A    between atoms: C_10  and  O_12
REMARK    6  A    between atoms: O_12  and  C_13
REMARK    7  A    between atoms: C_13  and  C_14
REMARK    8  A    between atoms: C_32  and  C_33
REMARK                            x       y       z     vdW  Elec       q    Type
REMARK                         _______ _______ _______ _____ _____    ______ ____
ROOT
ATOM      1  N   UNL     1       0.010   0.005   0.132  0.00  0.00    +0.414 N 
ATOM      2  C   UNL     1      -0.021   1.475   0.119  0.00  0.00    -0.030 C 
ATOM      3  C   UNL     1       1.382   2.012   0.244  0.00  0.00    +0.021 A 
ATOM      4  C   UNL     1       2.412   1.208   0.697  0.00  0.00    +0.123 A 
ATOM      5  C   UNL     1       3.706   1.717   0.812  0.00  0.00    +0.046 A 
ATOM      6  C   UNL     1       3.971   3.013   0.477  0.00  0.00    +0.016 A 
ATOM      7  C   UNL     1       2.942   3.836   0.016  0.00  0.00    +0.026 A 
ATOM      8  C   UNL     1       1.635   3.334  -0.102  0.00  0.00    +0.144 A 
ATOM      9  O   UNL     1       0.633   4.120  -0.545  0.00  0.00    -0.422 OA
ATOM     10  C   UNL     1       0.862   5.393  -0.881  0.00  0.00    +0.338 A 
ATOM     11  O   UNL     1      -0.072   6.067  -1.277  0.00  0.00    -0.245 OA
ATOM     12  C   UNL     1       2.131   5.989  -0.799  0.00  0.00    +0.101 A 
ATOM     13  C   UNL     1       3.203   5.238  -0.353  0.00  0.00    -0.000 A 
ATOM     14  O   UNL     1       2.183  -0.088   1.038  0.00  0.00    -0.509 OA
ATOM     15  C   UNL     1       0.825  -0.474   1.260  0.00  0.00    +0.159 C 
ATOM     16  H   UNL     1       0.470  -0.341  -0.805  0.00  0.00    -0.075 HD
ENDROOT
BRANCH  13  17
ATOM     17  C   UNL     1       4.559   5.821  -0.249  0.00  0.00    -0.017 A 
ATOM     18  C   UNL     1       5.292   5.685   0.931  0.00  0.00    +0.008 A 
ATOM     19  C   UNL     1       6.558   6.225   1.019  0.00  0.00    +0.001 A 
ATOM     20  C   UNL     1       7.097   6.911  -0.055  0.00  0.00    +0.000 A 
ATOM     21  C   UNL     1       6.374   7.054  -1.226  0.00  0.00    +0.001 A 
ATOM     22  C   UNL     1       5.109   6.513  -1.329  0.00  0.00    +0.008 A 
ENDBRANCH  13  17
BRANCH   1  23
ATOM     23  C   UNL     1      -1.348  -0.550   0.190  0.00  0.00    +0.052 C 
BRANCH  23  24
ATOM     24  C   UNL     1      -2.099  -0.174  -1.062  0.00  0.00    +0.294 C 
ATOM     25  O   UNL     1      -1.557   0.489  -1.915  0.00  0.00    -0.253 OA
BRANCH  24  26
ATOM     26  O   UNL     1      -3.369  -0.575  -1.229  0.00  0.00    -0.461 OA
BRANCH  26  27
ATOM     27  C   UNL     1      -4.030  -0.176  -2.458  0.00  0.00    +0.267 C 
BRANCH  27  28
ATOM     28  C   UNL     1      -5.438  -0.714  -2.469  0.00  0.00    -0.010 A 
ATOM     29  C   UNL     1      -5.698  -1.958  -3.011  0.00  0.00    +0.007 A 
ATOM     30  C   UNL     1      -6.989  -2.454  -3.017  0.00  0.00    +0.000 A 
ATOM     31  C   UNL     1      -8.020  -1.700  -2.490  0.00  0.00    +0.000 A 
ATOM     32  C   UNL     1      -7.761  -0.453  -1.952  0.00  0.00    +0.000 A 
ATOM     33  C   UNL     1      -6.469   0.040  -1.942  0.00  0.00    +0.007 A 
ENDBRANCH  27  28
ENDBRANCH  26  27
ENDBRANCH  24  26
ENDBRANCH  23  24
BRANCH  23  34
ATOM     34  C   UNL     1      -1.272  -2.074   0.301  0.00  0.00    +0.031 C 
BRANCH  34  38
ATOM     35  C   UNL     1       0.741  -3.651  -3.121  0.00  0.00    +0.000 A 
ATOM     36  C   UNL     1       1.447  -3.399  -1.959  0.00  0.00    +0.000 A 
ATOM     37  C   UNL     1       0.795  -2.888  -0.852  0.00  0.00    +0.003 A 
ATOM     38  C   UNL     1      -0.562  -2.630  -0.906  0.00  0.00    -0.048 A 
ATOM     39  C   UNL     1      -1.268  -2.888  -2.066  0.00  0.00    +0.003 A 
ATOM     40  C   UNL     1      -0.616  -3.394  -3.175  0.00  0.00    +0.000 A 
ENDBRANCH  34  38
ENDBRANCH  23  34
ENDBRANCH   1  23
TORSDOF 8
