REMARK  Name = ZINC62428334
REMARK  9 active torsions:
REMARK  status: ('A' for Active; 'I' for Inactive)
REMARK    1  A    between atoms: C_1  and  C_2
REMARK    2  A    between atoms: C_5  and  C_8
REMARK    3  A    between atoms: C_8  and  C_9
REMARK    4  A    between atoms: C_8  and  N_26
REMARK    5  A    between atoms: C_9  and  N_10
REMARK    6  A    between atoms: N_13  and  C_14
REMARK    7  A    between atoms: C_18  and  N_20
REMARK    8  A    between atoms: N_26  and  C_27
REMARK    9  A    between atoms: N_26  and  C_28
REMARK                            x       y       z     vdW  Elec       q    Type
REMARK                         _______ _______ _______ _____ _____    ______ ____
ROOT
ATOM      1  N   UNL     1       0.945  -6.166   0.293  0.00  0.00    -0.300 N 
ATOM      2  C   UNL     1       2.039  -6.890   0.605  0.00  0.00    +0.304 C 
ATOM      3  O   UNL     1       3.113  -6.338   0.746  0.00  0.00    -0.253 OA
ATOM      4  N   UNL     1       1.941  -8.225   0.760  0.00  0.00    -0.269 N 
ATOM      5  H   UNL     1       0.088  -6.606   0.180  0.00  0.00    +0.150 HD
ATOM      6  H   UNL     1       1.074  -8.656   0.716  0.00  0.00    +0.156 HD
ENDROOT
BRANCH   4   7
ATOM      7  C   UNL     1       3.092  -8.989   0.986  0.00  0.00    +0.037 A 
ATOM      8  C   UNL     1       4.133  -8.471   1.746  0.00  0.00    +0.023 A 
ATOM      9  C   UNL     1       5.269  -9.225   1.969  0.00  0.00    +0.004 A 
ATOM     10  C   UNL     1       5.374 -10.495   1.437  0.00  0.00    +0.024 A 
ATOM     11  C   UNL     1       4.337 -11.019   0.675  0.00  0.00    +0.040 A 
ATOM     12  C   UNL     1       3.192 -10.266   0.454  0.00  0.00    +0.047 A 
BRANCH  11  13
ATOM     13  N   UNL     1       4.444 -12.306   0.136  0.00  0.00    -0.254 N 
ATOM     14  C   UNL     1       5.538 -13.252   0.402  0.00  0.00    +0.134 C 
ATOM     15  C   UNL     1       5.162 -14.493  -0.431  0.00  0.00    +0.125 C 
ATOM     16  N   UNL     1       3.897 -14.114  -1.078  0.00  0.00    -0.297 N 
ATOM     17  C   UNL     1       3.564 -12.873  -0.700  0.00  0.00    +0.307 C 
ATOM     18  O   UNL     1       2.557 -12.310  -1.083  0.00  0.00    -0.252 OA
ATOM     19  H   UNL     1       3.383 -14.675  -1.679  0.00  0.00    +0.150 HD
ENDBRANCH  11  13
ENDBRANCH   4   7
BRANCH   1  20
ATOM     20  C   UNL     1       1.051  -4.715   0.124  0.00  0.00    +0.095 C 
BRANCH  20  21
ATOM     21  C   UNL     1      -0.342  -4.125  -0.103  0.00  0.00    -0.021 C 
BRANCH  21  26
ATOM     22  C   UNL     1      -2.519  -6.169  -5.050  0.00  0.00    +0.044 C 
ATOM     23  C   UNL     1      -1.952  -5.636  -3.760  0.00  0.00    -0.050 A 
ATOM     24  C   UNL     1      -2.342  -6.186  -2.554  0.00  0.00    +0.003 A 
ATOM     25  C   UNL     1      -1.821  -5.697  -1.370  0.00  0.00    +0.002 A 
ATOM     26  C   UNL     1      -0.909  -4.658  -1.393  0.00  0.00    -0.059 A 
ATOM     27  C   UNL     1      -0.518  -4.109  -2.600  0.00  0.00    +0.002 A 
ATOM     28  C   UNL     1      -1.036  -4.601  -3.784  0.00  0.00    +0.003 A 
ENDBRANCH  21  26
BRANCH  21  29
ATOM     29  N   UNL     1      -0.248  -2.661  -0.178  0.00  0.00    +0.382 N 
ATOM     30  C   UNL     1      -1.595  -2.089  -0.304  0.00  0.00    -0.096 C 
ATOM     31  C   UNL     1       0.390  -2.148   1.041  0.00  0.00    -0.096 C 
ATOM     32  H   UNL     1       0.304  -2.400  -0.982  0.00  0.00    -0.082 HD
ENDBRANCH  21  29
ENDBRANCH  20  21
ENDBRANCH   1  20
TORSDOF 6
