REMARK  Name = ZINC40410544
REMARK  9 active torsions:
REMARK  status: ('A' for Active; 'I' for Inactive)
REMARK    1  A    between atoms: C_1  and  S_2
REMARK    2  A    between atoms: S_2  and  C_3
REMARK    3  A    between atoms: C_6  and  C_16
REMARK    4  A    between atoms: C_7  and  C_9
REMARK    5  A    between atoms: N_22  and  C_23
REMARK    6  A    between atoms: C_23  and  C_24
REMARK    7  A    between atoms: C_23  and  C_31
REMARK    8  A    between atoms: C_24  and  C_25
REMARK    9  A    between atoms: C_31  and  C_32
REMARK                            x       y       z     vdW  Elec       q    Type
REMARK                         _______ _______ _______ _____ _____    ______ ____
ROOT
ATOM      1  C   UNL     1       2.771  -0.834  -4.236  0.00  0.00    +0.007 A 
ATOM      2  C   UNL     1       2.795  -1.683  -5.351  0.00  0.00    +0.027 A 
ATOM      3  C   UNL     1       3.923  -2.431  -5.601  0.00  0.00    +0.085 A 
ATOM      4  N   UNL     1       4.977  -2.358  -4.808  0.00  0.00    -0.350 N 
ATOM      5  C   UNL     1       5.000  -1.571  -3.743  0.00  0.00    +0.097 A 
ATOM      6  C   UNL     1       3.906  -0.779  -3.423  0.00  0.00    +0.051 A 
ATOM      7  N   UNL     1       6.135  -1.532  -2.941  0.00  0.00    -0.327 N 
ATOM      8  H   UNL     1       6.904  -2.080  -3.162  0.00  0.00    +0.148 HD
ATOM      9  H   UNL     1       5.757  -2.898  -5.011  0.00  0.00    +0.166 HD
ENDROOT
BRANCH   1  13
ATOM     10  C   UNL     1       0.045   1.043  -2.809  0.00  0.00    +0.167 A 
ATOM     11  N   UNL     1       1.122   0.302  -2.701  0.00  0.00    -0.221 NA
ATOM     12  H   UNL     1      -0.984   1.737  -4.490  0.00  0.00    +0.168 HD
ATOM     13  C   UNL     1       1.578  -0.013  -3.931  0.00  0.00    +0.098 A 
ATOM     14  C   UNL     1       0.731   0.568  -4.854  0.00  0.00    +0.075 A 
ATOM     15  N   UNL     1      -0.240   1.230  -4.128  0.00  0.00    -0.332 N 
BRANCH  14  16
ATOM     16  C   UNL     1       0.838   0.492  -6.324  0.00  0.00    +0.001 A 
ATOM     17  C   UNL     1       2.076   0.672  -6.947  0.00  0.00    +0.013 A 
ATOM     18  C   UNL     1       2.170   0.599  -8.321  0.00  0.00    +0.039 A 
ATOM     19  C   UNL     1       1.040   0.348  -9.083  0.00  0.00    +0.123 A 
ATOM     20  C   UNL     1      -0.190   0.169  -8.471  0.00  0.00    +0.039 A 
ATOM     21  C   UNL     1      -0.296   0.234  -7.098  0.00  0.00    +0.013 A 
ATOM     22  F   UNL     1       1.139   0.277 -10.429  0.00  0.00    -0.205 F 
ENDBRANCH  14  16
BRANCH  10  24
ATOM     23  C   UNL     1      -0.013   1.086   0.008  0.00  0.00    +0.093 C 
ATOM     24  S   UNL     1      -0.890   1.687  -1.462  0.00  0.00    -0.091 S 
ENDBRANCH  10  24
ENDBRANCH   1  13
BRANCH   7  25
ATOM     25  C   UNL     1       6.169  -0.664  -1.761  0.00  0.00    +0.080 C 
BRANCH  25  26
ATOM     26  C   UNL     1       7.170  -1.221  -0.747  0.00  0.00    +0.057 C 
BRANCH  26  27
ATOM     27  C   UNL     1       6.687  -2.557  -0.245  0.00  0.00    -0.046 A 
ATOM     28  C   UNL     1       5.868  -2.622   0.867  0.00  0.00    +0.004 A 
ATOM     29  C   UNL     1       5.424  -3.848   1.328  0.00  0.00    +0.000 A 
ATOM     30  C   UNL     1       5.799  -5.008   0.676  0.00  0.00    +0.000 A 
ATOM     31  C   UNL     1       6.617  -4.943  -0.436  0.00  0.00    +0.000 A 
ATOM     32  C   UNL     1       7.057  -3.717  -0.899  0.00  0.00    +0.004 A 
ENDBRANCH  26  27
ENDBRANCH  25  26
BRANCH  25  33
ATOM     33  C   UNL     1       6.595   0.745  -2.177  0.00  0.00    +0.057 C 
BRANCH  33  34
ATOM     34  C   UNL     1       5.545   1.341  -3.080  0.00  0.00    -0.046 A 
ATOM     35  C   UNL     1       5.626   1.157  -4.448  0.00  0.00    +0.004 A 
ATOM     36  C   UNL     1       4.663   1.703  -5.276  0.00  0.00    +0.000 A 
ATOM     37  C   UNL     1       3.620   2.433  -4.737  0.00  0.00    +0.000 A 
ATOM     38  C   UNL     1       3.540   2.616  -3.369  0.00  0.00    +0.000 A 
ATOM     39  C   UNL     1       4.500   2.066  -2.541  0.00  0.00    +0.004 A 
ENDBRANCH  33  34
ENDBRANCH  25  33
ENDBRANCH   7  25
TORSDOF 8
