REMARK  Name = ZINC08632516
REMARK  7 active torsions:
REMARK  status: ('A' for Active; 'I' for Inactive)
REMARK    1  A    between atoms: C_1  and  C_2
REMARK    2  A    between atoms: C_2  and  N_3
REMARK    3  A    between atoms: C_7  and  C_9
REMARK    4  A    between atoms: C_9  and  S_10
REMARK    5  A    between atoms: S_10  and  C_11
REMARK    6  A    between atoms: C_19  and  C_23
REMARK    7  A    between atoms: N_26  and  C_27
REMARK                            x       y       z     vdW  Elec       q    Type
REMARK                         _______ _______ _______ _____ _____    ______ ____
ROOT
ATOM      1  C   UNL     1       1.236  -4.338  -2.530  0.00  0.00    +0.178 A 
ATOM      2  N   UNL     1       2.068  -3.390  -2.938  0.00  0.00    -0.215 NA
ATOM      3  C   UNL     1       1.713  -2.131  -2.715  0.00  0.00    +0.117 A 
ATOM      4  C   UNL     1       0.511  -1.750  -2.075  0.00  0.00    +0.076 A 
ATOM      5  C   UNL     1       0.295  -0.322  -1.918  0.00  0.00    -0.023 A 
ATOM      6  C   UNL     1       1.261   0.495  -2.398  0.00  0.00    -0.004 A 
ATOM      7  S   UNL     1       2.492  -0.589  -3.075  0.00  0.00    -0.073 S 
ATOM      8  C   UNL     1       1.284   1.992  -2.363  0.00  0.00    +0.046 C 
ATOM      9  C   UNL     1       0.217   2.471  -1.368  0.00  0.00    -0.009 C 
ATOM     10  C   UNL     1      -1.090   1.726  -1.654  0.00  0.00    +0.008 C 
ATOM     11  C   UNL     1      -0.949   0.259  -1.251  0.00  0.00    +0.037 C 
ATOM     12  C   UNL     1      -0.002   3.976  -1.536  0.00  0.00    +0.008 C 
ATOM     13  C   UNL     1      -0.364  -2.801  -1.648  0.00  0.00    +0.268 A 
ATOM     14  O   UNL     1      -1.422  -2.573  -1.087  0.00  0.00    -0.267 OA
ATOM     15  N   UNL     1       0.056  -4.062  -1.905  0.00  0.00    -0.255 N 
ENDROOT
BRANCH  15  16
ATOM     16  C   UNL     1      -0.759  -5.132  -1.510  0.00  0.00    +0.052 A 
ATOM     17  C   UNL     1      -1.722  -5.629  -2.378  0.00  0.00    +0.026 A 
ATOM     18  C   UNL     1      -2.520  -6.687  -1.988  0.00  0.00    +0.002 A 
ATOM     19  C   UNL     1      -2.368  -7.244  -0.732  0.00  0.00    +0.000 A 
ATOM     20  C   UNL     1      -1.413  -6.747   0.137  0.00  0.00    +0.002 A 
ATOM     21  C   UNL     1      -0.608  -5.693  -0.249  0.00  0.00    +0.026 A 
ENDBRANCH  15  16
BRANCH   1  22
ATOM     22  S   UNL     1       1.671  -6.023  -2.809  0.00  0.00    -0.078 S 
BRANCH  22  23
ATOM     23  C   UNL     1       3.265  -5.803  -3.637  0.00  0.00    +0.173 C 
BRANCH  23  28
ATOM     24  N   UNL     1       6.742  -8.524  -5.539  0.00  0.00    -0.299 N 
ATOM     25  C   UNL     1       5.551  -8.441  -4.913  0.00  0.00    +0.306 C 
ATOM     26  O   UNL     1       4.944  -9.454  -4.625  0.00  0.00    -0.252 OA
ATOM     27  N   UNL     1       5.034  -7.235  -4.606  0.00  0.00    -0.240 N 
ATOM     28  C   UNL     1       3.843  -7.152  -3.980  0.00  0.00    +0.231 C 
ATOM     29  O   UNL     1       3.237  -8.162  -3.693  0.00  0.00    -0.274 OA
ATOM     30  H   UNL     1       7.227  -7.716  -5.768  0.00  0.00    +0.150 HD
ATOM     31  H   UNL     1       5.519  -6.427  -4.835  0.00  0.00    +0.159 HD
BRANCH  24  33
ATOM     32  C   UNL     1       8.652  -9.649  -6.572  0.00  0.00    +0.024 C 
ATOM     33  C   UNL     1       7.304  -9.835  -5.872  0.00  0.00    +0.102 C 
ENDBRANCH  24  33
ENDBRANCH  23  28
ENDBRANCH  22  23
ENDBRANCH   1  22
TORSDOF 5
