REMARK  Name = ZINC20693518
REMARK  10 active torsions:
REMARK  status: ('A' for Active; 'I' for Inactive)
REMARK    1  A    between atoms: C_1  and  C_2
REMARK    2  A    between atoms: C_2  and  C_3
REMARK    3  A    between atoms: C_3  and  C_5
REMARK    4  A    between atoms: C_3  and  N_6
REMARK    5  A    between atoms: N_6  and  S_7
REMARK    6  A    between atoms: S_7  and  C_10
REMARK    7  A    between atoms: C_23  and  C_26
REMARK    8  A    between atoms: C_29  and  O_34
REMARK    9  A    between atoms: C_30  and  O_32
REMARK   10  A    between atoms: O_32  and  C_33
REMARK                            x       y       z     vdW  Elec       q    Type
REMARK                         _______ _______ _______ _____ _____    ______ ____
ROOT
ATOM      1  C   UNL     1      -3.048   2.170  -3.577  0.00  0.00    +0.106 A 
ATOM      2  C   UNL     1      -2.366   3.312  -3.955  0.00  0.00    +0.030 A 
ATOM      3  C   UNL     1      -2.114   3.548  -5.292  0.00  0.00    +0.025 A 
ATOM      4  C   UNL     1      -2.554   2.645  -6.252  0.00  0.00    +0.031 A 
ATOM      5  C   UNL     1      -3.243   1.501  -5.878  0.00  0.00    -0.018 A 
ATOM      6  C   UNL     1      -3.485   1.273  -4.530  0.00  0.00    +0.034 A 
ATOM      7  C   UNL     1      -3.734   0.500  -6.875  0.00  0.00    +0.049 C 
ATOM      8  C   UNL     1      -5.227   0.606  -7.072  0.00  0.00    -0.023 C 
ATOM      9  C   UNL     1      -5.536   0.379  -8.326  0.00  0.00    -0.030 C 
ATOM     10  C   UNL     1      -4.288   0.085  -9.136  0.00  0.00    +0.033 C 
ATOM     11  C   UNL     1      -3.164   0.730  -8.288  0.00  0.00    +0.029 C 
ATOM     12  C   UNL     1      -3.147   2.228  -8.607  0.00  0.00    +0.105 C 
ATOM     13  N   UNL     1      -2.327   2.917  -7.605  0.00  0.00    -0.336 N 
ATOM     14  H   UNL     1      -1.553   3.631  -7.924  0.00  0.00    +0.147 HD
ENDROOT
BRANCH  12  15
ATOM     15  C   UNL     1      -2.558   2.445  -9.977  0.00  0.00    -0.023 A 
ATOM     16  C   UNL     1      -1.186   2.428 -10.149  0.00  0.00    +0.009 A 
ATOM     17  C   UNL     1      -0.641   2.627 -11.404  0.00  0.00    +0.049 A 
ATOM     18  C   UNL     1      -1.470   2.843 -12.493  0.00  0.00    +0.158 A 
ATOM     19  C   UNL     1      -2.851   2.861 -12.320  0.00  0.00    +0.162 A 
ATOM     20  C   UNL     1      -3.391   2.655 -11.060  0.00  0.00    +0.054 A 
BRANCH  19  21
ATOM     21  O   UNL     1      -3.669   3.073 -13.385  0.00  0.00    -0.491 OA
ATOM     22  C   UNL     1      -5.075   3.077 -13.133  0.00  0.00    +0.277 C 
ENDBRANCH  19  21
BRANCH  18  23
ATOM     23  O   UNL     1      -0.936   3.038 -13.728  0.00  0.00    -0.503 OA
ATOM     24  H   UNL     1      -1.595   3.209 -14.592  0.00  0.00    +0.292 HD
ENDBRANCH  18  23
ENDBRANCH  12  15
BRANCH   1  25
ATOM     25  S   UNL     1      -3.367   1.863  -1.871  0.00  0.00    +0.059 S 
ATOM     26  O   UNL     1      -4.500   1.007  -1.817  0.00  0.00    -0.153 OA
ATOM     27  O   UNL     1      -3.332   3.124  -1.218  0.00  0.00    -0.153 OA
BRANCH  25  28
ATOM     28  N   UNL     1      -2.087   0.991  -1.284  0.00  0.00    -0.187 NA
ATOM     29  H   UNL     1      -2.213  -0.085  -1.091  0.00  0.00    +0.148 HD
BRANCH  28  30
ATOM     30  C   UNL     1      -0.753   1.593  -1.232  0.00  0.00    +0.073 C 
ATOM     31  C   UNL     1       0.031   1.205  -2.487  0.00  0.00    +0.025 C 
BRANCH  30  33
ATOM     32  C   UNL     1      -0.729   1.579   1.267  0.00  0.00    +0.005 C 
ATOM     33  C   UNL     1      -0.013   1.086   0.008  0.00  0.00    +0.017 C 
ENDBRANCH  30  33
ENDBRANCH  28  30
ENDBRANCH  25  28
ENDBRANCH   1  25
TORSDOF 7
