REMARK  Name = ZINC01204737
REMARK  5 active torsions:
REMARK  status: ('A' for Active; 'I' for Inactive)
REMARK    1  A    between atoms: C_3  and  O_10
REMARK    2  A    between atoms: C_6  and  N_7
REMARK    3  A    between atoms: O_10  and  C_11
REMARK    4  A    between atoms: C_11  and  C_12
REMARK    5  A    between atoms: C_14  and  N_47
REMARK                            x       y       z     vdW  Elec       q    Type
REMARK                         _______ _______ _______ _____ _____    ______ ____
ROOT
ATOM      1  C   UNL     1      -0.013   1.786   0.152  0.00  0.00    +0.054 C 
ATOM      2  C   UNL     1      -1.234   2.281   0.205  0.00  0.00    +0.096 C 
ATOM      3  C   UNL     1      -2.521   1.499   0.371  0.00  0.00    +0.034 C 
ATOM      4  C   UNL     1      -3.586   2.573   0.362  0.00  0.00    -0.009 A 
ATOM      5  C   UNL     1      -4.958   2.530   0.471  0.00  0.00    +0.021 A 
ATOM      6  C   UNL     1      -5.691   3.703   0.428  0.00  0.00    +0.019 A 
ATOM      7  C   UNL     1      -5.039   4.914   0.275  0.00  0.00    +0.034 A 
ATOM      8  C   UNL     1      -3.665   4.958   0.165  0.00  0.00    +0.061 A 
ATOM      9  C   UNL     1      -2.920   3.780   0.208  0.00  0.00    +0.144 A 
ATOM     10  O   UNL     1      -1.581   3.585   0.127  0.00  0.00    -0.460 OA
ATOM     11 BR   UNL     1      -2.788   6.620  -0.044  0.00  0.00    -0.046 Br
ATOM     12 BR   UNL     1      -7.575   3.652   0.578  0.00  0.00    -0.050 Br
ENDROOT
BRANCH   3  18
ATOM     13  C   UNL     1      -3.632  -0.193   1.702  0.00  0.00    -0.049 C 
ATOM     14  C   UNL     1      -3.564  -0.965   3.023  0.00  0.00    +0.141 C 
ATOM     15  O   UNL     1      -3.602  -0.039   4.112  0.00  0.00    -0.383 OA
ATOM     16  C   UNL     1      -2.539   0.917   4.092  0.00  0.00    +0.141 C 
ATOM     17  C   UNL     1      -2.596   1.708   2.783  0.00  0.00    -0.049 C 
ATOM     18  N   UNL     1      -2.503   0.760   1.652  0.00  0.00    +0.392 N 
ATOM     19  H   UNL     1      -1.622   0.239   1.725  0.00  0.00    -0.080 HD
ENDBRANCH   3  18
BRANCH   1  20
ATOM     20  C   UNL     1       0.195   0.294   0.138  0.00  0.00    +0.260 C 
BRANCH  20  21
ATOM     21  O   UNL     1       1.170  -0.041  -0.853  0.00  0.00    -0.488 OA
BRANCH  21  24
ATOM     22  C   UNL     1       2.724  -3.092  -2.082  0.00  0.00    +0.036 A 
ATOM     23  C   UNL     1       2.414  -1.754  -1.938  0.00  0.00    +0.048 A 
ATOM     24  C   UNL     1       1.476  -1.357  -0.996  0.00  0.00    +0.121 A 
ATOM     25  C   UNL     1       0.856  -2.306  -0.196  0.00  0.00    +0.048 A 
ATOM     26  C   UNL     1       1.166  -3.644  -0.347  0.00  0.00    +0.036 A 
ATOM     27  C   UNL     1       2.101  -4.037  -1.287  0.00  0.00    +0.126 A 
BRANCH  27  28
ATOM     28  N   UNL     1       2.435  -5.470  -1.442  0.00  0.00    +0.056 N 
ATOM     29  O   UNL     1       3.259  -5.817  -2.270  0.00  0.00    -0.126 OA
ATOM     30  O   UNL     1       1.887  -6.303  -0.743  0.00  0.00    -0.126 OA
ENDBRANCH  27  28
ENDBRANCH  21  24
ENDBRANCH  20  21
ENDBRANCH   1  20
TORSDOF 5
