REMARK  Name = ZINC67304341
REMARK  3 active torsions:
REMARK  status: ('A' for Active; 'I' for Inactive)
REMARK    1  A    between atoms: C_5  and  C_7
REMARK    2  A    between atoms: C_10  and  N_12
REMARK    3  A    between atoms: C_13  and  C_15
REMARK                            x       y       z     vdW  Elec       q    Type
REMARK                         _______ _______ _______ _____ _____    ______ ____
ROOT
ATOM      1  N   UNL     1       1.148  -4.141  -1.674  0.00  0.00    -0.312 N 
ATOM      2  C   UNL     1       0.945  -4.542  -2.945  0.00  0.00    +0.216 C 
ATOM      3  O   UNL     1       0.263  -3.871  -3.690  0.00  0.00    -0.276 OA
ATOM      4  H   UNL     1       1.693  -4.678  -1.077  0.00  0.00    +0.149 HD
ENDROOT
BRANCH   2   5
ATOM      5  C   UNL     1       1.565  -5.824  -3.439  0.00  0.00    +0.075 C 
ATOM      6  C   UNL     1       3.087  -5.734  -3.318  0.00  0.00    +0.015 C 
ATOM      7  C   UNL     1       3.715  -7.041  -3.809  0.00  0.00    +0.036 C 
ATOM      8  C   UNL     1       3.317  -7.286  -5.260  0.00  0.00    +0.112 C 
ATOM      9  C   UNL     1       1.800  -7.353  -5.400  0.00  0.00    +0.036 C 
ATOM     10  C   UNL     1       1.180  -6.044  -4.903  0.00  0.00    +0.015 C 
ATOM     11  C   UNL     1       3.882  -6.205  -6.152  0.00  0.00    +0.244 C 
ATOM     12  O   UNL     1       3.648  -5.016  -6.104  0.00  0.00    -0.273 OA
ATOM     13  N   UNL     1       4.702  -6.842  -7.014  0.00  0.00    -0.238 N 
ATOM     14  C   UNL     1       4.729  -8.161  -6.787  0.00  0.00    +0.307 C 
ATOM     15  O   UNL     1       5.394  -8.945  -7.434  0.00  0.00    -0.252 OA
ATOM     16  N   UNL     1       3.934  -8.521  -5.761  0.00  0.00    -0.285 N 
ATOM     17  H   UNL     1       5.210  -6.399  -7.712  0.00  0.00    +0.159 HD
ATOM     18  H   UNL     1       3.797  -9.418  -5.419  0.00  0.00    +0.151 HD
ENDBRANCH   2   5
BRANCH   1  21
ATOM     19  C   UNL     1       1.228  -2.186  -0.022  0.00  0.00    +0.044 C 
ATOM     20  C   UNL     1      -0.102  -2.912   0.193  0.00  0.00    +0.033 C 
ATOM     21  C   UNL     1       0.546  -2.895  -1.194  0.00  0.00    +0.081 C 
BRANCH  19  26
ATOM     22  C   UNL     1      -0.017   1.378   0.010  0.00  0.00    +0.000 A 
ATOM     23  C   UNL     1       1.171   2.087   0.002  0.00  0.00    +0.003 A 
ATOM     24  C   UNL     1       2.377   1.414  -0.013  0.00  0.00    +0.038 A 
ATOM     25  C   UNL     1       2.397   0.029  -0.021  0.00  0.00    +0.127 A 
ATOM     26  C   UNL     1       1.208  -0.679  -0.013  0.00  0.00    -0.007 A 
ATOM     27  C   UNL     1       0.002  -0.004   0.002  0.00  0.00    +0.007 A 
ATOM     28  F   UNL     1       3.577  -0.630  -0.036  0.00  0.00    -0.205 F 
ENDBRANCH  19  26
ENDBRANCH   1  21
TORSDOF 3
