REMARK  Name = ZINC44340880
REMARK  7 active torsions:
REMARK  status: ('A' for Active; 'I' for Inactive)
REMARK    1  A    between atoms: C_1  and  C_2
REMARK    2  A    between atoms: C_2  and  O_3
REMARK    3  A    between atoms: O_3  and  C_4
REMARK    4  A    between atoms: C_4  and  C_6
REMARK    5  A    between atoms: C_6  and  C_8
REMARK    6  A    between atoms: C_6  and  N_26
REMARK    7  A    between atoms: C_8  and  C_9
REMARK                            x       y       z     vdW  Elec       q    Type
REMARK                         _______ _______ _______ _____ _____    ______ ____
ROOT
ATOM      1  C   UNL     1      -4.890  -2.871  -1.368  0.00  0.00    +0.002 A 
ATOM      2  C   UNL     1      -5.306  -4.271  -1.423  0.00  0.00    -0.011 A 
ATOM      3  C   UNL     1      -4.587  -5.469  -1.512  0.00  0.00    +0.009 A 
ATOM      4  C   UNL     1      -5.258  -6.671  -1.547  0.00  0.00    +0.001 A 
ATOM      5  C   UNL     1      -6.644  -6.709  -1.496  0.00  0.00    +0.001 A 
ATOM      6  C   UNL     1      -7.374  -5.543  -1.409  0.00  0.00    +0.009 A 
ATOM      7  C   UNL     1      -6.718  -4.316  -1.371  0.00  0.00    -0.007 A 
ATOM      8  C   UNL     1      -7.180  -2.921  -1.281  0.00  0.00    +0.026 A 
ATOM      9  C   UNL     1      -8.416  -2.345  -1.204  0.00  0.00    +0.023 A 
ATOM     10  C   UNL     1      -8.495  -0.885  -1.125  0.00  0.00    +0.018 A 
ATOM     11  C   UNL     1      -9.739  -0.245  -1.044  0.00  0.00    +0.011 A 
ATOM     12  C   UNL     1      -9.798   1.118  -0.971  0.00  0.00    +0.001 A 
ATOM     13  C   UNL     1      -8.633   1.873  -0.978  0.00  0.00    +0.004 A 
ATOM     14  C   UNL     1      -7.399   1.262  -1.058  0.00  0.00    +0.047 A 
ATOM     15  C   UNL     1      -7.313  -0.123  -1.132  0.00  0.00    +0.136 A 
ATOM     16  O   UNL     1      -6.106  -0.722  -1.211  0.00  0.00    -0.455 OA
ATOM     17  C   UNL     1      -5.980  -2.069  -1.278  0.00  0.00    +0.140 A 
ENDROOT
BRANCH   1  18
ATOM     18  C   UNL     1      -3.462  -2.390  -1.398  0.00  0.00    +0.034 C 
BRANCH  18  19
ATOM     19  C   UNL     1      -2.881  -2.427   0.017  0.00  0.00    +0.040 C 
BRANCH  19  20
ATOM     20  N   UNL     1      -2.813  -3.818   0.482  0.00  0.00    +0.387 N 
ATOM     21  H   UNL     1      -2.222  -4.352  -0.138  0.00  0.00    -0.089 HD
ATOM     22  H   UNL     1      -2.429  -3.842   1.415  0.00  0.00    -0.089 HD
ATOM     23  H   UNL     1      -3.740  -4.216   0.489  0.00  0.00    -0.089 HD
ENDBRANCH  19  20
BRANCH  19  24
ATOM     24  C   UNL     1      -1.496  -1.832   0.006  0.00  0.00    +0.293 C 
ATOM     25  O   UNL     1      -0.528  -2.555  -0.007  0.00  0.00    -0.253 OA
BRANCH  24  26
ATOM     26  O   UNL     1      -1.339  -0.499   0.012  0.00  0.00    -0.466 OA
BRANCH  26  28
ATOM     27  C   UNL     1      -0.019   1.526   0.010  0.00  0.00    +0.048 C 
ATOM     28  C   UNL     1       0.002  -0.004   0.002  0.00  0.00    +0.228 C 
ENDBRANCH  26  28
ENDBRANCH  24  26
ENDBRANCH  19  24
ENDBRANCH  18  19
ENDBRANCH   1  18
TORSDOF 6
