REMARK  Name = ZINC01990541
REMARK  13 active torsions:
REMARK  status: ('A' for Active; 'I' for Inactive)
REMARK    1  A    between atoms: C_1  and  C_2
REMARK    2  A    between atoms: C_2  and  O_3
REMARK    3  A    between atoms: O_3  and  C_4
REMARK    4  A    between atoms: C_4  and  C_6
REMARK    5  A    between atoms: C_7  and  C_27
REMARK    6  A    between atoms: C_8  and  C_26
REMARK    7  A    between atoms: C_10  and  N_11
REMARK    8  A    between atoms: C_12  and  C_14
REMARK    9  A    between atoms: C_14  and  C_15
REMARK   10  A    between atoms: C_15  and  C_16
REMARK   11  A    between atoms: C_16  and  O_17
REMARK   12  A    between atoms: O_17  and  C_18
REMARK   13  A    between atoms: C_21  and  C_25
REMARK                            x       y       z     vdW  Elec       q    Type
REMARK                         _______ _______ _______ _____ _____    ______ ____
ROOT
ATOM      1  C   UNL     1       1.357  -0.309  -0.013  0.00  0.00    +0.095 A 
ATOM      2  C   UNL     1       2.278   0.811  -0.015  0.00  0.00    +0.008 A 
ATOM      3  C   UNL     1       1.729   2.053  -0.003  0.00  0.00    -0.003 A 
ATOM      4  S   UNL     1      -0.021   1.727   0.011  0.00  0.00    -0.077 S 
ATOM      5  C   UNL     1       0.002  -0.004   0.002  0.00  0.00    +0.087 A 
ATOM      6  C   UNL     1       2.432   3.386  -0.003  0.00  0.00    +0.052 C 
ENDROOT
BRANCH   2   7
ATOM      7  C   UNL     1       3.746   0.611  -0.031  0.00  0.00    -0.016 A 
ATOM      8  C   UNL     1       4.382   0.010   1.055  0.00  0.00    +0.008 A 
ATOM      9  C   UNL     1       5.749  -0.178   1.033  0.00  0.00    +0.001 A 
ATOM     10  C   UNL     1       6.490   0.237  -0.059  0.00  0.00    +0.000 A 
ATOM     11  C   UNL     1       5.865   0.838  -1.138  0.00  0.00    +0.001 A 
ATOM     12  C   UNL     1       4.498   1.027  -1.129  0.00  0.00    +0.008 A 
ENDBRANCH   2   7
BRANCH   5  13
ATOM     13  N   UNL     1      -1.074  -0.877   0.008  0.00  0.00    -0.279 N 
ATOM     14  C   UNL     1      -2.333  -0.395   0.023  0.00  0.00    +0.218 C 
ATOM     15  O   UNL     1      -2.523   0.803   0.031  0.00  0.00    -0.275 OA
ATOM     16  H   UNL     1      -0.901  -1.963  -0.000  0.00  0.00    +0.155 HD
BRANCH  14  17
ATOM     17  C   UNL     1      -3.503  -1.344   0.029  0.00  0.00    +0.099 C 
BRANCH  17  18
ATOM     18  C   UNL     1      -4.808  -0.545   0.046  0.00  0.00    +0.050 C 
BRANCH  18  19
ATOM     19  C   UNL     1      -5.996  -1.509   0.052  0.00  0.00    +0.229 C 
BRANCH  19  20
ATOM     20  O   UNL     1      -7.215  -0.762   0.069  0.00  0.00    -0.491 OA
BRANCH  20  21
ATOM     21  C   UNL     1      -8.373  -1.473   0.076  0.00  0.00    +0.134 A 
ATOM     22  C   UNL     1      -8.338  -2.860   0.068  0.00  0.00    +0.047 A 
ATOM     23  C   UNL     1      -9.517  -3.580   0.076  0.00  0.00    +0.007 A 
ATOM     24  C   UNL     1     -10.732  -2.919   0.092  0.00  0.00    -0.049 A 
ATOM     25  C   UNL     1     -10.771  -1.538   0.101  0.00  0.00    +0.022 A 
ATOM     26  C   UNL     1      -9.594  -0.812   0.097  0.00  0.00    +0.060 A 
ATOM     27 BR   UNL     1      -9.647   1.078   0.116  0.00  0.00    -0.047 Br
ATOM     28  C   UNL     1     -12.016  -3.708   0.101  0.00  0.00    +0.044 C 
ENDBRANCH  20  21
ENDBRANCH  19  20
ENDBRANCH  18  19
ENDBRANCH  17  18
ENDBRANCH  14  17
ENDBRANCH   5  13
BRANCH   1  29
ATOM     29  C   UNL     1       1.831  -1.693  -0.025  0.00  0.00    +0.342 C 
ATOM     30  O   UNL     1       2.018  -2.262  -1.084  0.00  0.00    -0.245 OA
BRANCH  29  31
ATOM     31  O   UNL     1       2.062  -2.337   1.137  0.00  0.00    -0.461 OA
BRANCH  31  33
ATOM     32  C   UNL     1       2.736  -4.269   2.458  0.00  0.00    +0.048 C 
ATOM     33  C   UNL     1       2.532  -3.708   1.049  0.00  0.00    +0.229 C 
ENDBRANCH  31  33
ENDBRANCH  29  31
ENDBRANCH   1  29
TORSDOF 10
