REMARK  Name = ZINC06076910
REMARK  15 active torsions:
REMARK  status: ('A' for Active; 'I' for Inactive)
REMARK    1  A    between atoms: C_1  and  C_2
REMARK    2  A    between atoms: C_2  and  C_3
REMARK    3  A    between atoms: C_2  and  C_4
REMARK    4  A    between atoms: C_4  and  C_5
REMARK    5  A    between atoms: C_5  and  N_6
REMARK    6  A    between atoms: C_7  and  C_9
REMARK    7  A    between atoms: C_9  and  C_11
REMARK    8  A    between atoms: C_9  and  N_20
REMARK    9  A    between atoms: C_14  and  N_17
REMARK   10  A    between atoms: N_17  and  C_18
REMARK   11  A    between atoms: N_17  and  C_19
REMARK   12  A    between atoms: N_20  and  C_21
REMARK   13  A    between atoms: C_27  and  C_29
REMARK   14  A    between atoms: C_30  and  N_37
REMARK   15  A    between atoms: C_31  and  C_34
REMARK                            x       y       z     vdW  Elec       q    Type
REMARK                         _______ _______ _______ _____ _____    ______ ____
ROOT
ATOM      1  N   UNL     1      -0.144  -0.131  -0.487  0.00  0.00    -0.251 N 
ATOM      2  C   UNL     1      -1.380  -0.442  -0.926  0.00  0.00    +0.262 C 
ATOM      3  O   UNL     1      -2.331   0.248  -0.607  0.00  0.00    -0.269 OA
ENDROOT
BRANCH   1   4
ATOM      4  C   UNL     1       0.937  -0.963  -0.797  0.00  0.00    +0.038 A 
ATOM      5  C   UNL     1       1.016  -2.235  -0.246  0.00  0.00    +0.023 A 
ATOM      6  C   UNL     1       2.083  -3.055  -0.556  0.00  0.00    +0.002 A 
ATOM      7  C   UNL     1       3.077  -2.607  -1.407  0.00  0.00    +0.000 A 
ATOM      8  C   UNL     1       3.003  -1.339  -1.954  0.00  0.00    +0.002 A 
ATOM      9  C   UNL     1       1.937  -0.516  -1.651  0.00  0.00    +0.023 A 
ENDBRANCH   1   4
BRANCH   2  10
ATOM     10  C   UNL     1      -1.580  -1.609  -1.787  0.00  0.00    +0.116 A 
ATOM     11  C   UNL     1      -2.769  -2.168  -2.258  0.00  0.00    +0.076 A 
ATOM     12  C   UNL     1      -2.551  -3.288  -3.062  0.00  0.00    +0.155 A 
ATOM     13  N   UNL     1      -1.319  -3.688  -3.288  0.00  0.00    -0.203 NA
ATOM     14  S   UNL     1      -0.370  -2.691  -2.519  0.00  0.00    +0.019 S 
BRANCH  12  15
ATOM     15  C   UNL     1      -3.690  -4.014  -3.652  0.00  0.00    +0.262 C 
ATOM     16  O   UNL     1      -4.827  -3.639  -3.439  0.00  0.00    -0.269 OA
ATOM     17  N   UNL     1      -3.472  -5.095  -4.428  0.00  0.00    -0.324 N 
ATOM     18  H   UNL     1      -2.565  -5.394  -4.598  0.00  0.00    +0.145 HD
ATOM     19  H   UNL     1      -4.221  -5.573  -4.816  0.00  0.00    +0.145 HD
ENDBRANCH  12  15
BRANCH  11  20
ATOM     20  N   UNL     1      -4.029  -1.666  -1.960  0.00  0.00    -0.355 N 
ATOM     21  H   UNL     1      -4.117  -0.883  -1.395  0.00  0.00    +0.142 HD
ATOM     22  H   UNL     1      -4.820  -2.099  -2.318  0.00  0.00    +0.142 HD
ENDBRANCH  11  20
ENDBRANCH   2  10
BRANCH   1  23
ATOM     23  C   UNL     1       0.067   1.077   0.313  0.00  0.00    +0.197 C 
BRANCH  23  24
ATOM     24  C   UNL     1       1.544   1.294   0.516  0.00  0.00    -0.018 A 
ATOM     25  C   UNL     1       2.323   0.283   1.049  0.00  0.00    +0.008 A 
ATOM     26  C   UNL     1       3.678   0.476   1.231  0.00  0.00    +0.023 A 
ATOM     27  C   UNL     1       4.257   1.692   0.889  0.00  0.00    +0.029 A 
ATOM     28  C   UNL     1       3.470   2.707   0.359  0.00  0.00    +0.023 A 
ATOM     29  C   UNL     1       2.117   2.505   0.175  0.00  0.00    +0.008 A 
BRANCH  27  30
ATOM     30  N   UNL     1       5.626   1.893   1.077  0.00  0.00    -0.336 N 
ATOM     31  C   UNL     1       6.220   3.201   0.792  0.00  0.00    +0.129 C 
ATOM     32  C   UNL     1       6.468   0.795   1.560  0.00  0.00    +0.129 C 
ENDBRANCH  27  30
ENDBRANCH  23  24
BRANCH  23  34
ATOM     33  N   UNL     1      -0.544   1.909   2.561  0.00  0.00    -0.313 N 
ATOM     34  C   UNL     1      -0.606   0.916   1.652  0.00  0.00    +0.238 C 
ATOM     35  O   UNL     1      -1.203  -0.107   1.912  0.00  0.00    -0.273 OA
ATOM     36  H   UNL     1      -0.067   2.728   2.353  0.00  0.00    +0.149 HD
BRANCH  33  37
ATOM     37  C   UNL     1      -1.198   1.753   3.863  0.00  0.00    +0.104 C 
BRANCH  37  38
ATOM     38  C   UNL     1      -0.978   3.015   4.699  0.00  0.00    +0.022 C 
BRANCH  38  40
ATOM     39  C   UNL     1      -0.981   1.725   6.839  0.00  0.00    +0.007 C 
ATOM     40  C   UNL     1      -1.661   2.851   6.059  0.00  0.00    -0.016 C 
ATOM     41  C   UNL     1      -1.548   4.158   6.846  0.00  0.00    +0.007 C 
ENDBRANCH  38  40
ENDBRANCH  37  38
ENDBRANCH  33  37
ENDBRANCH  23  34
ENDBRANCH   1  23
TORSDOF 11
