REMARK  Name = ZINC39290088
REMARK  11 active torsions:
REMARK  status: ('A' for Active; 'I' for Inactive)
REMARK    1  A    between atoms: C_2  and  C_3
REMARK    2  A    between atoms: C_3  and  S_4
REMARK    3  A    between atoms: S_4  and  C_5
REMARK    4  A    between atoms: C_9  and  C_14
REMARK    5  A    between atoms: C_14  and  C_15
REMARK    6  A    between atoms: C_14  and  C_24
REMARK    7  A    between atoms: C_18  and  N_21
REMARK    8  A    between atoms: C_25  and  N_35
REMARK    9  A    between atoms: C_27  and  S_31
REMARK   10  A    between atoms: S_31  and  C_32
REMARK   11  A    between atoms: C_32  and  C_33
REMARK                            x       y       z     vdW  Elec       q    Type
REMARK                         _______ _______ _______ _____ _____    ______ ____
ROOT
ATOM      1  C   UNL     1      -6.698  -3.276  -1.536  0.00  0.00    +0.077 C 
ENDROOT
BRANCH   1   6
ATOM      2  C   UNL     1      -2.889  -2.873  -1.304  0.00  0.00    +0.182 C 
ATOM      3  N   UNL     1      -3.544  -2.770  -0.160  0.00  0.00    -0.154 NA
ATOM      4  C   UNL     1      -4.766  -3.276   0.001  0.00  0.00    +0.249 C 
ATOM      5  O   UNL     1      -5.360  -3.176   1.057  0.00  0.00    -0.273 OA
ATOM      6  C   UNL     1      -5.386  -3.983  -1.191  0.00  0.00    +0.152 C 
ATOM      7  C   UNL     1      -4.537  -4.037  -2.448  0.00  0.00    +0.108 C 
ATOM      8  N   UNL     1      -3.353  -3.469  -2.403  0.00  0.00    -0.213 NA
ATOM      9  N   UNL     1      -4.984  -4.640  -3.571  0.00  0.00    -0.346 N 
ATOM     10  H   UNL     1      -5.863  -5.050  -3.584  0.00  0.00    +0.143 HD
ATOM     11  H   UNL     1      -4.426  -4.663  -4.364  0.00  0.00    +0.143 HD
BRANCH   2  12
ATOM     12  S   UNL     1      -1.280  -2.159  -1.385  0.00  0.00    -0.084 S 
BRANCH  12  13
ATOM     13  C   UNL     1      -1.024  -1.464   0.271  0.00  0.00    +0.103 C 
BRANCH  13  15
ATOM     14  C   UNL     1       0.432   0.480   0.514  0.00  0.00    +0.005 C 
ATOM     15  C   UNL     1       0.334  -0.815   0.339  0.00  0.00    -0.023 C 
ENDBRANCH  13  15
ENDBRANCH  12  13
ENDBRANCH   2  12
ENDBRANCH   1   6
BRANCH   1  16
ATOM     16  C   UNL     1      -7.629  -3.341  -0.353  0.00  0.00    +0.065 A 
ATOM     17  C   UNL     1      -8.364  -2.228   0.030  0.00  0.00    +0.128 A 
ATOM     18  N   UNL     1      -9.186  -2.305   1.083  0.00  0.00    -0.209 NA
ATOM     19  C   UNL     1      -9.313  -3.423   1.768  0.00  0.00    +0.171 A 
ATOM     20  N   UNL     1      -8.614  -4.543   1.432  0.00  0.00    -0.302 N 
ATOM     21  C   UNL     1      -7.774  -4.526   0.376  0.00  0.00    +0.258 A 
ATOM     22  O   UNL     1      -7.147  -5.526   0.065  0.00  0.00    -0.267 OA
ATOM     23  H   UNL     1      -8.723  -5.356   1.950  0.00  0.00    +0.171 HD
BRANCH  17  24
ATOM     24  N   UNL     1      -8.247  -1.045  -0.672  0.00  0.00    -0.343 N 
ATOM     25  H   UNL     1      -7.728  -1.016  -1.490  0.00  0.00    +0.144 HD
ATOM     26  H   UNL     1      -8.684  -0.242  -0.346  0.00  0.00    +0.144 HD
ENDBRANCH  17  24
BRANCH  19  27
ATOM     27  S   UNL     1     -10.410  -3.471   3.146  0.00  0.00    -0.084 S 
BRANCH  27  28
ATOM     28  C   UNL     1     -11.103  -1.797   3.214  0.00  0.00    +0.104 C 
BRANCH  28  29
ATOM     29  C   UNL     1     -12.071  -1.700   4.365  0.00  0.00    -0.023 C 
ATOM     30  C   UNL     1     -11.811  -0.907   5.375  0.00  0.00    +0.005 C 
ENDBRANCH  28  29
ENDBRANCH  27  28
ENDBRANCH  19  27
ENDBRANCH   1  16
BRANCH   1  31
ATOM     31  C   UNL     1      -7.339  -3.956  -2.718  0.00  0.00    -0.038 A 
ATOM     32  C   UNL     1      -7.662  -5.299  -2.652  0.00  0.00    +0.006 A 
ATOM     33  C   UNL     1      -8.251  -5.923  -3.736  0.00  0.00    +0.033 A 
ATOM     34  C   UNL     1      -8.516  -5.204  -4.887  0.00  0.00    +0.126 A 
ATOM     35  C   UNL     1      -8.194  -3.861  -4.953  0.00  0.00    +0.033 A 
ATOM     36  C   UNL     1      -7.609  -3.236  -3.867  0.00  0.00    +0.006 A 
BRANCH  34  37
ATOM     37  N   UNL     1      -9.145  -5.872  -6.048  0.00  0.00    +0.056 N 
ATOM     38  O   UNL     1      -9.427  -7.046  -5.990  0.00  0.00    -0.126 OA
ATOM     39  O   UNL     1      -9.377  -5.243  -7.054  0.00  0.00    -0.126 OA
ENDBRANCH  34  37
ENDBRANCH   1  31
TORSDOF 11
