REMARK  Name = ZINC36583895
REMARK  11 active torsions:
REMARK  status: ('A' for Active; 'I' for Inactive)
REMARK    1  A    between atoms: C_1  and  C_2
REMARK    2  A    between atoms: C_2  and  C_3
REMARK    3  A    between atoms: C_2  and  C_4
REMARK    4  A    between atoms: C_2  and  N_5
REMARK    5  A    between atoms: N_5  and  C_6
REMARK    6  A    between atoms: C_6  and  C_8
REMARK    7  A    between atoms: C_6  and  C_15
REMARK    8  A    between atoms: C_13  and  O_14
REMARK    9  A    between atoms: N_17  and  C_18
REMARK   10  A    between atoms: C_24  and  C_26
REMARK   11  A    between atoms: C_26  and  C_27
REMARK                            x       y       z     vdW  Elec       q    Type
REMARK                         _______ _______ _______ _____ _____    ______ ____
ROOT
ATOM      1  C   UNL     1       2.398  -0.492  -1.494  0.00  0.00    +0.196 C 
ENDROOT
BRANCH   1   2
ATOM      2  C   UNL     1       2.880   0.926  -1.323  0.00  0.00    +0.023 A 
ATOM      3  C   UNL     1       2.357   1.718  -0.320  0.00  0.00    +0.009 A 
ATOM      4  C   UNL     1       2.799   3.019  -0.163  0.00  0.00    +0.001 A 
ATOM      5  C   UNL     1       3.766   3.530  -1.010  0.00  0.00    +0.004 A 
ATOM      6  C   UNL     1       4.292   2.742  -2.014  0.00  0.00    +0.046 A 
ATOM      7  C   UNL     1       3.854   1.434  -2.170  0.00  0.00    +0.122 A 
BRANCH   7   8
ATOM      8  O   UNL     1       4.375   0.655  -3.155  0.00  0.00    -0.506 OA
ATOM      9  H   UNL     1       3.897   0.710  -3.994  0.00  0.00    +0.292 HD
ENDBRANCH   7   8
ENDBRANCH   1   2
BRANCH   1  10
ATOM     10  C   UNL     1       3.415  -1.442  -0.916  0.00  0.00    +0.238 C 
ATOM     11  O   UNL     1       3.095  -2.209  -0.034  0.00  0.00    -0.273 OA
ATOM     12  N   UNL     1       4.681  -1.438  -1.379  0.00  0.00    -0.311 N 
ATOM     13  H   UNL     1       4.937  -0.823  -2.085  0.00  0.00    +0.149 HD
BRANCH  12  14
ATOM     14  C   UNL     1       5.670  -2.361  -0.817  0.00  0.00    +0.073 C 
ATOM     15  C   UNL     1       6.284  -1.746   0.442  0.00  0.00    +0.022 C 
ATOM     16  C   UNL     1       7.317  -2.710   1.028  0.00  0.00    +0.002 C 
ATOM     17  C   UNL     1       8.417  -2.968  -0.003  0.00  0.00    +0.000 C 
ATOM     18  C   UNL     1       7.803  -3.584  -1.261  0.00  0.00    +0.002 C 
ATOM     19  C   UNL     1       6.770  -2.619  -1.848  0.00  0.00    +0.022 C 
ENDBRANCH  12  14
ENDBRANCH   1  10
BRANCH   1  20
ATOM     20  N   UNL     1       1.121  -0.660  -0.797  0.00  0.00    -0.280 N 
ATOM     21  C   UNL     1       1.074  -0.593   0.549  0.00  0.00    +0.221 C 
ATOM     22  O   UNL     1       2.070  -0.303   1.177  0.00  0.00    -0.275 OA
BRANCH  20  24
ATOM     23  C   UNL     1       0.249  -1.141  -3.030  0.00  0.00    +0.031 C 
ATOM     24  C   UNL     1      -0.105  -0.901  -1.561  0.00  0.00    +0.030 C 
ATOM     25  C   UNL     1      -1.024   0.317  -1.451  0.00  0.00    +0.031 C 
ATOM     26  C   UNL     1      -0.821  -2.132  -1.002  0.00  0.00    +0.031 C 
ENDBRANCH  20  24
BRANCH  21  27
ATOM     27  C   UNL     1      -0.217  -0.878   1.273  0.00  0.00    +0.131 C 
BRANCH  27  28
ATOM     28  C   UNL     1      -0.077  -0.488   2.721  0.00  0.00    -0.039 A 
ATOM     29  C   UNL     1       0.382  -1.409   3.644  0.00  0.00    +0.005 A 
ATOM     30  C   UNL     1       0.510  -1.052   4.973  0.00  0.00    +0.015 A 
ATOM     31  C   UNL     1       0.180   0.229   5.380  0.00  0.00    +0.018 A 
ATOM     32  C   UNL     1      -0.279   1.150   4.456  0.00  0.00    +0.015 A 
ATOM     33  C   UNL     1      -0.403   0.793   3.126  0.00  0.00    +0.005 A 
ATOM     34 BR   UNL     1       0.355   0.718   7.198  0.00  0.00    -0.050 Br
ENDBRANCH  27  28
ENDBRANCH  21  27
ENDBRANCH   1  20
TORSDOF 8
