REMARK  Name = ZINC14543938
REMARK  8 active torsions:
REMARK  status: ('A' for Active; 'I' for Inactive)
REMARK    1  A    between atoms: C_1  and  C_2
REMARK    2  A    between atoms: C_5  and  N_9
REMARK    3  A    between atoms: C_7  and  C_8
REMARK    4  A    between atoms: N_9  and  S_10
REMARK    5  A    between atoms: S_10  and  C_13
REMARK    6  A    between atoms: C_26  and  C_29
REMARK    7  A    between atoms: C_38  and  O_39
REMARK    8  A    between atoms: O_39  and  C_40
REMARK                            x       y       z     vdW  Elec       q    Type
REMARK                         _______ _______ _______ _____ _____    ______ ____
ROOT
ATOM      1  C   UNL     1       7.415   5.282   0.540  0.00  0.00    +0.109 A 
ATOM      2  C   UNL     1       6.963   5.449  -0.756  0.00  0.00    +0.030 A 
ATOM      3  C   UNL     1       5.607   5.446  -1.013  0.00  0.00    +0.025 A 
ATOM      4  C   UNL     1       4.703   5.275   0.027  0.00  0.00    +0.031 A 
ATOM      5  C   UNL     1       5.151   5.109   1.329  0.00  0.00    -0.018 A 
ATOM      6  C   UNL     1       6.517   5.114   1.574  0.00  0.00    +0.034 A 
ATOM      7  C   UNL     1       4.215   4.925   2.481  0.00  0.00    +0.049 C 
ATOM      8  C   UNL     1       4.193   3.490   2.951  0.00  0.00    -0.023 C 
ATOM      9  C   UNL     1       2.983   3.155   3.328  0.00  0.00    -0.030 C 
ATOM     10  C   UNL     1       2.033   4.325   3.165  0.00  0.00    +0.033 C 
ATOM     11  C   UNL     1       2.748   5.229   2.118  0.00  0.00    +0.029 C 
ATOM     12  C   UNL     1       2.425   4.664   0.732  0.00  0.00    +0.109 C 
ATOM     13  N   UNL     1       3.331   5.269  -0.250  0.00  0.00    -0.336 N 
ATOM     14  H   UNL     1       2.989   5.654  -1.071  0.00  0.00    +0.147 HD
ENDROOT
BRANCH  12  15
ATOM     15  C   UNL     1       2.614   3.169   0.739  0.00  0.00    +0.022 A 
ATOM     16  C   UNL     1       1.565   2.327   1.143  0.00  0.00    -0.009 A 
ATOM     17  C   UNL     1       0.324   2.850   1.546  0.00  0.00    +0.009 A 
ATOM     18  C   UNL     1      -0.671   2.004   1.931  0.00  0.00    +0.001 A 
ATOM     19  C   UNL     1      -0.480   0.624   1.925  0.00  0.00    +0.001 A 
ATOM     20  C   UNL     1       0.709   0.082   1.547  0.00  0.00    +0.008 A 
ATOM     21  C   UNL     1       1.760   0.923   1.143  0.00  0.00    -0.017 A 
ATOM     22  C   UNL     1       3.000   0.398   0.740  0.00  0.00    +0.012 A 
ATOM     23  C   UNL     1       3.996   1.240   0.355  0.00  0.00    +0.046 A 
ATOM     24  C   UNL     1       3.805   2.625   0.353  0.00  0.00    +0.126 A 
BRANCH  24  25
ATOM     25  O   UNL     1       4.820   3.441  -0.037  0.00  0.00    -0.495 OA
ATOM     26  C   UNL     1       5.998   2.813  -0.547  0.00  0.00    +0.277 C 
ENDBRANCH  24  25
ENDBRANCH  12  15
BRANCH   1  27
ATOM     27  S   UNL     1       9.146   5.285   0.873  0.00  0.00    +0.072 S 
ATOM     28  O   UNL     1       9.316   4.671   2.143  0.00  0.00    -0.150 OA
ATOM     29  O   UNL     1       9.786   4.801  -0.300  0.00  0.00    -0.150 OA
BRANCH  27  30
ATOM     30  N   UNL     1       9.608   6.866   1.047  0.00  0.00    -0.216 N 
ATOM     31  H   UNL     1      10.195   7.274   0.391  0.00  0.00    +0.174 HD
BRANCH  30  36
ATOM     32  C   UNL     1       7.768   9.892   5.475  0.00  0.00    +0.044 C 
ATOM     33  C   UNL     1       8.257   9.087   4.299  0.00  0.00    -0.047 A 
ATOM     34  C   UNL     1       7.739   9.324   3.038  0.00  0.00    +0.005 A 
ATOM     35  C   UNL     1       8.189   8.593   1.957  0.00  0.00    +0.025 A 
ATOM     36  C   UNL     1       9.155   7.611   2.138  0.00  0.00    +0.048 A 
ATOM     37  C   UNL     1       9.672   7.375   3.405  0.00  0.00    +0.028 A 
ATOM     38  C   UNL     1       9.222   8.114   4.481  0.00  0.00    -0.046 A 
ATOM     39  C   UNL     1       9.783   7.859   5.857  0.00  0.00    +0.044 C 
ENDBRANCH  30  36
ENDBRANCH  27  30
ENDBRANCH   1  27
TORSDOF 5
