REMARK  Name = ZINC64538812
REMARK  11 active torsions:
REMARK  status: ('A' for Active; 'I' for Inactive)
REMARK    1  A    between atoms: C_1  and  C_2
REMARK    2  A    between atoms: C_5  and  N_8
REMARK    3  A    between atoms: C_9  and  C_11
REMARK    4  A    between atoms: C_15  and  C_18
REMARK    5  A    between atoms: C_18  and  O_19
REMARK    6  A    between atoms: O_19  and  C_20
REMARK    7  A    between atoms: C_20  and  C_21
REMARK    8  A    between atoms: N_23  and  C_24
REMARK    9  A    between atoms: C_24  and  C_25
REMARK   10  A    between atoms: C_25  and  C_26
REMARK   11  A    between atoms: C_29  and  C_35
REMARK                            x       y       z     vdW  Elec       q    Type
REMARK                         _______ _______ _______ _____ _____    ______ ____
ROOT
ATOM      1  O   UNL     1      -0.426  -9.840   2.943  0.00  0.00    -0.368 OA
ENDROOT
BRANCH   1   2
ATOM      2  C   UNL     1      -1.194  -8.931   3.734  0.00  0.00    +0.200 C 
BRANCH   2   6
ATOM      3  C   UNL     1       0.309  -6.349   1.121  0.00  0.00    +0.272 C 
ATOM      4  N   UNL     1      -0.989  -7.003   0.836  0.00  0.00    -0.167 NA
ATOM      5  N   UNL     1      -1.627  -7.530   1.725  0.00  0.00    -0.174 NA
ATOM      6  C   UNL     1      -1.123  -7.532   3.118  0.00  0.00    +0.213 C 
ATOM      7  S   UNL     1       0.627  -7.016   2.816  0.00  0.00    -0.093 S 
BRANCH   3   9
ATOM      8  N   UNL     1       0.059  -4.170  -0.021  0.00  0.00    -0.283 N 
ATOM      9  C   UNL     1       0.175  -4.848   1.138  0.00  0.00    +0.254 C 
ATOM     10  O   UNL     1       0.173  -4.251   2.193  0.00  0.00    -0.272 OA
ATOM     11  H   UNL     1      -0.017  -4.651  -0.860  0.00  0.00    +0.155 HD
BRANCH   8  16
ATOM     12  C   UNL     1       0.008   1.503   0.007  0.00  0.00    +0.044 C 
ATOM     13  C   UNL     1       0.022  -0.004  -0.001  0.00  0.00    -0.050 A 
ATOM     14  C   UNL     1       0.777  -0.692   0.931  0.00  0.00    +0.005 A 
ATOM     15  C   UNL     1       0.791  -2.073   0.927  0.00  0.00    +0.023 A 
ATOM     16  C   UNL     1       0.046  -2.771  -0.014  0.00  0.00    +0.033 A 
ATOM     17  C   UNL     1      -0.712  -2.077  -0.948  0.00  0.00    +0.023 A 
ATOM     18  C   UNL     1      -0.726  -0.696  -0.936  0.00  0.00    +0.005 A 
ENDBRANCH   8  16
ENDBRANCH   3   9
ENDBRANCH   2   6
ENDBRANCH   1   2
BRANCH   1  19
ATOM     19  C   UNL     1      -0.425 -11.181   3.435  0.00  0.00    +0.255 C 
BRANCH  19  20
ATOM     20  C   UNL     1       0.411 -12.048   2.529  0.00  0.00    +0.239 C 
ATOM     21  O   UNL     1       0.954 -11.564   1.558  0.00  0.00    -0.273 OA
ATOM     22  N   UNL     1       0.556 -13.361   2.798  0.00  0.00    -0.313 N 
ATOM     23  H   UNL     1       0.122 -13.748   3.574  0.00  0.00    +0.149 HD
BRANCH  22  24
ATOM     24  C   UNL     1       1.369 -14.203   1.917  0.00  0.00    +0.108 C 
BRANCH  24  25
ATOM     25  C   UNL     1       1.370 -15.640   2.444  0.00  0.00    +0.052 C 
BRANCH  25  26
ATOM     26  C   UNL     1       2.206 -16.506   1.538  0.00  0.00    -0.040 C 
ATOM     27  C   UNL     1       3.508 -16.835   1.702  0.00  0.00    -0.001 A 
ATOM     28  C   UNL     1       4.497 -16.496   2.732  0.00  0.00    +0.013 A 
ATOM     29  C   UNL     1       5.753 -16.986   2.622  0.00  0.00    -0.050 A 
ATOM     30  C   UNL     1       6.133 -17.807   1.551  0.00  0.00    +0.005 A 
ATOM     31  C   UNL     1       5.280 -18.162   0.567  0.00  0.00    +0.026 A 
ATOM     32  C   UNL     1       3.934 -17.704   0.582  0.00  0.00    +0.043 A 
ATOM     33  N   UNL     1       2.934 -17.905  -0.242  0.00  0.00    -0.380 N 
ATOM     34  C   UNL     1       1.758 -17.190   0.266  0.00  0.00    +0.144 C 
ATOM     35  C   UNL     1       6.771 -16.640   3.678  0.00  0.00    +0.044 C 
ATOM     36  H   UNL     1       2.966 -18.440  -1.051  0.00  0.00    +0.160 HD
ENDBRANCH  25  26
ENDBRANCH  24  25
ENDBRANCH  22  24
ENDBRANCH  19  20
ENDBRANCH   1  19
TORSDOF 9
