REMARK  Name = ZINC11898773
REMARK  8 active torsions:
REMARK  status: ('A' for Active; 'I' for Inactive)
REMARK    1  A    between atoms: C_1  and  N_2
REMARK    2  A    between atoms: C_6  and  C_7
REMARK    3  A    between atoms: C_7  and  C_9
REMARK    4  A    between atoms: C_7  and  N_56
REMARK    5  A    between atoms: C_9  and  N_10
REMARK    6  A    between atoms: C_11  and  C_13
REMARK    7  A    between atoms: N_15  and  C_16
REMARK    8  A    between atoms: C_21  and  C_22
REMARK                            x       y       z     vdW  Elec       q    Type
REMARK                         _______ _______ _______ _____ _____    ______ ____
ROOT
ATOM      1  N   UNL     1       1.020   2.625   0.772  0.00  0.00    -0.309 N 
ATOM      2  C   UNL     1       2.075   3.359   1.178  0.00  0.00    +0.299 C 
ATOM      3  O   UNL     1       3.198   2.905   1.098  0.00  0.00    -0.265 OA
ATOM      4  H   UNL     1       0.132   3.013   0.767  0.00  0.00    +0.149 HD
ENDROOT
BRANCH   2   5
ATOM      5  C   UNL     1       1.862   4.732   1.726  0.00  0.00    +0.303 C 
ATOM      6  O   UNL     1       0.735   5.151   1.893  0.00  0.00    -0.265 OA
ATOM      7  N   UNL     1       2.921   5.506   2.037  0.00  0.00    -0.277 N 
ATOM      8  H   UNL     1       3.820   5.202   1.832  0.00  0.00    +0.155 HD
BRANCH   7   9
ATOM      9  C   UNL     1       2.726   6.740   2.651  0.00  0.00    +0.053 A 
ATOM     10  C   UNL     1       1.650   6.930   3.506  0.00  0.00    +0.044 A 
ATOM     11  C   UNL     1       1.458   8.156   4.115  0.00  0.00    +0.043 A 
ATOM     12  C   UNL     1       2.336   9.203   3.876  0.00  0.00    +0.021 A 
ATOM     13  C   UNL     1       3.409   9.031   3.030  0.00  0.00    +0.022 A 
ATOM     14  C   UNL     1       3.620   7.796   2.412  0.00  0.00    +0.073 A 
ATOM     15 CL   UNL     1       0.110   8.387   5.184  0.00  0.00    -0.083 Cl
BRANCH  14  16
ATOM     16  C   UNL     1       4.737   7.609   1.536  0.00  0.00    +0.101 C 
ATOM     17  N   UNL     1       5.624   7.461   0.841  0.00  0.00    -0.191 NA
ENDBRANCH  14  16
ENDBRANCH   7   9
ENDBRANCH   2   5
BRANCH   1  18
ATOM     18  C   UNL     1       1.217   1.240   0.338  0.00  0.00    +0.095 C 
BRANCH  18  19
ATOM     19  C   UNL     1      -0.142   0.599   0.049  0.00  0.00    -0.003 C 
BRANCH  19  26
ATOM     20  C   UNL     1      -0.280   0.497   2.473  0.00  0.00    -0.078 C 
ATOM     21  C   UNL     1      -1.185   0.381   3.669  0.00  0.00    -0.019 C 
ATOM     22  C   UNL     1      -1.524  -1.109   3.884  0.00  0.00    -0.002 C 
ATOM     23  C   UNL     1      -2.550  -1.580   2.961  0.00  0.00    -0.002 C 
ATOM     24  C   UNL     1      -2.108  -1.459   1.488  0.00  0.00    -0.019 C 
ATOM     25  C   UNL     1      -2.263  -0.025   1.058  0.00  0.00    -0.078 C 
ATOM     26  N   UNL     1      -1.024   0.813   1.206  0.00  0.00    +0.386 N 
ATOM     27  H   UNL     1      -1.303   1.800   1.233  0.00  0.00    -0.081 HD
ENDBRANCH  19  26
BRANCH  19  33
ATOM     28  C   UNL     1       0.963   0.615  -2.848  0.00  0.00    +0.148 C 
ATOM     29  N   UNL     1      -0.274   1.269  -2.416  0.00  0.00    -0.355 N 
ATOM     30  C   UNL     1      -1.119   1.979  -3.216  0.00  0.00    +0.085 A 
ATOM     31  C   UNL     1      -2.143   2.425  -2.459  0.00  0.00    +0.019 A 
ATOM     32  C   UNL     1      -1.923   1.969  -1.144  0.00  0.00    +0.021 A 
ATOM     33  C   UNL     1      -0.770   1.270  -1.146  0.00  0.00    +0.006 A 
ENDBRANCH  19  33
ENDBRANCH  18  19
ENDBRANCH   1  18
TORSDOF 7
