REMARK  Name = ZINC43113799
REMARK  5 active torsions:
REMARK  status: ('A' for Active; 'I' for Inactive)
REMARK    1  A    between atoms: C_3  and  C_6
REMARK    2  A    between atoms: C_6  and  C_8
REMARK    3  A    between atoms: C_6  and  S_10
REMARK    4  A    between atoms: C_8  and  N_9
REMARK    5  A    between atoms: S_10  and  C_11
REMARK                            x       y       z     vdW  Elec       q    Type
REMARK                         _______ _______ _______ _____ _____    ______ ____
ROOT
ATOM      1  C   UNL     1       3.758   1.789  -0.025  0.00  0.00    +0.104 C 
ENDROOT
BRANCH   1   4
ATOM      2  C   UNL     1       0.079   0.857  -0.351  0.00  0.00    +0.008 A 
ATOM      3  C   UNL     1       1.182   1.677  -0.210  0.00  0.00    +0.012 A 
ATOM      4  C   UNL     1       2.417   1.118  -0.170  0.00  0.00    +0.004 A 
ATOM      5  S   UNL     1       2.040  -0.619  -0.334  0.00  0.00    -0.100 S 
ATOM      6  C   UNL     1       0.264  -0.483  -0.444  0.00  0.00    +0.045 A 
ENDBRANCH   1   4
BRANCH   1   7
ATOM      7  C   UNL     1       4.622   1.471  -1.248  0.00  0.00    +0.097 C 
BRANCH   7   8
ATOM      8  N   UNL     1       5.879   2.227  -1.169  0.00  0.00    -0.329 NA
ATOM      9  H   UNL     1       6.404   1.971  -0.347  0.00  0.00    +0.118 HD
ATOM     10  H   UNL     1       6.430   2.100  -2.005  0.00  0.00    +0.118 HD
ENDBRANCH   7   8
ENDBRANCH   1   7
BRANCH   1  11
ATOM     11  S   UNL     1       4.581   1.180   1.472  0.00  0.00    -0.076 S 
BRANCH  11  12
ATOM     12  C   UNL     1       3.597   1.816   2.788  0.00  0.00    +0.192 A 
ATOM     13  N   UNL     1       3.876   1.460   4.034  0.00  0.00    -0.230 NA
ATOM     14  C   UNL     1       3.159   1.918   5.048  0.00  0.00    +0.119 A 
ATOM     15  C   UNL     1       2.107   2.779   4.798  0.00  0.00    +0.092 A 
ATOM     16  C   UNL     1       1.837   3.134   3.477  0.00  0.00    +0.274 A 
ATOM     17  N   UNL     1       2.599   2.642   2.508  0.00  0.00    -0.183 NA
ATOM     18  O   UNL     1       0.815   3.975   3.187  0.00  0.00    -0.266 OA
ENDBRANCH  11  12
ENDBRANCH   1  11
TORSDOF 5
