REMARK  Name = ZINC00909691
REMARK  6 active torsions:
REMARK  status: ('A' for Active; 'I' for Inactive)
REMARK    1  A    between atoms: C_1  and  C_2
REMARK    2  A    between atoms: C_5  and  N_9
REMARK    3  A    between atoms: C_6  and  C_8
REMARK    4  A    between atoms: C_10  and  C_12
REMARK    5  A    between atoms: C_13  and  C_27
REMARK    6  A    between atoms: C_18  and  C_20
REMARK                            x       y       z     vdW  Elec       q    Type
REMARK                         _______ _______ _______ _____ _____    ______ ____
ROOT
ATOM      1  C   UNL     1      -0.087  -6.515  -1.472  0.00  0.00    +0.056 C 
ATOM      2  C   UNL     1      -0.183  -7.343  -2.534  0.00  0.00    +0.019 C 
ATOM      3  N   UNL     1       0.044  -8.684  -2.405  0.00  0.00    -0.273 N 
ATOM      4  C   UNL     1       0.370  -9.274  -1.248  0.00  0.00    +0.304 C 
ATOM      5  O   UNL     1       0.553 -10.476  -1.231  0.00  0.00    -0.252 OA
ATOM      6  N   UNL     1       0.504  -8.578  -0.101  0.00  0.00    -0.288 N 
ATOM      7  C   UNL     1       0.285  -7.122  -0.135  0.00  0.00    +0.144 C 
ATOM      8  C   UNL     1      -0.547  -6.779  -3.883  0.00  0.00    +0.061 C 
ATOM      9  H   UNL     1      -0.037  -9.241  -3.195  0.00  0.00    +0.156 HD
ATOM     10  H   UNL     1       0.741  -9.025   0.726  0.00  0.00    +0.151 HD
ENDROOT
BRANCH   7  11
ATOM     11  C   UNL     1      -0.813  -6.799   0.844  0.00  0.00    +0.013 A 
ATOM     12  C   UNL     1      -1.864  -7.679   1.021  0.00  0.00    +0.008 A 
ATOM     13  C   UNL     1      -2.871  -7.383   1.919  0.00  0.00    +0.001 A 
ATOM     14  C   UNL     1      -2.829  -6.205   2.643  0.00  0.00    +0.003 A 
ATOM     15  C   UNL     1      -1.780  -5.324   2.469  0.00  0.00    +0.039 A 
ATOM     16  C   UNL     1      -0.767  -5.622   1.572  0.00  0.00    +0.129 A 
ATOM     17  F   UNL     1       0.262  -4.763   1.405  0.00  0.00    -0.205 F 
ENDBRANCH   7  11
BRANCH   1  19
ATOM     18  N   UNL     1      -1.582  -4.662  -1.722  0.00  0.00    -0.281 N 
ATOM     19  C   UNL     1      -0.322  -5.124  -1.605  0.00  0.00    +0.248 C 
ATOM     20  O   UNL     1       0.615  -4.347  -1.614  0.00  0.00    -0.270 OA
ATOM     21  H   UNL     1      -2.332  -5.274  -1.661  0.00  0.00    +0.155 HD
BRANCH  18  26
ATOM     22  C   UNL     1      -2.505   0.870  -2.573  0.00  0.00    +0.044 C 
ATOM     23  C   UNL     1      -2.260  -0.600  -2.347  0.00  0.00    -0.050 A 
ATOM     24  C   UNL     1      -0.993  -1.045  -2.016  0.00  0.00    +0.005 A 
ATOM     25  C   UNL     1      -0.765  -2.391  -1.808  0.00  0.00    +0.024 A 
ATOM     26  C   UNL     1      -1.810  -3.298  -1.931  0.00  0.00    +0.037 A 
ATOM     27  C   UNL     1      -3.081  -2.848  -2.264  0.00  0.00    -0.029 A 
ATOM     28  C   UNL     1      -3.303  -1.499  -2.466  0.00  0.00    +0.008 A 
ATOM     29  C   UNL     1      -4.217  -3.828  -2.400  0.00  0.00    +0.045 C 
ENDBRANCH  18  26
ENDBRANCH   1  19
TORSDOF 3
