REMARK  Name = ZINC32943485
REMARK  6 active torsions:
REMARK  status: ('A' for Active; 'I' for Inactive)
REMARK    1  A    between atoms: C_7  and  C_11
REMARK    2  A    between atoms: C_11  and  C_12
REMARK    3  A    between atoms: C_12  and  N_13
REMARK    4  A    between atoms: N_15  and  C_16
REMARK    5  A    between atoms: N_26  and  C_27
REMARK    6  A    between atoms: C_27  and  C_29
REMARK                            x       y       z     vdW  Elec       q    Type
REMARK                         _______ _______ _______ _____ _____    ______ ____
ROOT
ATOM      1  N   UNL     1      -2.110  -4.186  -1.680  0.00  0.00    -0.357 N 
ATOM      2  C   UNL     1      -1.758  -5.042  -2.682  0.00  0.00    +0.194 C 
ATOM      3  N   UNL     1      -1.738  -6.388  -2.454  0.00  0.00    -0.328 N 
ATOM      4  N   UNL     1      -1.435  -4.568  -3.876  0.00  0.00    -0.143 NA
ATOM      5  H   UNL     1      -2.352  -4.534  -0.808  0.00  0.00    +0.162 HD
ATOM      6  H   UNL     1      -1.511  -6.998  -3.173  0.00  0.00    +0.169 HD
ENDROOT
BRANCH   3   7
ATOM      7  C   UNL     1      -2.046  -6.887  -1.183  0.00  0.00    +0.045 A 
ATOM      8  C   UNL     1      -1.650  -6.191  -0.048  0.00  0.00    +0.029 A 
ATOM      9  C   UNL     1      -1.951  -6.684   1.206  0.00  0.00    +0.051 A 
ATOM     10  C   UNL     1      -2.651  -7.875   1.337  0.00  0.00    +0.162 A 
ATOM     11  C   UNL     1      -3.051  -8.573   0.204  0.00  0.00    +0.164 A 
ATOM     12  C   UNL     1      -2.752  -8.075  -1.055  0.00  0.00    +0.075 A 
ATOM     13  O   UNL     1      -3.746  -9.738   0.312  0.00  0.00    -0.485 OA
ATOM     14  C   UNL     1      -3.708 -10.394   1.585  0.00  0.00    +0.270 C 
ATOM     15  C   UNL     1      -3.961  -9.343   2.674  0.00  0.00    +0.270 C 
ATOM     16  O   UNL     1      -2.936  -8.347   2.583  0.00  0.00    -0.485 OA
ENDBRANCH   3   7
BRANCH   4  17
ATOM     17  C   UNL     1      -1.348  -5.397  -4.925  0.00  0.00    +0.270 C 
ATOM     18  O   UNL     1      -1.680  -6.563  -4.809  0.00  0.00    -0.268 OA
BRANCH  17  19
ATOM     19  C   UNL     1      -0.848  -4.895  -6.225  0.00  0.00    +0.039 A 
ATOM     20  C   UNL     1      -0.361  -3.592  -6.332  0.00  0.00    +0.014 A 
ATOM     21  C   UNL     1       0.103  -3.130  -7.546  0.00  0.00    +0.021 A 
ATOM     22  C   UNL     1       0.086  -3.957  -8.657  0.00  0.00    +0.041 A 
ATOM     23  C   UNL     1      -0.398  -5.251  -8.557  0.00  0.00    +0.021 A 
ATOM     24  C   UNL     1      -0.858  -5.726  -7.346  0.00  0.00    +0.014 A 
ATOM     25 CL   UNL     1       0.671  -3.369 -10.182  0.00  0.00    -0.084 Cl
ENDBRANCH  17  19
ENDBRANCH   4  17
BRANCH   1  26
ATOM     26  C   UNL     1      -2.121  -2.741  -1.922  0.00  0.00    +0.120 C 
BRANCH  26  27
ATOM     27  C   UNL     1      -2.548  -2.014  -0.645  0.00  0.00    +0.058 C 
BRANCH  27  34
ATOM     28  C   UNL     1      -5.741   0.913  -2.438  0.00  0.00    +0.001 A 
ATOM     29  C   UNL     1      -5.306   2.231  -2.474  0.00  0.00    +0.002 A 
ATOM     30  C   UNL     1      -4.053   2.570  -2.015  0.00  0.00    +0.026 A 
ATOM     31  C   UNL     1      -3.212   1.584  -1.508  0.00  0.00    +0.047 A 
ATOM     32  C   UNL     1      -3.658   0.251  -1.472  0.00  0.00    +0.003 A 
ATOM     33  C   UNL     1      -4.932  -0.071  -1.944  0.00  0.00    +0.010 A 
ATOM     34  C   UNL     1      -2.560  -0.527  -0.894  0.00  0.00    -0.021 A 
ATOM     35  C   UNL     1      -1.566   0.335  -0.627  0.00  0.00    +0.087 A 
ATOM     36  N   UNL     1      -1.938   1.601  -0.987  0.00  0.00    -0.360 N 
ATOM     37  H   UNL     1      -1.386   2.393  -0.889  0.00  0.00    +0.165 HD
ENDBRANCH  27  34
ENDBRANCH  26  27
ENDBRANCH   1  26
TORSDOF 6
