REMARK  Name = ZINC01309759
REMARK  11 active torsions:
REMARK  status: ('A' for Active; 'I' for Inactive)
REMARK    1  A    between atoms: C_1  and  C_2
REMARK    2  A    between atoms: C_5  and  C_41
REMARK    3  A    between atoms: C_6  and  O_8
REMARK    4  A    between atoms: O_8  and  C_9
REMARK    5  A    between atoms: C_11  and  N_18
REMARK    6  A    between atoms: C_13  and  N_15
REMARK    7  A    between atoms: C_19  and  C_21
REMARK    8  A    between atoms: C_26  and  C_37
REMARK    9  A    between atoms: C_29  and  C_32
REMARK   10  A    between atoms: C_41  and  C_42
REMARK   11  A    between atoms: C_41  and  C_43
REMARK                            x       y       z     vdW  Elec       q    Type
REMARK                         _______ _______ _______ _____ _____    ______ ____
ROOT
ATOM      1  N   UNL     1       0.085  -2.301   7.126  0.00  0.00    -0.280 N 
ATOM      2  C   UNL     1       0.834  -3.400   7.343  0.00  0.00    +0.268 C 
ATOM      3  O   UNL     1       1.388  -3.951   6.412  0.00  0.00    -0.268 OA
ATOM      4  H   UNL     1      -0.409  -1.898   7.857  0.00  0.00    +0.155 HD
ENDROOT
BRANCH   2   5
ATOM      5  C   UNL     1       0.982  -3.934   8.712  0.00  0.00    +0.149 A 
ATOM      6  C   UNL     1       1.738  -5.069   9.082  0.00  0.00    +0.078 A 
ATOM      7  C   UNL     1       1.617  -5.223  10.415  0.00  0.00    +0.119 A 
ATOM      8  N   UNL     1       0.814  -4.223  10.887  0.00  0.00    -0.238 N 
ATOM      9  N   UNL     1       0.435  -3.430   9.804  0.00  0.00    -0.164 NA
ATOM     10  C   UNL     1       0.459  -4.064  12.300  0.00  0.00    +0.215 C 
ATOM     11  C   UNL     1       1.470  -4.836  13.155  0.00  0.00    +0.063 C 
ATOM     12  C   UNL     1       1.623  -6.264  12.620  0.00  0.00    +0.111 C 
ATOM     13  N   UNL     1       2.171  -6.196  11.251  0.00  0.00    -0.322 N 
ATOM     14  H   UNL     1       2.875  -6.792  10.949  0.00  0.00    +0.148 HD
BRANCH  12  15
ATOM     15  C   UNL     1       0.278  -6.943  12.597  0.00  0.00    +0.010 A 
ATOM     16  C   UNL     1      -0.251  -7.820  13.485  0.00  0.00    +0.013 A 
ATOM     17  C   UNL     1      -1.520  -8.320  13.259  0.00  0.00    +0.008 A 
ATOM     18  C   UNL     1      -2.198  -7.919  12.155  0.00  0.00    +0.045 A 
ATOM     19  S   UNL     1      -1.036  -6.795  11.397  0.00  0.00    -0.100 S 
ENDBRANCH  12  15
BRANCH  10  20
ATOM     20  C   UNL     1       0.496  -2.580  12.674  0.00  0.00    +0.412 C 
ATOM     21  F   UNL     1      -0.418  -1.877  11.882  0.00  0.00    -0.168 F 
ATOM     22  F   UNL     1       0.157  -2.431  14.023  0.00  0.00    -0.168 F 
ATOM     23  F   UNL     1       1.784  -2.077  12.458  0.00  0.00    -0.168 F 
ENDBRANCH  10  20
ENDBRANCH   2   5
BRANCH   1  26
ATOM     24  C   UNL     1      -0.023  -2.004   3.459  0.00  0.00    +0.132 A 
ATOM     25  C   UNL     1       0.043  -2.562   4.727  0.00  0.00    +0.069 A 
ATOM     26  C   UNL     1       0.018  -1.742   5.846  0.00  0.00    +0.039 A 
ATOM     27  C   UNL     1      -0.075  -0.364   5.692  0.00  0.00    +0.056 A 
ATOM     28  C   UNL     1      -0.141   0.188   4.428  0.00  0.00    +0.131 A 
ATOM     29  C   UNL     1      -0.110  -0.627   3.312  0.00  0.00    +0.079 A 
BRANCH  28  30
ATOM     30  N   UNL     1      -0.240   1.657   4.268  0.00  0.00    +0.057 N 
ATOM     31  O   UNL     1      -0.263   2.371   5.242  0.00  0.00    -0.126 OA
ATOM     32  O   UNL     1      -0.298   2.141   3.162  0.00  0.00    -0.126 OA
ENDBRANCH  28  30
BRANCH  24  33
ATOM     33  O   UNL     1       0.001  -2.805   2.362  0.00  0.00    -0.456 OA
BRANCH  33  39
ATOM     34  C   UNL     1      -4.565  -4.103   3.495  0.00  0.00    +0.044 C 
ATOM     35  C   UNL     1      -3.372  -4.150   2.575  0.00  0.00    -0.047 A 
ATOM     36  C   UNL     1      -3.426  -4.894   1.411  0.00  0.00    +0.004 A 
ATOM     37  C   UNL     1      -2.334  -4.939   0.565  0.00  0.00    +0.008 A 
ATOM     38  C   UNL     1      -1.185  -4.240   0.881  0.00  0.00    -0.003 A 
ATOM     39  C   UNL     1      -1.128  -3.493   2.049  0.00  0.00    +0.132 A 
ATOM     40  C   UNL     1      -2.228  -3.446   2.893  0.00  0.00    +0.050 A 
BRANCH  38  41
ATOM     41  C   UNL     1       0.006  -4.290  -0.041  0.00  0.00    +0.016 C 
ATOM     42  C   UNL     1       0.481  -5.737  -0.183  0.00  0.00    +0.012 C 
ATOM     43  C   UNL     1      -0.390  -3.747  -1.416  0.00  0.00    +0.012 C 
ENDBRANCH  38  41
ENDBRANCH  33  39
ENDBRANCH  24  33
ENDBRANCH   1  26
TORSDOF 8
