REMARK  Name = ZINC39681364
REMARK  8 active torsions:
REMARK  status: ('A' for Active; 'I' for Inactive)
REMARK    1  A    between atoms: C_1  and  C_2
REMARK    2  A    between atoms: C_4  and  C_11
REMARK    3  A    between atoms: C_5  and  C_7
REMARK    4  A    between atoms: C_15  and  C_24
REMARK    5  A    between atoms: N_26  and  C_27
REMARK    6  A    between atoms: C_27  and  C_28
REMARK    7  A    between atoms: C_28  and  O_29
REMARK    8  A    between atoms: O_29  and  C_30
REMARK                            x       y       z     vdW  Elec       q    Type
REMARK                         _______ _______ _______ _____ _____    ______ ____
ROOT
ATOM      1  C   UNL     1      -1.313  -3.201   0.135  0.00  0.00    +0.250 C 
ATOM      2  O   UNL     1      -0.782  -4.293   0.213  0.00  0.00    -0.270 OA
ATOM      3  N   UNL     1      -2.656  -3.101   0.175  0.00  0.00    -0.296 N 
ATOM      4  C   UNL     1      -3.483  -1.890  -0.041  0.00  0.00    +0.121 C 
ATOM      5  C   UNL     1      -4.702  -2.389  -0.850  0.00  0.00    +0.100 C 
ATOM      6  C   UNL     1      -4.801  -3.889  -0.525  0.00  0.00    -0.004 C 
ATOM      7  C   UNL     1      -3.641  -4.177   0.439  0.00  0.00    +0.115 C 
ATOM      8  C   UNL     1      -4.641  -4.717  -1.796  0.00  0.00    -0.010 C 
ATOM      9  C   UNL     1      -4.800  -6.201  -1.457  0.00  0.00    -0.082 C 
ATOM     10  N   UNL     1      -6.122  -6.431  -0.863  0.00  0.00    +0.379 N 
ATOM     11  C   UNL     1      -6.234  -5.704   0.407  0.00  0.00    -0.082 C 
ATOM     12  C   UNL     1      -6.136  -4.198   0.146  0.00  0.00    -0.010 C 
ATOM     13  H   UNL     1      -6.835  -6.106  -1.499  0.00  0.00    -0.086 HD
ATOM     14  H   UNL     1      -6.248  -7.418  -0.697  0.00  0.00    -0.086 HD
ENDROOT
BRANCH   1  18
ATOM     15  C   UNL     1       0.182   1.667  -0.170  0.00  0.00    +0.086 C 
ATOM     16  C   UNL     1       0.152   0.161  -0.135  0.00  0.00    +0.103 A 
ATOM     17  C   UNL     1      -0.946  -0.592   0.033  0.00  0.00    +0.058 A 
ATOM     18  C   UNL     1      -0.487  -1.989  -0.004  0.00  0.00    +0.087 A 
ATOM     19  C   UNL     1       0.862  -1.927  -0.193  0.00  0.00    +0.220 A 
ATOM     20  O   UNL     1       1.219  -0.642  -0.273  0.00  0.00    -0.455 OA
BRANCH  19  21
ATOM     21  C   UNL     1       1.792  -3.109  -0.300  0.00  0.00    +0.451 C 
ATOM     22  F   UNL     1       1.898  -3.500  -1.639  0.00  0.00    -0.163 F 
ATOM     23  F   UNL     1       3.056  -2.752   0.183  0.00  0.00    -0.163 F 
ATOM     24  F   UNL     1       1.286  -4.170   0.458  0.00  0.00    -0.163 F 
ENDBRANCH  19  21
ENDBRANCH   1  18
BRANCH   5  25
ATOM     25  C   UNL     1      -4.473  -2.183  -2.325  0.00  0.00    +0.218 C 
ATOM     26  O   UNL     1      -3.343  -2.133  -2.762  0.00  0.00    -0.275 OA
ATOM     27  N   UNL     1      -5.524  -2.055  -3.159  0.00  0.00    -0.312 N 
ATOM     28  H   UNL     1      -6.425  -2.022  -2.801  0.00  0.00    +0.149 HD
BRANCH  27  29
ATOM     29  C   UNL     1      -5.306  -1.965  -4.604  0.00  0.00    +0.145 C 
BRANCH  29  30
ATOM     30  C   UNL     1      -6.639  -1.702  -5.306  0.00  0.00    +0.248 C 
BRANCH  30  31
ATOM     31  O   UNL     1      -7.131  -0.415  -4.929  0.00  0.00    -0.489 OA
BRANCH  31  32
ATOM     32  C   UNL     1      -8.361  -0.064  -5.389  0.00  0.00    +0.139 A 
ATOM     33  C   UNL     1      -9.124  -0.980  -6.098  0.00  0.00    +0.047 A 
ATOM     34  C   UNL     1     -10.374  -0.622  -6.564  0.00  0.00    +0.004 A 
ATOM     35  C   UNL     1     -10.865   0.649  -6.326  0.00  0.00    +0.002 A 
ATOM     36  C   UNL     1     -10.107   1.564  -5.620  0.00  0.00    +0.023 A 
ATOM     37  C   UNL     1      -8.857   1.209  -5.146  0.00  0.00    +0.083 A 
ATOM     38 CL   UNL     1      -7.908   2.356  -4.253  0.00  0.00    -0.080 Cl
ENDBRANCH  31  32
ENDBRANCH  30  31
ENDBRANCH  29  30
ENDBRANCH  27  29
ENDBRANCH   5  25
TORSDOF 7
