REMARK  Name = ZINC46672970
REMARK  13 active torsions:
REMARK  status: ('A' for Active; 'I' for Inactive)
REMARK    1  A    between atoms: C_1  and  C_2
REMARK    2  A    between atoms: C_2  and  O_3
REMARK    3  A    between atoms: O_3  and  C_4
REMARK    4  A    between atoms: N_6  and  C_7
REMARK    5  A    between atoms: C_7  and  C_9
REMARK    6  A    between atoms: C_7  and  C_12
REMARK    7  A    between atoms: C_9  and  C_10
REMARK    8  A    between atoms: C_9  and  C_11
REMARK    9  A    between atoms: N_14  and  C_15
REMARK   10  A    between atoms: C_15  and  C_16
REMARK   11  A    between atoms: C_16  and  C_18
REMARK   12  A    between atoms: C_16  and  N_23
REMARK   13  A    between atoms: C_26  and  C_29
REMARK                            x       y       z     vdW  Elec       q    Type
REMARK                         _______ _______ _______ _____ _____    ______ ____
ROOT
ATOM      1  C   UNL     1       2.777  -3.925  -3.871  0.00  0.00    +0.234 C 
ATOM      2  O   UNL     1       3.625  -3.108  -4.161  0.00  0.00    -0.274 OA
ATOM      3  N   UNL     1       2.974  -5.229  -4.148  0.00  0.00    -0.315 N 
ATOM      4  H   UNL     1       2.332  -5.891  -3.849  0.00  0.00    +0.149 HD
ENDROOT
BRANCH   1   5
ATOM      5  C   UNL     1       1.502  -3.482  -3.200  0.00  0.00    +0.165 C 
BRANCH   5   8
ATOM      6  C   UNL     1       0.933  -1.752  -1.581  0.00  0.00    +0.401 C 
ATOM      7  O   UNL     1       0.091  -2.498  -1.123  0.00  0.00    -0.226 OA
ATOM      8  N   UNL     1       1.692  -2.149  -2.622  0.00  0.00    -0.270 N 
ATOM      9  H   UNL     1       2.364  -1.553  -2.988  0.00  0.00    +0.153 HD
BRANCH   6  10
ATOM     10  O   UNL     1       1.108  -0.527  -1.050  0.00  0.00    -0.451 OA
BRANCH  10  12
ATOM     11  C   UNL     1       0.611   1.245   0.516  0.00  0.00    +0.048 C 
ATOM     12  C   UNL     1       0.269  -0.171   0.051  0.00  0.00    +0.230 C 
ENDBRANCH  10  12
ENDBRANCH   6  10
ENDBRANCH   5   8
BRANCH   5  13
ATOM     13  C   UNL     1       0.373  -3.434  -4.231  0.00  0.00    +0.012 C 
ATOM     14  C   UNL     1      -0.946  -3.105  -3.529  0.00  0.00    +0.009 C 
ATOM     15  C   UNL     1       0.679  -2.356  -5.273  0.00  0.00    +0.009 C 
ENDBRANCH   5  13
ENDBRANCH   1   5
BRANCH   3  16
ATOM     16  C   UNL     1       4.160  -5.646  -4.901  0.00  0.00    +0.094 C 
BRANCH  16  17
ATOM     17  C   UNL     1       4.080  -7.147  -5.188  0.00  0.00    -0.013 C 
BRANCH  17  18
ATOM     18  N   UNL     1       2.812  -7.449  -5.866  0.00  0.00    +0.386 N 
ATOM     19  C   UNL     1       2.733  -6.683  -7.116  0.00  0.00    -0.078 C 
ATOM     20  C   UNL     1       1.379  -6.931  -7.786  0.00  0.00    -0.015 C 
ATOM     21  C   UNL     1       1.234  -8.425  -8.091  0.00  0.00    -0.018 C 
ATOM     22  C   UNL     1       1.392  -9.219  -6.791  0.00  0.00    -0.015 C 
ATOM     23  C   UNL     1       2.745  -8.886  -6.157  0.00  0.00    -0.078 C 
ATOM     24  C   UNL     1      -0.149  -8.692  -8.688  0.00  0.00    +0.007 C 
ATOM     25  H   UNL     1       2.042  -7.192  -5.267  0.00  0.00    -0.081 HD
ENDBRANCH  17  18
BRANCH  17  26
ATOM     26  C   UNL     1       4.150  -7.911  -3.891  0.00  0.00    -0.022 A 
ATOM     27  C   UNL     1       5.211  -8.536  -3.325  0.00  0.00    +0.009 A 
ATOM     28  C   UNL     1       5.041  -9.181  -2.114  0.00  0.00    +0.008 A 
ATOM     29  C   UNL     1       3.818  -9.169  -1.529  0.00  0.00    +0.045 A 
ATOM     30  S   UNL     1       2.859  -8.220  -2.697  0.00  0.00    -0.103 S 
ENDBRANCH  17  26
ENDBRANCH  16  17
ENDBRANCH   3  16
TORSDOF 9
