REMARK  Name = ZINC16490474
REMARK  8 active torsions:
REMARK  status: ('A' for Active; 'I' for Inactive)
REMARK    1  A    between atoms: C_4  and  N_7
REMARK    2  A    between atoms: N_7  and  S_8
REMARK    3  A    between atoms: S_8  and  C_11
REMARK    4  A    between atoms: C_14  and  O_17
REMARK    5  A    between atoms: O_17  and  C_18
REMARK    6  A    between atoms: C_18  and  C_19
REMARK    7  A    between atoms: N_21  and  C_22
REMARK    8  A    between atoms: C_26  and  N_28
REMARK                            x       y       z     vdW  Elec       q    Type
REMARK                         _______ _______ _______ _____ _____    ______ ____
ROOT
ATOM      1  C   UNL     1     -12.332   0.307   0.872  0.00  0.00    +0.109 A 
ATOM      2  C   UNL     1     -12.221   1.682   0.964  0.00  0.00    +0.032 A 
ATOM      3  C   UNL     1     -10.975   2.278   0.949  0.00  0.00    +0.047 A 
ATOM      4  C   UNL     1      -9.834   1.495   0.842  0.00  0.00    +0.121 A 
ATOM      5  C   UNL     1      -9.949   0.116   0.745  0.00  0.00    +0.047 A 
ATOM      6  C   UNL     1     -11.197  -0.475   0.765  0.00  0.00    +0.032 A 
ENDROOT
BRANCH   1   7
ATOM      7  S   UNL     1     -13.924  -0.450   0.890  0.00  0.00    +0.072 S 
ATOM      8  O   UNL     1     -13.749  -1.749   1.440  0.00  0.00    -0.150 OA
ATOM      9  O   UNL     1     -14.819   0.501   1.452  0.00  0.00    -0.150 OA
BRANCH   7  10
ATOM     10  N   UNL     1     -14.384  -0.660  -0.686  0.00  0.00    -0.216 N 
ATOM     11  H   UNL     1     -15.148  -0.176  -1.037  0.00  0.00    +0.174 HD
BRANCH  10  15
ATOM     12  C   UNL     1     -12.265  -3.268  -3.145  0.00  0.00    +0.000 A 
ATOM     13  C   UNL     1     -13.116  -3.770  -2.177  0.00  0.00    +0.002 A 
ATOM     14  C   UNL     1     -13.820  -2.908  -1.360  0.00  0.00    +0.024 A 
ATOM     15  C   UNL     1     -13.673  -1.535  -1.511  0.00  0.00    +0.048 A 
ATOM     16  C   UNL     1     -12.822  -1.034  -2.487  0.00  0.00    +0.024 A 
ATOM     17  C   UNL     1     -12.117  -1.902  -3.298  0.00  0.00    +0.002 A 
ENDBRANCH  10  15
ENDBRANCH   7  10
ENDBRANCH   1   7
BRANCH   4  18
ATOM     18  O   UNL     1      -8.607   2.079   0.828  0.00  0.00    -0.483 OA
BRANCH  18  19
ATOM     19  C   UNL     1      -7.477   1.211   0.716  0.00  0.00    +0.324 C 
BRANCH  19  20
ATOM     20  C   UNL     1      -6.213   2.031   0.716  0.00  0.00    +0.255 C 
ATOM     21  O   UNL     1      -6.273   3.239   0.804  0.00  0.00    -0.272 OA
ATOM     22  N   UNL     1      -5.015   1.421   0.619  0.00  0.00    -0.283 N 
ATOM     23  H   UNL     1      -4.968   0.463   0.473  0.00  0.00    +0.155 HD
BRANCH  22  24
ATOM     24  C   UNL     1      -3.838   2.170   0.729  0.00  0.00    +0.036 A 
ATOM     25  C   UNL     1      -2.713   1.809  -0.001  0.00  0.00    +0.023 A 
ATOM     26  C   UNL     1      -1.552   2.550   0.110  0.00  0.00    +0.004 A 
ATOM     27  C   UNL     1      -1.512   3.653   0.944  0.00  0.00    +0.033 A 
ATOM     28  C   UNL     1      -2.628   4.011   1.676  0.00  0.00    +0.128 A 
ATOM     29  C   UNL     1      -3.792   3.274   1.569  0.00  0.00    +0.056 A 
BRANCH  28  30
ATOM     30  N   UNL     1      -2.578   5.189   2.571  0.00  0.00    +0.056 N 
ATOM     31  O   UNL     1      -3.563   5.509   3.212  0.00  0.00    -0.126 OA
ATOM     32  O   UNL     1      -1.551   5.836   2.669  0.00  0.00    -0.126 OA
ENDBRANCH  28  30
ENDBRANCH  22  24
ENDBRANCH  19  20
ENDBRANCH  18  19
ENDBRANCH   4  18
TORSDOF 8
