REMARK  Name = ZINC25302266
REMARK  12 active torsions:
REMARK  status: ('A' for Active; 'I' for Inactive)
REMARK    1  A    between atoms: C_1  and  C_2
REMARK    2  A    between atoms: C_2  and  C_3
REMARK    3  A    between atoms: C_2  and  C_4
REMARK    4  A    between atoms: N_6  and  C_7
REMARK    5  A    between atoms: C_7  and  C_9
REMARK    6  A    between atoms: C_7  and  C_20
REMARK    7  A    between atoms: C_9  and  C_10
REMARK    8  A    between atoms: N_22  and  C_23
REMARK    9  A    between atoms: C_30  and  C_32
REMARK   10  A    between atoms: C_32  and  C_33
REMARK   11  A    between atoms: C_32  and  C_34
REMARK   12  A    between atoms: C_32  and  C_35
REMARK                            x       y       z     vdW  Elec       q    Type
REMARK                         _______ _______ _______ _____ _____    ______ ____
ROOT
ATOM      1  C   UNL     1      -3.630  -0.707  -0.981  0.00  0.00    +0.163 C 
ENDROOT
BRANCH   1   4
ATOM      2  C   UNL     1      -1.412  -0.531   0.013  0.00  0.00    +0.216 C 
ATOM      3  O   UNL     1      -1.792  -1.244   0.916  0.00  0.00    -0.276 OA
ATOM      4  N   UNL     1      -2.255  -0.202  -0.987  0.00  0.00    -0.303 N 
ATOM      5  H   UNL     1      -1.951   0.369  -1.710  0.00  0.00    +0.149 HD
BRANCH   2   7
ATOM      6  C   UNL     1      -0.016   1.519   0.026  0.00  0.00    +0.017 C 
ATOM      7  C   UNL     1       0.003  -0.011   0.006  0.00  0.00    +0.069 C 
ATOM      8  C   UNL     1       0.741  -0.528   1.242  0.00  0.00    +0.017 C 
ENDBRANCH   2   7
ENDBRANCH   1   4
BRANCH   1   9
ATOM      9  C   UNL     1      -4.335  -0.229   0.262  0.00  0.00    +0.238 C 
ATOM     10  O   UNL     1      -3.691   0.141   1.221  0.00  0.00    -0.273 OA
ATOM     11  N   UNL     1      -5.682  -0.212   0.309  0.00  0.00    -0.284 N 
ATOM     12  H   UNL     1      -6.198  -0.443  -0.480  0.00  0.00    +0.155 HD
BRANCH  11  13
ATOM     13  C   UNL     1      -6.338   0.140   1.496  0.00  0.00    +0.036 A 
ATOM     14  C   UNL     1      -5.790   1.113   2.329  0.00  0.00    +0.027 A 
ATOM     15  C   UNL     1      -6.426   1.467   3.499  0.00  0.00    +0.050 A 
ATOM     16  C   UNL     1      -7.618   0.854   3.853  0.00  0.00    +0.155 A 
ATOM     17  C   UNL     1      -8.176  -0.127   3.019  0.00  0.00    +0.111 A 
ATOM     18  C   UNL     1      -7.529  -0.477   1.833  0.00  0.00    +0.055 A 
ATOM     19  N   UNL     1      -9.325  -0.539   3.621  0.00  0.00    -0.213 NA
ATOM     20  C   UNL     1      -9.476   0.120   4.730  0.00  0.00    +0.202 A 
ATOM     21  O   UNL     1      -8.458   0.977   4.905  0.00  0.00    -0.439 OA
BRANCH  20  22
ATOM     22  C   UNL     1     -10.631  -0.052   5.683  0.00  0.00    +0.039 C 
ATOM     23  C   UNL     1     -10.666  -1.497   6.186  0.00  0.00    +0.020 C 
ATOM     24  C   UNL     1     -10.457   0.897   6.871  0.00  0.00    +0.020 C 
ATOM     25  C   UNL     1     -11.941   0.269   4.961  0.00  0.00    +0.020 C 
ENDBRANCH  20  22
ENDBRANCH  11  13
ENDBRANCH   1   9
BRANCH   1  26
ATOM     26  C   UNL     1      -3.612  -2.237  -1.000  0.00  0.00    +0.069 C 
BRANCH  26  27
ATOM     27  C   UNL     1      -3.017  -2.715  -2.300  0.00  0.00    -0.020 A 
ATOM     28  C   UNL     1      -3.692  -3.058  -3.408  0.00  0.00    +0.087 A 
ATOM     29  N   UNL     1      -2.817  -3.442  -4.387  0.00  0.00    -0.360 N 
ATOM     30  H   UNL     1      -3.069  -3.734  -5.277  0.00  0.00    +0.165 HD
ATOM     31  C   UNL     1      -1.524  -3.354  -3.921  0.00  0.00    +0.047 A 
ATOM     32  C   UNL     1      -1.593  -2.888  -2.595  0.00  0.00    +0.003 A 
ATOM     33  C   UNL     1      -0.420  -2.694  -1.863  0.00  0.00    +0.010 A 
ATOM     34  C   UNL     1       0.791  -2.955  -2.441  0.00  0.00    +0.001 A 
ATOM     35  C   UNL     1       0.864  -3.410  -3.750  0.00  0.00    +0.002 A 
ATOM     36  C   UNL     1      -0.281  -3.617  -4.487  0.00  0.00    +0.026 A 
ENDBRANCH  26  27
ENDBRANCH   1  26
TORSDOF 7
