REMARK  Name = ZINC02717949
REMARK  11 active torsions:
REMARK  status: ('A' for Active; 'I' for Inactive)
REMARK    1  A    between atoms: C_1  and  C_2
REMARK    2  A    between atoms: C_2  and  O_3
REMARK    3  A    between atoms: O_3  and  C_4
REMARK    4  A    between atoms: C_4  and  C_6
REMARK    5  A    between atoms: C_10  and  N_11
REMARK    6  A    between atoms: C_12  and  C_14
REMARK    7  A    between atoms: C_14  and  C_16
REMARK    8  A    between atoms: C_14  and  S_17
REMARK    9  A    between atoms: S_17  and  C_18
REMARK   10  A    between atoms: N_25  and  C_28
REMARK   11  A    between atoms: C_31  and  C_34
REMARK                            x       y       z     vdW  Elec       q    Type
REMARK                         _______ _______ _______ _____ _____    ______ ____
ROOT
ATOM      1  C   UNL     1       6.005  -2.513   0.400  0.00  0.00    +0.137 C 
ATOM      2  C   UNL     1       5.884  -3.664  -0.601  0.00  0.00    +0.029 C 
ENDROOT
BRANCH   1   4
ATOM      3  N   UNL     1       3.740  -2.424   1.391  0.00  0.00    -0.278 N 
ATOM      4  C   UNL     1       5.043  -2.734   1.539  0.00  0.00    +0.231 C 
ATOM      5  O   UNL     1       5.442  -3.192   2.589  0.00  0.00    -0.274 OA
ATOM      6  H   UNL     1       3.421  -2.058   0.551  0.00  0.00    +0.155 HD
BRANCH   3  11
ATOM      7  C   UNL     1       1.496  -2.371   2.467  0.00  0.00    +0.091 A 
ATOM      8  C   UNL     1       0.782  -2.684   3.704  0.00  0.00    -0.021 A 
ATOM      9  C   UNL     1       1.563  -3.186   4.676  0.00  0.00    -0.004 A 
ATOM     10  S   UNL     1       3.187  -3.241   3.964  0.00  0.00    -0.077 S 
ATOM     11  C   UNL     1       2.856  -2.628   2.438  0.00  0.00    +0.086 A 
ATOM     12  C   UNL     1       0.780  -3.486   5.926  0.00  0.00    +0.043 C 
ATOM     13  C   UNL     1      -0.540  -2.701   5.757  0.00  0.00    +0.010 C 
ATOM     14  C   UNL     1      -0.652  -2.601   4.222  0.00  0.00    +0.037 C 
BRANCH   7  15
ATOM     15  C   UNL     1       0.801  -1.814   1.305  0.00  0.00    +0.342 C 
ATOM     16  O   UNL     1       0.321  -2.557   0.470  0.00  0.00    -0.245 OA
BRANCH  15  17
ATOM     17  O   UNL     1       0.693  -0.477   1.160  0.00  0.00    -0.461 OA
BRANCH  17  19
ATOM     18  C   UNL     1      -0.019   1.526   0.010  0.00  0.00    +0.048 C 
ATOM     19  C   UNL     1       0.002  -0.004   0.002  0.00  0.00    +0.229 C 
ENDBRANCH  17  19
ENDBRANCH  15  17
ENDBRANCH   7  15
ENDBRANCH   3  11
ENDBRANCH   1   4
BRANCH   1  20
ATOM     20  S   UNL     1       7.699  -2.446   1.043  0.00  0.00    -0.073 S 
BRANCH  20  21
ATOM     21  C   UNL     1       8.675  -2.039  -0.366  0.00  0.00    +0.194 A 
ATOM     22  N   UNL     1       8.068  -1.863  -1.536  0.00  0.00    -0.183 NA
ATOM     23  C   UNL     1       8.757  -1.556  -2.626  0.00  0.00    +0.285 A 
ATOM     24  O   UNL     1       8.130  -1.379  -3.812  0.00  0.00    -0.265 OA
ATOM     25  C   UNL     1      10.153  -1.419  -2.523  0.00  0.00    +0.105 A 
ATOM     26  C   UNL     1      11.189  -1.110  -3.432  0.00  0.00    +0.150 A 
ATOM     27  N   UNL     1      12.321  -1.116  -2.788  0.00  0.00    -0.172 NA
ATOM     28  N   UNL     1      12.096  -1.425  -1.440  0.00  0.00    -0.214 N 
ATOM     29  C   UNL     1      10.755  -1.614  -1.264  0.00  0.00    +0.171 A 
ATOM     30  N   UNL     1       9.984  -1.915  -0.221  0.00  0.00    -0.202 NA
BRANCH  28  31
ATOM     31  C   UNL     1      13.077  -1.521  -0.446  0.00  0.00    +0.068 A 
ATOM     32  C   UNL     1      12.792  -1.123   0.854  0.00  0.00    +0.028 A 
ATOM     33  C   UNL     1      13.762  -1.220   1.833  0.00  0.00    +0.005 A 
ATOM     34  C   UNL     1      15.015  -1.713   1.520  0.00  0.00    -0.050 A 
ATOM     35  C   UNL     1      15.302  -2.111   0.227  0.00  0.00    +0.005 A 
ATOM     36  C   UNL     1      14.335  -2.021  -0.755  0.00  0.00    +0.028 A 
ATOM     37  C   UNL     1      16.071  -1.818   2.591  0.00  0.00    +0.044 C 
ENDBRANCH  28  31
ENDBRANCH  20  21
ENDBRANCH   1  20
TORSDOF 8
