REMARK  Name = ZINC63821975
REMARK  6 active torsions:
REMARK  status: ('A' for Active; 'I' for Inactive)
REMARK    1  A    between atoms: C_1  and  O_2
REMARK    2  A    between atoms: O_2  and  C_3
REMARK    3  A    between atoms: C_6  and  C_9
REMARK    4  A    between atoms: C_9  and  C_10
REMARK    5  A    between atoms: C_14  and  N_17
REMARK    6  A    between atoms: C_18  and  C_20
REMARK                            x       y       z     vdW  Elec       q    Type
REMARK                         _______ _______ _______ _____ _____    ______ ____
ROOT
ATOM      1  C   UNL     1      -5.382  -2.865  -1.394  0.00  0.00    +0.134 C 
ATOM      2  N   UNL     1      -6.710  -3.551  -1.415  0.00  0.00    -0.241 NA
ATOM      3  N   UNL     1      -6.946  -4.253  -2.659  0.00  0.00    -0.227 NA
ATOM      4  C   UNL     1      -5.743  -4.821  -3.312  0.00  0.00    +0.217 C 
ATOM      5  S   UNL     1      -4.384  -4.166  -2.249  0.00  0.00    -0.101 S 
ATOM      6  H   UNL     1      -6.809  -4.171  -0.625  0.00  0.00    +0.142 HD
ATOM      7  H   UNL     1      -7.663  -4.955  -2.548  0.00  0.00    +0.143 HD
ENDROOT
BRANCH   4   8
ATOM      8  N   UNL     1      -5.773  -6.285  -3.281  0.00  0.00    -0.286 N 
ATOM      9  C   UNL     1      -4.943  -6.994  -4.072  0.00  0.00    +0.247 C 
ATOM     10  O   UNL     1      -4.236  -6.421  -4.877  0.00  0.00    -0.270 OA
ATOM     11  H   UNL     1      -6.390  -6.746  -2.691  0.00  0.00    +0.151 HD
BRANCH   9  12
ATOM     12  C   UNL     1      -4.893  -8.472  -3.961  0.00  0.00    +0.051 A 
ATOM     13  C   UNL     1      -5.767  -9.140  -3.153  0.00  0.00    +0.083 A 
ATOM     14  C   UNL     1      -5.693 -10.597  -3.063  0.00  0.00    +0.250 A 
ATOM     15  O   UNL     1      -6.473 -11.194  -2.343  0.00  0.00    -0.268 OA
ATOM     16  N   UNL     1      -4.777 -11.288  -3.765  0.00  0.00    -0.322 N 
ATOM     17  H   UNL     1      -4.749 -12.254  -3.688  0.00  0.00    +0.169 HD
ATOM     18  C   UNL     1      -3.877 -10.650  -4.591  0.00  0.00    +0.050 A 
ATOM     19  C   UNL     1      -3.904  -9.250  -4.723  0.00  0.00    +0.011 A 
ATOM     20  C   UNL     1      -2.991  -8.612  -5.568  0.00  0.00    +0.011 A 
ATOM     21  C   UNL     1      -2.081  -9.353  -6.267  0.00  0.00    +0.001 A 
ATOM     22  C   UNL     1      -2.054 -10.735  -6.146  0.00  0.00    +0.002 A 
ATOM     23  C   UNL     1      -2.936 -11.384  -5.309  0.00  0.00    +0.026 A 
ENDBRANCH   9  12
ENDBRANCH   4   8
BRANCH   1  24
ATOM     24  C   UNL     1      -4.892  -2.631   0.036  0.00  0.00    +0.066 C 
BRANCH  24  28
ATOM     25  C   UNL     1      -1.108  -0.648  -0.060  0.00  0.00    +0.120 A 
ATOM     26  C   UNL     1      -2.280   0.093  -0.028  0.00  0.00    +0.046 A 
ATOM     27  C   UNL     1      -3.502  -0.550   0.003  0.00  0.00    +0.007 A 
ATOM     28  C   UNL     1      -3.558  -1.931   0.002  0.00  0.00    -0.045 A 
ATOM     29  C   UNL     1      -2.391  -2.673  -0.029  0.00  0.00    +0.007 A 
ATOM     30  C   UNL     1      -1.166  -2.034  -0.066  0.00  0.00    +0.046 A 
BRANCH  25  32
ATOM     31  C   UNL     1       0.080   1.411  -0.082  0.00  0.00    +0.277 C 
ATOM     32  O   UNL     1       0.096  -0.018  -0.091  0.00  0.00    -0.495 OA
ENDBRANCH  25  32
ENDBRANCH  24  28
ENDBRANCH   1  24
TORSDOF 5
