REMARK  Name = ZINC05064987
REMARK  5 active torsions:
REMARK  status: ('A' for Active; 'I' for Inactive)
REMARK    1  A    between atoms: C_1  and  O_2
REMARK    2  A    between atoms: O_2  and  C_3
REMARK    3  A    between atoms: C_3  and  C_5
REMARK    4  A    between atoms: C_8  and  C_11
REMARK    5  A    between atoms: C_26  and  N_31
REMARK                            x       y       z     vdW  Elec       q    Type
REMARK                         _______ _______ _______ _____ _____    ______ ____
ROOT
ATOM      1  C   UNL     1      -2.536   5.220   0.374  0.00  0.00    +0.105 C 
ATOM      2  C   UNL     1      -1.373   6.007  -0.170  0.00  0.00    +0.030 C 
ATOM      3  C   UNL     1      -1.464   6.167  -1.703  0.00  0.00    +0.042 C 
ATOM      4  C   UNL     1      -0.033   6.281  -2.152  0.00  0.00    -0.043 A 
ATOM      5  C   UNL     1       0.469   6.758  -3.352  0.00  0.00    +0.004 A 
ATOM      6  C   UNL     1       1.849   6.766  -3.502  0.00  0.00    +0.000 A 
ATOM      7  C   UNL     1       2.688   6.320  -2.502  0.00  0.00    +0.000 A 
ATOM      8  C   UNL     1       2.190   5.837  -1.298  0.00  0.00    +0.004 A 
ATOM      9  C   UNL     1       0.814   5.824  -1.145  0.00  0.00    -0.036 A 
ATOM     10  C   UNL     1      -0.005   5.358   0.034  0.00  0.00    +0.057 C 
ATOM     11  C   UNL     1      -0.047   3.856   0.022  0.00  0.00    -0.017 A 
ATOM     12  C   UNL     1       1.157   3.166   0.008  0.00  0.00    +0.038 A 
ATOM     13  C   UNL     1       1.174   1.786   0.000  0.00  0.00    +0.127 A 
ATOM     14  C   UNL     1      -0.013   1.076   0.008  0.00  0.00    +0.034 A 
ATOM     15  C   UNL     1      -1.216   1.752   0.017  0.00  0.00    +0.025 A 
ATOM     16  C   UNL     1      -1.233   3.143   0.029  0.00  0.00    +0.032 A 
ATOM     17  N   UNL     1      -2.459   3.806   0.040  0.00  0.00    -0.336 N 
ATOM     18  H   UNL     1      -3.270   3.320  -0.178  0.00  0.00    +0.147 HD
ENDROOT
BRANCH   1  22
ATOM     19  C   UNL     1      -6.161   6.824  -1.229  0.00  0.00    +0.059 A 
ATOM     20  C   UNL     1      -5.753   7.167   0.061  0.00  0.00    +0.015 A 
ATOM     21  C   UNL     1      -4.583   6.646   0.572  0.00  0.00    +0.006 A 
ATOM     22  C   UNL     1      -3.814   5.785  -0.191  0.00  0.00    -0.027 A 
ATOM     23  C   UNL     1      -4.209   5.446  -1.473  0.00  0.00    +0.006 A 
ATOM     24  C   UNL     1      -5.380   5.955  -1.994  0.00  0.00    +0.015 A 
BRANCH  19  25
ATOM     25  C   UNL     1      -7.414   7.378  -1.783  0.00  0.00    +0.339 C 
ATOM     26  O   UNL     1      -8.091   8.133  -1.115  0.00  0.00    -0.245 OA
BRANCH  25  28
ATOM     27  C   UNL     1      -9.046   7.627  -3.507  0.00  0.00    +0.280 C 
ATOM     28  O   UNL     1      -7.805   7.045  -3.028  0.00  0.00    -0.464 OA
ENDBRANCH  25  28
ENDBRANCH  19  25
ENDBRANCH   1  22
BRANCH  13  29
ATOM     29  N   UNL     1       2.466   1.064  -0.017  0.00  0.00    +0.056 N 
ATOM     30  O   UNL     1       2.483  -0.154  -0.024  0.00  0.00    -0.126 OA
ATOM     31  O   UNL     1       3.512   1.688  -0.023  0.00  0.00    -0.126 OA
ENDBRANCH  13  29
TORSDOF 4
