REMARK  Name = ZINC36160327
REMARK  16 active torsions:
REMARK  status: ('A' for Active; 'I' for Inactive)
REMARK    1  A    between atoms: C_1  and  C_2
REMARK    2  A    between atoms: C_5  and  C_9
REMARK    3  A    between atoms: C_11  and  C_14
REMARK    4  A    between atoms: C_14  and  C_16
REMARK    5  A    between atoms: C_14  and  N_19
REMARK    6  A    between atoms: C_16  and  C_17
REMARK    7  A    between atoms: C_16  and  C_18
REMARK    8  A    between atoms: N_19  and  C_20
REMARK    9  A    between atoms: C_20  and  C_21
REMARK   10  A    between atoms: C_21  and  C_23
REMARK   11  A    between atoms: C_21  and  O_29
REMARK   12  A    between atoms: C_23  and  O_24
REMARK   13  A    between atoms: O_24  and  C_25
REMARK   14  A    between atoms: C_25  and  C_26
REMARK   15  A    between atoms: C_25  and  C_27
REMARK   16  A    between atoms: C_25  and  C_28
REMARK                            x       y       z     vdW  Elec       q    Type
REMARK                         _______ _______ _______ _____ _____    ______ ____
ROOT
ATOM      1  C   UNL     1       0.080  -7.379   1.867  0.00  0.00    +0.022 C 
ENDROOT
BRANCH   1   4
ATOM      2  C   UNL     1       0.095  -3.865   0.960  0.00  0.00    +0.202 A 
ATOM      3  N   UNL     1       0.013  -4.878   1.841  0.00  0.00    -0.193 NA
ATOM      4  C   UNL     1       0.122  -6.018   1.221  0.00  0.00    +0.214 A 
ATOM      5  O   UNL     1       0.280  -5.777  -0.087  0.00  0.00    -0.339 OA
ATOM      6  N   UNL     1       0.255  -4.366  -0.240  0.00  0.00    -0.056 NA
BRANCH   2  11
ATOM      7  C   UNL     1      -0.226   1.742   2.242  0.00  0.00    +0.045 C 
ATOM      8  C   UNL     1      -0.142   0.275   1.907  0.00  0.00    -0.032 A 
ATOM      9  C   UNL     1       0.030  -0.123   0.593  0.00  0.00    +0.005 A 
ATOM     10  C   UNL     1       0.107  -1.465   0.281  0.00  0.00    +0.012 A 
ATOM     11  C   UNL     1       0.013  -2.421   1.291  0.00  0.00    +0.024 A 
ATOM     12  C   UNL     1      -0.160  -2.015   2.612  0.00  0.00    +0.032 A 
ATOM     13  C   UNL     1      -0.231  -0.669   2.915  0.00  0.00    +0.045 A 
ATOM     14 CL   UNL     1      -0.438  -0.161   4.562  0.00  0.00    -0.083 Cl
ENDBRANCH   2  11
ENDBRANCH   1   4
BRANCH   1  15
ATOM     15  C   UNL     1      -1.270  -8.039   1.578  0.00  0.00    -0.022 C 
ATOM     16  C   UNL     1      -1.354  -9.375   2.318  0.00  0.00    +0.006 C 
ATOM     17  C   UNL     1      -2.398  -7.121   2.054  0.00  0.00    +0.006 C 
ENDBRANCH   1  15
BRANCH   1  18
ATOM     18  N   UNL     1       1.159  -8.214   1.322  0.00  0.00    +0.389 N 
ATOM     19  H   UNL     1       1.079  -9.150   1.691  0.00  0.00    -0.085 HD
ATOM     20  H   UNL     1       1.088  -8.241   0.316  0.00  0.00    -0.085 HD
BRANCH  18  21
ATOM     21  C   UNL     1       2.458  -7.646   1.706  0.00  0.00    -0.048 C 
BRANCH  21  22
ATOM     22  C   UNL     1       3.579  -8.581   1.247  0.00  0.00    +0.123 C 
BRANCH  22  23
ATOM     23  O   UNL     1       3.598  -8.638  -0.180  0.00  0.00    -0.391 OA
ATOM     24  H   UNL     1       3.748  -7.783  -0.606  0.00  0.00    +0.210 HD
ENDBRANCH  22  23
BRANCH  22  25
ATOM     25  C   UNL     1       4.923  -8.054   1.755  0.00  0.00    +0.189 C 
BRANCH  25  26
ATOM     26  O   UNL     1       5.955  -8.987   1.427  0.00  0.00    -0.372 OA
BRANCH  26  27
ATOM     27  C   UNL     1       7.257  -8.588   1.859  0.00  0.00    +0.061 C 
ATOM     28  C   UNL     1       7.262  -8.425   3.380  0.00  0.00    +0.041 C 
ATOM     29  C   UNL     1       8.277  -9.655   1.457  0.00  0.00    +0.041 C 
ATOM     30  C   UNL     1       7.627  -7.256   1.202  0.00  0.00    +0.041 C 
ENDBRANCH  26  27
ENDBRANCH  25  26
ENDBRANCH  22  25
ENDBRANCH  21  22
ENDBRANCH  18  21
ENDBRANCH   1  18
TORSDOF 10
