REMARK  Name = ZINC13567967
REMARK  8 active torsions:
REMARK  status: ('A' for Active; 'I' for Inactive)
REMARK    1  A    between atoms: C_1  and  O_2
REMARK    2  A    between atoms: O_2  and  C_3
REMARK    3  A    between atoms: C_6  and  C_11
REMARK    4  A    between atoms: C_8  and  O_9
REMARK    5  A    between atoms: O_9  and  C_10
REMARK    6  A    between atoms: C_13  and  C_36
REMARK    7  A    between atoms: C_14  and  N_35
REMARK    8  A    between atoms: C_25  and  C_29
REMARK                            x       y       z     vdW  Elec       q    Type
REMARK                         _______ _______ _______ _____ _____    ______ ____
ROOT
ATOM      1  C   UNL     1       6.186   0.858  -0.911  0.00  0.00    +0.097 C 
ATOM      2  C   UNL     1       5.505  -0.401  -0.463  0.00  0.00    +0.077 C 
ATOM      3  C   UNL     1       4.214  -0.388  -0.039  0.00  0.00    +0.108 C 
ATOM      4  N   UNL     1       3.510   0.794  -0.010  0.00  0.00    -0.243 N 
ATOM      5  C   UNL     1       4.167   1.997  -0.016  0.00  0.00    +0.026 C 
ATOM      6  C   UNL     1       5.449   2.079  -0.424  0.00  0.00    +0.025 C 
ATOM      7  C   UNL     1       6.136   3.306  -0.412  0.00  0.00    +0.162 C 
ATOM      8  O   UNL     1       7.288   3.347  -0.799  0.00  0.00    -0.292 OA
ATOM      9  C   UNL     1       5.474   4.567   0.069  0.00  0.00    +0.080 C 
ATOM     10  C   UNL     1       4.402   4.205   1.102  0.00  0.00    +0.014 C 
ATOM     11  C   UNL     1       3.421   3.221   0.459  0.00  0.00    +0.052 C 
ATOM     12  C   UNL     1       2.108   0.768   0.021  0.00  0.00    +0.153 A 
ATOM     13  C   UNL     1       1.264   0.833  -1.095  0.00  0.00    +0.073 A 
ATOM     14  C   UNL     1      -0.025   0.779  -0.646  0.00  0.00    +0.068 A 
ATOM     15  N   UNL     1       0.019   0.682   0.713  0.00  0.00    -0.275 N 
ATOM     16  H   UNL     1      -0.769   0.624   1.325  0.00  0.00    +0.189 HD
ATOM     17  N   UNL     1       1.365   0.678   1.099  0.00  0.00    -0.158 NA
ENDROOT
BRANCH   1  21
ATOM     18  C   UNL     1       6.334   0.922  -5.185  0.00  0.00    +0.162 A 
ATOM     19  C   UNL     1       5.113   0.870  -4.531  0.00  0.00    +0.050 A 
ATOM     20  C   UNL     1       5.069   0.844  -3.150  0.00  0.00    +0.008 A 
ATOM     21  C   UNL     1       6.240   0.880  -2.417  0.00  0.00    -0.031 A 
ATOM     22  C   UNL     1       7.462   0.933  -3.063  0.00  0.00    +0.054 A 
ATOM     23  C   UNL     1       7.513   0.954  -4.447  0.00  0.00    +0.162 A 
BRANCH  18  25
ATOM     24  C   UNL     1       5.129   0.908  -7.235  0.00  0.00    +0.277 C 
ATOM     25  O   UNL     1       6.379   0.943  -6.544  0.00  0.00    -0.491 OA
ENDBRANCH  18  25
BRANCH  23  26
ATOM     26  O   UNL     1       8.714   1.005  -5.084  0.00  0.00    -0.491 OA
ATOM     27  C   UNL     1       9.883   1.035  -4.263  0.00  0.00    +0.277 C 
ENDBRANCH  23  26
ENDBRANCH   1  21
BRANCH  14  28
ATOM     28  C   UNL     1      -1.246   0.817  -1.482  0.00  0.00    -0.000 A 
ATOM     29  C   UNL     1      -1.141   0.924  -2.869  0.00  0.00    +0.010 A 
ATOM     30  C   UNL     1      -2.283   0.953  -3.644  0.00  0.00    +0.001 A 
ATOM     31  C   UNL     1      -3.529   0.888  -3.046  0.00  0.00    +0.000 A 
ATOM     32  C   UNL     1      -3.639   0.788  -1.671  0.00  0.00    +0.001 A 
ATOM     33  C   UNL     1      -2.505   0.752  -0.886  0.00  0.00    +0.010 A 
ENDBRANCH  14  28
BRANCH   3  34
ATOM     34  N   UNL     1       3.610  -1.556   0.360  0.00  0.00    -0.345 N 
ATOM     35  H   UNL     1       2.666  -1.563   0.580  0.00  0.00    +0.144 HD
ATOM     36  H   UNL     1       4.129  -2.374   0.420  0.00  0.00    +0.144 HD
ENDBRANCH   3  34
BRANCH   2  37
ATOM     37  C   UNL     1       6.227  -1.638  -0.480  0.00  0.00    +0.099 C 
ATOM     38  N   UNL     1       6.799  -2.619  -0.494  0.00  0.00    -0.191 NA
ENDBRANCH   2  37
TORSDOF 6
