REMARK  Name = ZINC24078441
REMARK  10 active torsions:
REMARK  status: ('A' for Active; 'I' for Inactive)
REMARK    1  A    between atoms: C_1  and  C_2
REMARK    2  A    between atoms: C_3  and  C_14
REMARK    3  A    between atoms: N_5  and  C_7
REMARK    4  A    between atoms: C_15  and  C_16
REMARK    5  A    between atoms: C_16  and  O_18
REMARK    6  A    between atoms: O_18  and  C_19
REMARK    7  A    between atoms: C_19  and  C_21
REMARK    8  A    between atoms: C_19  and  C_22
REMARK    9  A    between atoms: N_24  and  C_25
REMARK   10  A    between atoms: C_26  and  C_30
REMARK                            x       y       z     vdW  Elec       q    Type
REMARK                         _______ _______ _______ _____ _____    ______ ____
ROOT
ATOM      1  C   UNL     1       2.747  -3.814   0.693  0.00  0.00    +0.333 C 
ATOM      2  O   UNL     1       1.799  -4.442   1.127  0.00  0.00    -0.246 OA
ENDROOT
BRANCH   1   4
ATOM      3  C   UNL     1       4.257  -5.518   1.442  0.00  0.00    +0.020 C 
ATOM      4  C   UNL     1       4.058  -4.329   0.829  0.00  0.00    +0.092 C 
BRANCH   3   7
ATOM      5  C   UNL     1       5.553  -6.603   4.127  0.00  0.00    +0.068 C 
ATOM      6  C   UNL     1       6.210  -6.539   2.773  0.00  0.00    +0.069 A 
ATOM      7  C   UNL     1       5.617  -6.052   1.583  0.00  0.00    +0.035 A 
ATOM      8  C   UNL     1       6.561  -6.179   0.576  0.00  0.00    +0.140 A 
ATOM      9  N   UNL     1       7.669  -6.707   1.131  0.00  0.00    -0.221 N 
ATOM     10  N   UNL     1       7.425  -6.924   2.492  0.00  0.00    -0.170 NA
ATOM     11 CL   UNL     1       6.354  -5.737  -1.090  0.00  0.00    -0.061 Cl
BRANCH   9  12
ATOM     12  C   UNL     1       8.864  -6.996   0.458  0.00  0.00    +0.067 A 
ATOM     13  C   UNL     1       8.832  -7.443  -0.856  0.00  0.00    +0.028 A 
ATOM     14  C   UNL     1      10.011  -7.722  -1.518  0.00  0.00    +0.002 A 
ATOM     15  C   UNL     1      11.223  -7.567  -0.870  0.00  0.00    +0.000 A 
ATOM     16  C   UNL     1      11.258  -7.127   0.440  0.00  0.00    +0.002 A 
ATOM     17  C   UNL     1      10.082  -6.841   1.106  0.00  0.00    +0.028 A 
ENDBRANCH   9  12
ENDBRANCH   3   7
ENDBRANCH   1   4
BRANCH   1  18
ATOM     18  O   UNL     1       2.548  -2.627   0.082  0.00  0.00    -0.449 OA
BRANCH  18  19
ATOM     19  C   UNL     1       1.199  -2.169  -0.021  0.00  0.00    +0.259 C 
ATOM     20  C   UNL     1       0.584  -2.680  -1.325  0.00  0.00    +0.062 C 
BRANCH  19  21
ATOM     21  C   UNL     1       1.178  -0.662  -0.012  0.00  0.00    +0.258 C 
ATOM     22  O   UNL     1       2.220  -0.041  -0.018  0.00  0.00    -0.271 OA
ATOM     23  N   UNL     1       0.002  -0.004   0.002  0.00  0.00    -0.276 N 
ATOM     24  H   UNL     1      -0.943  -0.567   0.008  0.00  0.00    +0.155 HD
BRANCH  23  25
ATOM     25  C   UNL     1      -0.017   1.382   0.010  0.00  0.00    +0.084 A 
ATOM     26  C   UNL     1      -1.117   2.231   0.019  0.00  0.00    +0.065 A 
ATOM     27  C   UNL     1      -0.845   3.648   0.029  0.00  0.00    +0.022 A 
ATOM     28  C   UNL     1       0.447   4.025   0.019  0.00  0.00    +0.048 A 
ATOM     29  S   UNL     1       1.325   2.476   0.003  0.00  0.00    -0.081 S 
BRANCH  26  30
ATOM     30  C   UNL     1      -2.489   1.712   0.021  0.00  0.00    +0.244 C 
ATOM     31  O   UNL     1      -2.685   0.510   0.015  0.00  0.00    -0.270 OA
ATOM     32  N   UNL     1      -3.532   2.565   0.030  0.00  0.00    -0.325 N 
ATOM     33  H   UNL     1      -4.561   2.175   0.032  0.00  0.00    +0.145 HD
ATOM     34  H   UNL     1      -3.355   3.650   0.035  0.00  0.00    +0.145 HD
ENDBRANCH  26  30
ENDBRANCH  23  25
ENDBRANCH  19  21
ENDBRANCH  18  19
ENDBRANCH   1  18
TORSDOF 8
