REMARK  Name = ZINC63316058
REMARK  11 active torsions:
REMARK  status: ('A' for Active; 'I' for Inactive)
REMARK    1  A    between atoms: C_1  and  C_2
REMARK    2  A    between atoms: C_2  and  C_4
REMARK    3  A    between atoms: C_2  and  N_17
REMARK    4  A    between atoms: C_4  and  N_6
REMARK    5  A    between atoms: C_18  and  C_20
REMARK    6  A    between atoms: C_25  and  O_34
REMARK    7  A    between atoms: C_26  and  O_32
REMARK    8  A    between atoms: C_27  and  O_30
REMARK    9  A    between atoms: O_30  and  C_31
REMARK   10  A    between atoms: O_32  and  C_33
REMARK   11  A    between atoms: O_34  and  C_35
REMARK                            x       y       z     vdW  Elec       q    Type
REMARK                         _______ _______ _______ _____ _____    ______ ____
ROOT
ATOM      1  N   UNL     1       0.740  -0.626   1.274  0.00  0.00    -0.302 N 
ATOM      2  C   UNL     1       2.079  -0.780   1.267  0.00  0.00    +0.240 C 
ATOM      3  O   UNL     1       2.717  -0.491   0.276  0.00  0.00    -0.273 OA
ATOM      4  H   UNL     1       0.230  -0.857   2.066  0.00  0.00    +0.150 HD
ENDROOT
BRANCH   2   5
ATOM      5  C   UNL     1       2.784  -1.310   2.489  0.00  0.00    +0.190 C 
ATOM      6  C   UNL     1       2.314  -2.715   2.792  0.00  0.00    +0.017 C 
ATOM      7  C   UNL     1       3.407  -3.503   2.710  0.00  0.00    +0.004 A 
ATOM      8  C   UNL     1       3.609  -4.946   2.894  0.00  0.00    +0.059 A 
ATOM      9  C   UNL     1       4.847  -5.473   2.745  0.00  0.00    +0.166 A 
ATOM     10  C   UNL     1       5.967  -4.681   2.415  0.00  0.00    +0.206 A 
ATOM     11  C   UNL     1       5.879  -3.338   2.224  0.00  0.00    +0.189 A 
ATOM     12  C   UNL     1       4.582  -2.669   2.363  0.00  0.00    +0.089 A 
ATOM     13  N   UNL     1       4.226  -1.412   2.236  0.00  0.00    -0.367 N 
ATOM     14  H   UNL     1       4.815  -0.675   2.014  0.00  0.00    +0.161 HD
BRANCH  11  15
ATOM     15  O   UNL     1       6.989  -2.619   1.906  0.00  0.00    -0.489 OA
ATOM     16  C   UNL     1       7.687  -1.993   2.985  0.00  0.00    +0.277 C 
ENDBRANCH  11  15
BRANCH  10  17
ATOM     17  O   UNL     1       7.177  -5.283   2.283  0.00  0.00    -0.488 OA
ATOM     18  C   UNL     1       7.571  -5.666   0.964  0.00  0.00    +0.277 C 
ENDBRANCH  10  17
BRANCH   9  19
ATOM     19  O   UNL     1       5.016  -6.810   2.920  0.00  0.00    -0.491 OA
ATOM     20  C   UNL     1       3.855  -7.573   3.255  0.00  0.00    +0.277 C 
ENDBRANCH   9  19
ENDBRANCH   2   5
BRANCH   1  22
ATOM     21  C   UNL     1       0.083   1.419   0.106  0.00  0.00    +0.038 C 
ATOM     22  C   UNL     1       0.055  -0.110   0.087  0.00  0.00    +0.158 C 
BRANCH  22  23
ATOM     23  C   UNL     1      -1.375  -0.586   0.085  0.00  0.00    +0.258 C 
ATOM     24  O   UNL     1      -1.783  -1.289   0.990  0.00  0.00    -0.272 OA
BRANCH  23  25
ATOM     25  N   UNL     1      -2.190  -0.238  -0.905  0.00  0.00    -0.155 NA
ATOM     26  C   UNL     1      -3.421  -0.742  -0.962  0.00  0.00    +0.164 A 
ATOM     27  N   UNL     1      -4.042  -1.527  -0.046  0.00  0.00    -0.335 N 
ATOM     28  H   UNL     1      -3.580  -1.783   0.767  0.00  0.00    +0.168 HD
ATOM     29  C   UNL     1      -5.334  -1.961  -0.276  0.00  0.00    +0.055 A 
ATOM     30  C   UNL     1      -6.153  -2.768   0.526  0.00  0.00    +0.027 A 
ATOM     31  C   UNL     1      -7.426  -3.095   0.121  0.00  0.00    +0.002 A 
ATOM     32  C   UNL     1      -7.934  -2.640  -1.084  0.00  0.00    +0.001 A 
ATOM     33  C   UNL     1      -7.146  -1.841  -1.894  0.00  0.00    +0.017 A 
ATOM     34  C   UNL     1      -5.874  -1.513  -1.490  0.00  0.00    +0.039 A 
ATOM     35  S   UNL     1      -4.560  -0.544  -2.183  0.00  0.00    -0.052 S 
ENDBRANCH  23  25
ENDBRANCH  22  23
ENDBRANCH   1  22
TORSDOF 7
