REMARK  Name = ZINC29717911
REMARK  8 active torsions:
REMARK  status: ('A' for Active; 'I' for Inactive)
REMARK    1  A    between atoms: C_4  and  C_7
REMARK    2  A    between atoms: C_7  and  N_8
REMARK    3  A    between atoms: C_9  and  C_11
REMARK    4  A    between atoms: N_14  and  C_17
REMARK    5  A    between atoms: C_17  and  C_18
REMARK    6  A    between atoms: N_20  and  C_21
REMARK    7  A    between atoms: C_22  and  C_36
REMARK    8  A    between atoms: N_25  and  C_26
REMARK                            x       y       z     vdW  Elec       q    Type
REMARK                         _______ _______ _______ _____ _____    ______ ____
ROOT
ATOM      1  C   UNL     1      -2.145   2.619  -5.477  0.00  0.00    +0.202 C 
ATOM      2  O   UNL     1      -3.163   2.985  -4.928  0.00  0.00    -0.278 OA
ATOM      3  N   UNL     1      -1.097   2.200  -4.741  0.00  0.00    -0.272 N 
ATOM      4  H   UNL     1      -0.168   1.883  -5.238  0.00  0.00    +0.156 HD
ENDROOT
BRANCH   3   5
ATOM      5  C   UNL     1      -1.189   2.168  -3.357  0.00  0.00    +0.128 A 
ATOM      6  C   UNL     1      -0.175   2.490  -2.463  0.00  0.00    +0.095 A 
ATOM      7  C   UNL     1      -0.746   2.306  -1.130  0.00  0.00    -0.007 A 
ATOM      8  C   UNL     1      -2.019   1.900  -1.297  0.00  0.00    +0.030 A 
ATOM      9  N   UNL     1      -2.289   1.817  -2.635  0.00  0.00    -0.300 N 
ATOM     10  C   UNL     1      -2.958   1.595  -0.153  0.00  0.00    +0.054 C 
ATOM     11  C   UNL     1      -2.126   1.413   1.122  0.00  0.00    +0.006 C 
ATOM     12  C   UNL     1      -1.167   2.597   1.282  0.00  0.00    +0.005 C 
ATOM     13  C   UNL     1      -0.079   2.518   0.203  0.00  0.00    +0.038 C 
BRANCH   9  14
ATOM     14  C   UNL     1      -3.518   1.427  -3.184  0.00  0.00    +0.048 A 
ATOM     15  C   UNL     1      -4.656   2.188  -2.953  0.00  0.00    +0.026 A 
ATOM     16  C   UNL     1      -5.865   1.805  -3.499  0.00  0.00    +0.002 A 
ATOM     17  C   UNL     1      -5.945   0.657  -4.267  0.00  0.00    +0.000 A 
ATOM     18  C   UNL     1      -4.815  -0.106  -4.494  0.00  0.00    +0.002 A 
ATOM     19  C   UNL     1      -3.602   0.275  -3.955  0.00  0.00    +0.026 A 
ENDBRANCH   9  14
BRANCH   6  20
ATOM     20  C   UNL     1       1.155   2.914  -2.781  0.00  0.00    +0.103 C 
ATOM     21  N   UNL     1       2.211   3.251  -3.034  0.00  0.00    -0.191 NA
ENDBRANCH   6  20
ENDBRANCH   3   5
BRANCH   1  22
ATOM     22  C   UNL     1      -2.053   2.632  -6.981  0.00  0.00    +0.019 C 
BRANCH  22  26
ATOM     23  C   UNL     1      -5.654   3.093  -9.239  0.00  0.00    +0.071 C 
ATOM     24  C   UNL     1      -4.470   4.026  -9.509  0.00  0.00    -0.006 C 
ATOM     25  C   UNL     1      -3.187   3.378  -8.986  0.00  0.00    -0.077 C 
ATOM     26  N   UNL     1      -3.316   3.126  -7.545  0.00  0.00    +0.385 N 
ATOM     27  C   UNL     1      -4.417   2.195  -7.265  0.00  0.00    -0.077 C 
ATOM     28  C   UNL     1      -5.737   2.808  -7.737  0.00  0.00    -0.006 C 
ATOM     29  H   UNL     1      -3.555   4.083  -7.057  0.00  0.00    -0.081 HD
BRANCH  23  31
ATOM     30  N   UNL     1      -8.107   3.111  -9.560  0.00  0.00    -0.311 N 
ATOM     31  C   UNL     1      -6.929   3.752  -9.698  0.00  0.00    +0.216 C 
ATOM     32  O   UNL     1      -6.896   4.859 -10.193  0.00  0.00    -0.276 OA
ATOM     33  H   UNL     1      -8.137   2.107  -9.111  0.00  0.00    +0.149 HD
BRANCH  30  34
ATOM     34  C   UNL     1      -9.347   3.751 -10.006  0.00  0.00    +0.139 C 
BRANCH  34  38
ATOM     35  C   UNL     1     -12.646   1.145  -9.253  0.00  0.00    +0.000 A 
ATOM     36  C   UNL     1     -12.251   2.055  -8.291  0.00  0.00    +0.000 A 
ATOM     37  C   UNL     1     -11.183   2.898  -8.534  0.00  0.00    +0.005 A 
ATOM     38  C   UNL     1     -10.511   2.832  -9.740  0.00  0.00    -0.030 A 
ATOM     39  C   UNL     1     -10.910   1.925 -10.705  0.00  0.00    +0.005 A 
ATOM     40  C   UNL     1     -11.974   1.078 -10.459  0.00  0.00    +0.000 A 
ENDBRANCH  34  38
ENDBRANCH  30  34
ENDBRANCH  23  31
ENDBRANCH  22  26
ENDBRANCH   1  22
TORSDOF 8
