REMARK  Name = ZINC20577578
REMARK  6 active torsions:
REMARK  status: ('A' for Active; 'I' for Inactive)
REMARK    1  A    between atoms: C_1  and  C_2
REMARK    2  A    between atoms: C_2  and  C_3
REMARK    3  A    between atoms: C_2  and  C_4
REMARK    4  A    between atoms: C_8  and  S_15
REMARK    5  A    between atoms: S_15  and  N_18
REMARK    6  A    between atoms: N_18  and  C_19
REMARK                            x       y       z     vdW  Elec       q    Type
REMARK                         _______ _______ _______ _____ _____    ______ ____
ROOT
ATOM      1  C   UNL     1       0.718  -0.497  -1.257  0.00  0.00    +0.110 C 
ATOM      2  C   UNL     1       2.154  -0.026  -1.268  0.00  0.00    -0.012 A 
ATOM      3  C   UNL     1       2.729   1.225  -1.280  0.00  0.00    +0.034 A 
ATOM      4  C   UNL     1       4.107   1.352  -1.289  0.00  0.00    +0.106 A 
ATOM      5  C   UNL     1       4.902   0.220  -1.286  0.00  0.00    +0.030 A 
ATOM      6  C   UNL     1       4.328  -1.035  -1.275  0.00  0.00    +0.025 A 
ATOM      7  C   UNL     1       2.941  -1.170  -1.266  0.00  0.00    +0.037 A 
ATOM      8  N   UNL     1       2.136  -2.310  -1.254  0.00  0.00    -0.285 N 
ATOM      9  C   UNL     1       0.824  -2.008  -1.250  0.00  0.00    +0.225 C 
ATOM     10  O   UNL     1      -0.099  -2.794  -1.240  0.00  0.00    -0.275 OA
ATOM     11  H   UNL     1       2.482  -3.216  -1.250  0.00  0.00    +0.155 HD
ENDROOT
BRANCH   1  13
ATOM     12  C   UNL     1      -0.019   1.526   0.010  0.00  0.00    +0.008 C 
ATOM     13  C   UNL     1       0.002  -0.004   0.002  0.00  0.00    -0.001 C 
ATOM     14  C   UNL     1      -1.433  -0.534   0.013  0.00  0.00    +0.008 C 
ENDBRANCH   1  13
BRANCH   4  15
ATOM     15  S   UNL     1       4.847   2.951  -1.304  0.00  0.00    +0.059 S 
ATOM     16  O   UNL     1       6.144   2.792  -1.862  0.00  0.00    -0.153 OA
ATOM     17  O   UNL     1       3.884   3.839  -1.855  0.00  0.00    -0.153 OA
BRANCH  15  18
ATOM     18  N   UNL     1       5.062   3.406   0.273  0.00  0.00    -0.187 NA
ATOM     19  H   UNL     1       4.576   4.166   0.629  0.00  0.00    +0.148 HD
BRANCH  18  20
ATOM     20  C   UNL     1       5.986   2.660   1.131  0.00  0.00    +0.077 C 
ATOM     21  C   UNL     1       5.210   1.606   1.923  0.00  0.00    +0.020 C 
ATOM     22  C   UNL     1       6.187   0.582   2.503  0.00  0.00    +0.002 C 
ATOM     23  C   UNL     1       7.215   0.197   1.438  0.00  0.00    +0.000 C 
ATOM     24  C   UNL     1       8.597   0.705   1.855  0.00  0.00    +0.000 C 
ATOM     25  C   UNL     1       8.677   2.215   1.616  0.00  0.00    +0.000 C 
ATOM     26  C   UNL     1       7.900   2.946   2.712  0.00  0.00    +0.002 C 
ATOM     27  C   UNL     1       6.672   3.625   2.102  0.00  0.00    +0.020 C 
ENDBRANCH  18  20
ENDBRANCH  15  18
ENDBRANCH   4  15
TORSDOF 4
