REMARK  Name = ZINC18581217
REMARK  13 active torsions:
REMARK  status: ('A' for Active; 'I' for Inactive)
REMARK    1  A    between atoms: C_1  and  C_2
REMARK    2  A    between atoms: C_2  and  C_4
REMARK    3  A    between atoms: C_2  and  S_19
REMARK    4  A    between atoms: C_16  and  C_17
REMARK    5  A    between atoms: C_16  and  C_18
REMARK    6  A    between atoms: S_19  and  C_20
REMARK    7  A    between atoms: C_23  and  C_26
REMARK    8  A    between atoms: N_24  and  N_25
REMARK    9  A    between atoms: C_26  and  O_27
REMARK   10  A    between atoms: O_27  and  C_28
REMARK   11  A    between atoms: C_31  and  C_34
REMARK   12  A    between atoms: C_34  and  C_35
REMARK   13  A    between atoms: C_34  and  C_36
REMARK                            x       y       z     vdW  Elec       q    Type
REMARK                         _______ _______ _______ _____ _____    ______ ____
ROOT
ATOM      1  S   UNL     1      -1.519  -0.039  -1.582  0.00  0.00    -0.072 S 
ENDROOT
BRANCH   1   2
ATOM      2  C   UNL     1      -1.678   0.751  -3.149  0.00  0.00    +0.209 A 
ATOM      3  N   UNL     1      -0.748   1.430  -3.780  0.00  0.00    -0.121 NA
ATOM      4  N   UNL     1      -1.208   1.867  -4.897  0.00  0.00    -0.128 NA
ATOM      5  C   UNL     1      -2.449   1.496  -5.046  0.00  0.00    +0.189 A 
ATOM      6  N   UNL     1      -2.791   0.767  -3.941  0.00  0.00    -0.225 N 
BRANCH   6   7
ATOM      7  N   UNL     1      -3.997   0.180  -3.681  0.00  0.00    -0.295 N 
ATOM      8  H   UNL     1      -4.608   0.813  -3.186  0.00  0.00    +0.163 HD
ATOM      9  H   UNL     1      -4.429  -0.149  -4.531  0.00  0.00    +0.163 HD
ENDBRANCH   6   7
BRANCH   5  10
ATOM     10  C   UNL     1      -3.339   1.808  -6.221  0.00  0.00    +0.306 C 
BRANCH  10  11
ATOM     11  O   UNL     1      -3.211   0.778  -7.203  0.00  0.00    -0.484 OA
BRANCH  11  12
ATOM     12  C   UNL     1      -3.953   0.908  -8.334  0.00  0.00    +0.121 A 
ATOM     13  C   UNL     1      -4.782   2.007  -8.498  0.00  0.00    +0.046 A 
ATOM     14  C   UNL     1      -5.535   2.137  -9.649  0.00  0.00    +0.007 A 
ATOM     15  C   UNL     1      -5.462   1.172 -10.637  0.00  0.00    -0.045 A 
ATOM     16  C   UNL     1      -4.636   0.075 -10.475  0.00  0.00    +0.007 A 
ATOM     17  C   UNL     1      -3.877  -0.056  -9.329  0.00  0.00    +0.046 A 
BRANCH  15  18
ATOM     18  C   UNL     1      -6.285   1.316 -11.891  0.00  0.00    +0.013 C 
ATOM     19  C   UNL     1      -5.357   1.369 -13.107  0.00  0.00    +0.012 C 
ATOM     20  C   UNL     1      -7.229   0.118 -12.023  0.00  0.00    +0.012 C 
ENDBRANCH  15  18
ENDBRANCH  11  12
ENDBRANCH  10  11
ENDBRANCH   5  10
ENDBRANCH   1   2
BRANCH   1  22
ATOM     21  C   UNL     1       0.348   1.827  -0.865  0.00  0.00    +0.029 C 
ATOM     22  C   UNL     1       0.187   0.321  -1.081  0.00  0.00    +0.137 C 
BRANCH  22  23
ATOM     23  C   UNL     1       0.497  -0.406   0.202  0.00  0.00    +0.234 C 
ATOM     24  O   UNL     1      -0.366  -1.051   0.758  0.00  0.00    -0.274 OA
ATOM     25  N   UNL     1       1.736  -0.341   0.731  0.00  0.00    -0.255 N 
ATOM     26  C   UNL     1       2.000  -0.832   2.019  0.00  0.00    +0.059 A 
ATOM     27  C   UNL     1       1.020  -0.838   2.996  0.00  0.00    +0.025 A 
ATOM     28  C   UNL     1       1.312  -1.325   4.257  0.00  0.00    +0.002 A 
ATOM     29  C   UNL     1       2.578  -1.804   4.542  0.00  0.00    +0.002 A 
ATOM     30  C   UNL     1       3.561  -1.802   3.569  0.00  0.00    +0.025 A 
ATOM     31  C   UNL     1       3.277  -1.318   2.302  0.00  0.00    +0.055 A 
ATOM     32  N   UNL     1       4.254  -1.317   1.300  0.00  0.00    -0.282 N 
ATOM     33  C   UNL     1       4.079  -0.608   0.170  0.00  0.00    +0.241 C 
ATOM     34  O   UNL     1       4.919  -0.657  -0.704  0.00  0.00    -0.273 OA
ATOM     35  C   UNL     1       2.854   0.242  -0.026  0.00  0.00    +0.113 C 
ATOM     36  C   UNL     1       3.132   1.658   0.481  0.00  0.00    +0.042 C 
ATOM     37  C   UNL     1       2.497   0.289  -1.513  0.00  0.00    +0.042 C 
ATOM     38  H   UNL     1       5.066  -1.834   1.422  0.00  0.00    +0.155 HD
ENDBRANCH  22  23
ENDBRANCH   1  22
TORSDOF 8
