REMARK  Name = ZINC20701466
REMARK  8 active torsions:
REMARK  status: ('A' for Active; 'I' for Inactive)
REMARK    1  A    between atoms: C_2  and  C_3
REMARK    2  A    between atoms: C_3  and  N_4
REMARK    3  A    between atoms: N_4  and  C_5
REMARK    4  A    between atoms: N_4  and  S_8
REMARK    5  A    between atoms: C_5  and  C_6
REMARK    6  A    between atoms: S_8  and  C_11
REMARK    7  A    between atoms: C_24  and  C_27
REMARK    8  A    between atoms: C_32  and  O_33
REMARK                            x       y       z     vdW  Elec       q    Type
REMARK                         _______ _______ _______ _____ _____    ______ ____
ROOT
ATOM      1  C   UNL     1      -2.400  -0.099  -0.711  0.00  0.00    +0.106 A 
ATOM      2  C   UNL     1      -1.141  -0.099  -0.139  0.00  0.00    +0.030 A 
ATOM      3  C   UNL     1      -0.482  -1.295   0.065  0.00  0.00    +0.025 A 
ATOM      4  C   UNL     1      -1.078  -2.490  -0.317  0.00  0.00    +0.031 A 
ATOM      5  C   UNL     1      -2.337  -2.495  -0.896  0.00  0.00    -0.018 A 
ATOM      6  C   UNL     1      -2.993  -1.287  -1.088  0.00  0.00    +0.034 A 
ATOM      7  C   UNL     1      -3.017  -3.757  -1.324  0.00  0.00    +0.049 C 
ATOM      8  C   UNL     1      -2.987  -3.914  -2.826  0.00  0.00    -0.023 C 
ATOM      9  C   UNL     1      -2.837  -5.176  -3.148  0.00  0.00    -0.030 C 
ATOM     10  C   UNL     1      -2.751  -6.035  -1.901  0.00  0.00    +0.033 C 
ATOM     11  C   UNL     1      -2.319  -5.026  -0.797  0.00  0.00    +0.029 C 
ATOM     12  C   UNL     1      -0.799  -4.866  -0.896  0.00  0.00    +0.109 C 
ATOM     13  N   UNL     1      -0.393  -3.693  -0.114  0.00  0.00    -0.336 N 
ATOM     14  H   UNL     1       0.432  -3.773   0.610  0.00  0.00    +0.147 HD
ENDROOT
BRANCH  12  15
ATOM     15  C   UNL     1      -0.405  -4.673  -2.337  0.00  0.00    +0.017 A 
ATOM     16  C   UNL     1      -0.445  -3.412  -2.902  0.00  0.00    +0.029 A 
ATOM     17  C   UNL     1      -0.083  -3.234  -4.225  0.00  0.00    +0.043 A 
ATOM     18  C   UNL     1       0.320  -4.317  -4.986  0.00  0.00    +0.043 A 
ATOM     19  C   UNL     1       0.362  -5.580  -4.425  0.00  0.00    +0.084 A 
ATOM     20  C   UNL     1       0.004  -5.759  -3.096  0.00  0.00    +0.140 A 
ATOM     21 CL   UNL     1       0.868  -6.938  -5.380  0.00  0.00    -0.080 Cl
ATOM     22 CL   UNL     1      -0.134  -1.649  -4.932  0.00  0.00    -0.083 Cl
BRANCH  20  23
ATOM     23  O   UNL     1       0.050  -6.999  -2.540  0.00  0.00    -0.505 OA
ATOM     24  H   UNL     1       0.375  -7.860  -3.142  0.00  0.00    +0.292 HD
ENDBRANCH  20  23
ENDBRANCH  12  15
BRANCH   1  25
ATOM     25  S   UNL     1      -3.249   1.424  -0.965  0.00  0.00    +0.061 S 
ATOM     26  O   UNL     1      -2.254   2.437  -1.026  0.00  0.00    -0.153 OA
ATOM     27  O   UNL     1      -4.176   1.202  -2.018  0.00  0.00    -0.153 OA
BRANCH  25  28
ATOM     28  N   UNL     1      -4.142   1.720   0.398  0.00  0.00    -0.169 NA
BRANCH  28  29
ATOM     29  C   UNL     1      -3.559   2.481   1.506  0.00  0.00    +0.136 C 
BRANCH  29  31
ATOM     30  C   UNL     1      -4.537   4.545   2.368  0.00  0.00    +0.005 C 
ATOM     31  C   UNL     1      -3.941   3.932   1.375  0.00  0.00    -0.018 C 
ENDBRANCH  29  31
ENDBRANCH  28  29
BRANCH  28  32
ATOM     32  C   UNL     1      -5.516   1.222   0.495  0.00  0.00    +0.136 C 
BRANCH  32  33
ATOM     33  C   UNL     1      -5.521  -0.102   1.215  0.00  0.00    -0.018 C 
ATOM     34  C   UNL     1      -6.272  -0.268   2.275  0.00  0.00    +0.005 C 
ENDBRANCH  32  33
ENDBRANCH  28  32
ENDBRANCH  25  28
ENDBRANCH   1  25
TORSDOF 8
