REMARK  Name = ZINC09331731
REMARK  9 active torsions:
REMARK  status: ('A' for Active; 'I' for Inactive)
REMARK    1  A    between atoms: C_1  and  C_2
REMARK    2  A    between atoms: C_9  and  N_33
REMARK    3  A    between atoms: C_10  and  C_31
REMARK    4  A    between atoms: C_11  and  C_13
REMARK    5  A    between atoms: C_15  and  O_29
REMARK    6  A    between atoms: C_16  and  O_20
REMARK    7  A    between atoms: O_20  and  C_21
REMARK    8  A    between atoms: C_21  and  C_22
REMARK    9  A    between atoms: O_29  and  C_30
REMARK                            x       y       z     vdW  Elec       q    Type
REMARK                         _______ _______ _______ _____ _____    ______ ____
ROOT
ATOM      1  C   UNL     1       1.340   0.149  -2.935  0.00  0.00    -0.030 A 
ATOM      2  C   UNL     1       1.432   1.440  -3.421  0.00  0.00    +0.054 A 
ATOM      3  C   UNL     1       2.666   1.959  -3.780  0.00  0.00    +0.163 A 
ATOM      4  C   UNL     1       3.810   1.177  -3.651  0.00  0.00    +0.176 A 
ATOM      5  C   UNL     1       3.711  -0.116  -3.163  0.00  0.00    +0.063 A 
ATOM      6  C   UNL     1       2.476  -0.626  -2.802  0.00  0.00    +0.023 A 
ATOM      7 BR   UNL     1       5.263  -1.182  -2.986  0.00  0.00    -0.046 Br
ENDROOT
BRANCH   1  18
ATOM      8  C   UNL     1      -0.018   1.503   0.010  0.00  0.00    +0.065 C 
ATOM      9  C   UNL     1       0.002  -0.004   0.002  0.00  0.00    +0.041 A 
ATOM     10  C   UNL     1       0.008  -0.790  -1.085  0.00  0.00    +0.049 A 
ATOM     11  C   UNL     1       0.027  -2.135  -0.654  0.00  0.00    +0.245 A 
ATOM     12  N   UNL     1       0.034  -2.141   0.647  0.00  0.00    -0.135 NA
ATOM     13  N   UNL     1       0.024  -0.809   1.090  0.00  0.00    -0.278 N 
ATOM     14  H   UNL     1       0.029  -0.516   2.015  0.00  0.00    +0.189 HD
ATOM     15  O   UNL     1       0.034  -3.173  -1.533  0.00  0.00    -0.421 OA
ATOM     16  C   UNL     1      -0.251  -2.898  -2.821  0.00  0.00    +0.201 C 
ATOM     17  C   UNL     1      -0.287  -1.657  -3.349  0.00  0.00    +0.098 C 
ATOM     18  C   UNL     1      -0.003  -0.413  -2.545  0.00  0.00    +0.101 C 
BRANCH  16  19
ATOM     19  N   UNL     1      -0.523  -3.954  -3.655  0.00  0.00    -0.328 N 
ATOM     20  H   UNL     1      -0.506  -4.861  -3.310  0.00  0.00    +0.145 HD
ATOM     21  H   UNL     1      -0.732  -3.794  -4.588  0.00  0.00    +0.145 HD
ENDBRANCH  16  19
BRANCH  17  22
ATOM     22  C   UNL     1      -0.609  -1.514  -4.737  0.00  0.00    +0.101 C 
ATOM     23  N   UNL     1      -0.864  -1.400  -5.838  0.00  0.00    -0.191 NA
ENDBRANCH  17  22
ENDBRANCH   1  18
BRANCH   3  24
ATOM     24  O   UNL     1       2.758   3.228  -4.258  0.00  0.00    -0.491 OA
ATOM     25  C   UNL     1       1.542   3.972  -4.364  0.00  0.00    +0.277 C 
ENDBRANCH   3  24
BRANCH   4  26
ATOM     26  O   UNL     1       5.023   1.682  -4.003  0.00  0.00    -0.483 OA
BRANCH  26  27
ATOM     27  C   UNL     1       5.765   2.357  -2.985  0.00  0.00    +0.264 C 
BRANCH  27  28
ATOM     28  C   UNL     1       7.072   2.844  -3.556  0.00  0.00    -0.010 A 
ATOM     29  C   UNL     1       8.189   2.031  -3.515  0.00  0.00    +0.008 A 
ATOM     30  C   UNL     1       9.388   2.477  -4.038  0.00  0.00    +0.020 A 
ATOM     31  C   UNL     1       9.470   3.737  -4.603  0.00  0.00    +0.041 A 
ATOM     32  C   UNL     1       8.352   4.551  -4.644  0.00  0.00    +0.020 A 
ATOM     33  C   UNL     1       7.152   4.101  -4.125  0.00  0.00    +0.008 A 
ATOM     34 CL   UNL     1      10.976   4.298  -5.260  0.00  0.00    -0.084 Cl
ENDBRANCH  27  28
ENDBRANCH  26  27
ENDBRANCH   4  26
TORSDOF 7
