REMARK  Name = ZINC14479911
REMARK  4 active torsions:
REMARK  status: ('A' for Active; 'I' for Inactive)
REMARK    1  A    between atoms: C_1  and  C_2
REMARK    2  A    between atoms: C_6  and  C_8
REMARK    3  A    between atoms: C_18  and  N_25
REMARK    4  A    between atoms: C_21  and  O_24
REMARK                            x       y       z     vdW  Elec       q    Type
REMARK                         _______ _______ _______ _____ _____    ______ ____
ROOT
ATOM      1  C   UNL     1      -0.752   3.250  -2.031  0.00  0.00    +0.105 C 
ATOM      2  C   UNL     1      -0.331   3.715  -0.635  0.00  0.00    +0.029 C 
ATOM      3  C   UNL     1       1.199   3.989  -0.665  0.00  0.00    +0.033 C 
ATOM      4  C   UNL     1       1.810   2.615  -0.475  0.00  0.00    -0.030 C 
ATOM      5  C   UNL     1       0.946   1.800   0.077  0.00  0.00    -0.023 C 
ATOM      6  C   UNL     1      -0.367   2.506   0.320  0.00  0.00    +0.051 C 
ATOM      7  C   UNL     1      -1.521   1.596   0.018  0.00  0.00    +0.014 A 
ATOM      8  C   UNL     1      -1.774   0.550   0.898  0.00  0.00    +0.132 A 
ATOM      9  C   UNL     1      -2.817  -0.323   0.675  0.00  0.00    +0.037 A 
ATOM     10  C   UNL     1      -3.627  -0.165  -0.436  0.00  0.00    +0.049 A 
ATOM     11  C   UNL     1      -3.386   0.871  -1.318  0.00  0.00    +0.138 A 
ATOM     12  C   UNL     1      -2.329   1.759  -1.091  0.00  0.00    +0.076 A 
ATOM     13  N   UNL     1      -2.134   2.794  -2.009  0.00  0.00    -0.334 N 
ATOM     14  H   UNL     1      -2.878   3.262  -2.670  0.00  0.00    +0.147 HD
ENDROOT
BRANCH   1  20
ATOM     15  C   UNL     1       0.007  -1.651  -2.699  0.00  0.00    +0.044 C 
ATOM     16  C   UNL     1       0.498  -0.229  -2.792  0.00  0.00    -0.050 A 
ATOM     17  C   UNL     1       1.764   0.034  -3.283  0.00  0.00    +0.003 A 
ATOM     18  C   UNL     1       2.215   1.337  -3.369  0.00  0.00    +0.001 A 
ATOM     19  C   UNL     1       1.399   2.379  -2.968  0.00  0.00    +0.005 A 
ATOM     20  C   UNL     1       0.135   2.115  -2.473  0.00  0.00    -0.027 A 
ATOM     21  C   UNL     1      -0.316   0.811  -2.388  0.00  0.00    +0.008 A 
ENDBRANCH   1  20
BRANCH   8  22
ATOM     22  N   UNL     1      -0.913   0.372   2.089  0.00  0.00    +0.057 N 
ATOM     23  O   UNL     1      -1.128  -0.542   2.865  0.00  0.00    -0.126 OA
ATOM     24  O   UNL     1       0.011   1.139   2.293  0.00  0.00    -0.126 OA
ENDBRANCH   8  22
BRANCH  11  25
ATOM     25  O   UNL     1      -4.181   1.029  -2.410  0.00  0.00    -0.505 OA
ATOM     26  H   UNL     1      -3.991   1.853  -3.114  0.00  0.00    +0.292 HD
ENDBRANCH  11  25
TORSDOF 3
