REMARK  Name = ZINC20560234
REMARK  9 active torsions:
REMARK  status: ('A' for Active; 'I' for Inactive)
REMARK    1  A    between atoms: C_1  and  C_2
REMARK    2  A    between atoms: C_2  and  O_3
REMARK    3  A    between atoms: O_3  and  C_4
REMARK    4  A    between atoms: C_4  and  C_6
REMARK    5  A    between atoms: C_7  and  C_21
REMARK    6  A    between atoms: C_12  and  C_14
REMARK    7  A    between atoms: C_17  and  C_20
REMARK    8  A    between atoms: C_21  and  N_22
REMARK    9  A    between atoms: N_25  and  C_28
REMARK                            x       y       z     vdW  Elec       q    Type
REMARK                         _______ _______ _______ _____ _____    ______ ____
ROOT
ATOM      1  C   UNL     1       0.686  -3.062   3.449  0.00  0.00    +0.079 C 
ATOM      2  C   UNL     1       1.457  -2.567   2.457  0.00  0.00    +0.038 C 
ATOM      3  N   UNL     1       2.758  -2.219   2.683  0.00  0.00    -0.271 N 
ATOM      4  C   UNL     1       3.359  -2.326   3.874  0.00  0.00    +0.304 C 
ATOM      5  O   UNL     1       4.522  -1.986   3.979  0.00  0.00    -0.252 OA
ATOM      6  N   UNL     1       2.720  -2.804   4.960  0.00  0.00    -0.288 N 
ATOM      7  C   UNL     1       1.312  -3.213   4.820  0.00  0.00    +0.144 C 
ATOM      8  H   UNL     1       3.373  -1.826   1.860  0.00  0.00    +0.156 HD
ATOM      9  H   UNL     1       3.224  -2.892   5.934  0.00  0.00    +0.151 HD
ENDROOT
BRANCH   7  10
ATOM     10  C   UNL     1       0.495  -2.404   5.795  0.00  0.00    -0.022 A 
ATOM     11  C   UNL     1       0.679  -1.037   5.884  0.00  0.00    +0.006 A 
ATOM     12  C   UNL     1      -0.073  -0.294   6.774  0.00  0.00    +0.004 A 
ATOM     13  C   UNL     1      -1.003  -0.920   7.584  0.00  0.00    -0.050 A 
ATOM     14  C   UNL     1      -1.183  -2.288   7.499  0.00  0.00    +0.004 A 
ATOM     15  C   UNL     1      -0.435  -3.030   6.604  0.00  0.00    +0.006 A 
ATOM     16  C   UNL     1      -1.819  -0.112   8.559  0.00  0.00    +0.044 C 
ENDBRANCH   7  10
BRANCH   1  17
ATOM     17  C   UNL     1      -0.660  -3.428   3.215  0.00  0.00    +0.339 C 
ATOM     18  O   UNL     1      -1.178  -3.188   2.140  0.00  0.00    -0.245 OA
BRANCH  17  19
ATOM     19  O   UNL     1      -1.371  -4.042   4.184  0.00  0.00    -0.462 OA
BRANCH  19  21
ATOM     20  C   UNL     1      -3.363  -5.067   5.089  0.00  0.00    +0.048 C 
ATOM     21  C   UNL     1      -2.724  -4.383   3.879  0.00  0.00    +0.229 C 
ENDBRANCH  19  21
ENDBRANCH  17  19
ENDBRANCH   1  17
BRANCH   2  22
ATOM     22  C   UNL     1       0.874  -2.401   1.077  0.00  0.00    +0.135 C 
BRANCH  22  23
ATOM     23  N   UNL     1       0.150  -1.125   1.002  0.00  0.00    -0.300 NA
ATOM     24  C   UNL     1      -0.738  -1.091  -0.169  0.00  0.00    +0.066 C 
ATOM     25  C   UNL     1      -1.530   0.218  -0.168  0.00  0.00    -0.063 C 
ATOM     26  N   UNL     1      -0.597   1.353  -0.185  0.00  0.00    +0.383 N 
ATOM     27  C   UNL     1       0.290   1.319   0.985  0.00  0.00    -0.063 C 
ATOM     28  C   UNL     1       1.083   0.010   0.984  0.00  0.00    +0.066 C 
ATOM     29  H   UNL     1       0.027   1.266  -1.087  0.00  0.00    -0.081 HD
BRANCH  26  30
ATOM     30  C   UNL     1      -1.321   2.629  -0.261  0.00  0.00    -0.068 C 
ATOM     31  C   UNL     1      -2.062   2.716  -1.597  0.00  0.00    -0.015 C 
ATOM     32  C   UNL     1      -2.816   4.045  -1.676  0.00  0.00    -0.002 C 
ATOM     33  C   UNL     1      -1.822   5.203  -1.566  0.00  0.00    -0.000 C 
ATOM     34  C   UNL     1      -1.081   5.115  -0.230  0.00  0.00    -0.002 C 
ATOM     35  C   UNL     1      -0.327   3.787  -0.152  0.00  0.00    -0.015 C 
ENDBRANCH  26  30
ENDBRANCH  22  23
ENDBRANCH   2  22
TORSDOF 7
