REMARK  Name = ZINC67608359
REMARK  8 active torsions:
REMARK  status: ('A' for Active; 'I' for Inactive)
REMARK    1  A    between atoms: C_1  and  C_2
REMARK    2  A    between atoms: C_4  and  C_7
REMARK    3  A    between atoms: C_7  and  N_8
REMARK    4  A    between atoms: N_11  and  N_12
REMARK    5  A    between atoms: C_13  and  C_15
REMARK    6  A    between atoms: C_15  and  C_17
REMARK    7  A    between atoms: C_15  and  O_18
REMARK    8  A    between atoms: O_18  and  C_19
REMARK                            x       y       z     vdW  Elec       q    Type
REMARK                         _______ _______ _______ _____ _____    ______ ____
ROOT
ATOM      1  N   UNL     1      -1.800  -4.837  -3.959  0.00  0.00    -0.230 N 
ATOM      2  C   UNL     1      -1.997  -5.222  -5.235  0.00  0.00    +0.270 C 
ATOM      3  O   UNL     1      -2.523  -6.288  -5.473  0.00  0.00    -0.270 OA
ATOM      4  H   UNL     1      -1.379  -3.984  -3.769  0.00  0.00    +0.173 HD
ENDROOT
BRANCH   1   8
ATOM      5  N   UNL     1      -1.422  -4.099  -1.366  0.00  0.00    -0.293 N 
ATOM      6  C   UNL     1      -2.007  -5.284  -1.630  0.00  0.00    +0.316 C 
ATOM      7  O   UNL     1      -2.357  -6.006  -0.716  0.00  0.00    -0.251 OA
ATOM      8  N   UNL     1      -2.204  -5.669  -2.906  0.00  0.00    -0.218 N 
ATOM      9  H   UNL     1      -1.143  -3.523  -2.095  0.00  0.00    +0.151 HD
ATOM     10  H   UNL     1      -2.624  -6.522  -3.096  0.00  0.00    +0.174 HD
BRANCH   5  11
ATOM     11  C   UNL     1      -1.208  -3.680   0.022  0.00  0.00    +0.164 C 
BRANCH  11  15
ATOM     12  C   UNL     1      -0.519   1.363   0.236  0.00  0.00    +0.089 C 
ATOM     13  C   UNL     1      -0.261  -0.119   0.138  0.00  0.00    +0.135 A 
ATOM     14  C   UNL     1      -1.196  -1.088   0.158  0.00  0.00    +0.072 A 
ATOM     15  C   UNL     1      -0.543  -2.329   0.042  0.00  0.00    +0.101 A 
ATOM     16  N   UNL     1       0.738  -2.104  -0.044  0.00  0.00    -0.081 NA
ATOM     17  O   UNL     1       0.940  -0.704   0.009  0.00  0.00    -0.360 OA
ENDBRANCH  11  15
ENDBRANCH   5  11
ENDBRANCH   1   8
BRANCH   2  18
ATOM     18  C   UNL     1      -1.563  -4.327  -6.368  0.00  0.00    +0.257 C 
ATOM     19  C   UNL     1      -0.039  -4.191  -6.355  0.00  0.00    +0.062 C 
BRANCH  18  20
ATOM     20  O   UNL     1      -1.980  -4.895  -7.611  0.00  0.00    -0.480 OA
BRANCH  20  21
ATOM     21  C   UNL     1      -2.149  -4.041  -8.654  0.00  0.00    +0.122 A 
ATOM     22  C   UNL     1      -1.800  -2.694  -8.506  0.00  0.00    +0.046 A 
ATOM     23  C   UNL     1      -1.958  -1.815  -9.532  0.00  0.00    +0.012 A 
ATOM     24  C   UNL     1      -2.478  -2.262 -10.759  0.00  0.00    -0.018 A 
ATOM     25  C   UNL     1      -2.653  -1.380 -11.840  0.00  0.00    +0.008 A 
ATOM     26  C   UNL     1      -3.159  -1.847 -13.014  0.00  0.00    +0.001 A 
ATOM     27  C   UNL     1      -3.507  -3.188 -13.164  0.00  0.00    +0.001 A 
ATOM     28  C   UNL     1      -3.352  -4.070 -12.139  0.00  0.00    +0.008 A 
ATOM     29  C   UNL     1      -2.832  -3.626 -10.911  0.00  0.00    -0.014 A 
ATOM     30  C   UNL     1      -2.652  -4.509  -9.834  0.00  0.00    +0.054 A 
ENDBRANCH  20  21
ENDBRANCH  18  20
ENDBRANCH   2  18
TORSDOF 6
