REMARK  Name = ZINC67328777
REMARK  10 active torsions:
REMARK  status: ('A' for Active; 'I' for Inactive)
REMARK    1  A    between atoms: C_1  and  C_2
REMARK    2  A    between atoms: C_2  and  C_3
REMARK    3  A    between atoms: C_6  and  N_13
REMARK    4  A    between atoms: C_8  and  S_9
REMARK    5  A    between atoms: S_9  and  N_12
REMARK    6  A    between atoms: C_14  and  C_16
REMARK    7  A    between atoms: C_16  and  C_18
REMARK    8  A    between atoms: C_16  and  O_19
REMARK    9  A    between atoms: O_19  and  C_20
REMARK   10  A    between atoms: C_22  and  C_27
REMARK                            x       y       z     vdW  Elec       q    Type
REMARK                         _______ _______ _______ _____ _____    ______ ____
ROOT
ATOM      1  N   UNL     1      -5.562  -2.474  -0.561  0.00  0.00    -0.282 N 
ATOM      2  C   UNL     1      -6.459  -2.603   0.436  0.00  0.00    +0.258 C 
ATOM      3  O   UNL     1      -6.392  -1.882   1.409  0.00  0.00    -0.271 OA
ATOM      4  H   UNL     1      -5.658  -2.998  -1.372  0.00  0.00    +0.155 HD
ENDROOT
BRANCH   1   8
ATOM      5  C   UNL     1      -2.373   0.177  -0.164  0.00  0.00    -0.021 A 
ATOM      6  C   UNL     1      -2.858  -0.490   0.946  0.00  0.00    +0.007 A 
ATOM      7  C   UNL     1      -3.915  -1.369   0.818  0.00  0.00    +0.024 A 
ATOM      8  C   UNL     1      -4.491  -1.583  -0.428  0.00  0.00    +0.035 A 
ATOM      9  C   UNL     1      -4.002  -0.911  -1.540  0.00  0.00    +0.052 A 
ATOM     10  C   UNL     1      -2.947  -0.029  -1.405  0.00  0.00    +0.110 A 
BRANCH  10  11
ATOM     11  S   UNL     1      -2.330   0.828  -2.814  0.00  0.00    +0.056 S 
ATOM     12  O   UNL     1      -0.921   0.642  -2.819  0.00  0.00    -0.153 OA
ATOM     13  O   UNL     1      -3.151   0.451  -3.911  0.00  0.00    -0.153 OA
BRANCH  11  14
ATOM     14  N   UNL     1      -2.593   2.443  -2.559  0.00  0.00    -0.204 NA
ATOM     15  H   UNL     1      -2.962   2.747  -1.715  0.00  0.00    +0.144 HD
ATOM     16  H   UNL     1      -2.378   3.085  -3.254  0.00  0.00    +0.144 HD
ENDBRANCH  11  14
ENDBRANCH  10  11
BRANCH   5  18
ATOM     17  C   UNL     1      -0.728   1.129   1.428  0.00  0.00    +0.009 C 
ATOM     18  C   UNL     1      -1.219   1.136  -0.020  0.00  0.00    +0.034 C 
ENDBRANCH   5  18
ENDBRANCH   1   8
BRANCH   2  19
ATOM     19  C   UNL     1      -7.546  -3.643   0.341  0.00  0.00    +0.256 C 
ATOM     20  C   UNL     1      -8.479  -3.302  -0.823  0.00  0.00    +0.062 C 
BRANCH  19  21
ATOM     21  O   UNL     1      -8.293  -3.663   1.560  0.00  0.00    -0.478 OA
BRANCH  21  22
ATOM     22  C   UNL     1      -8.934  -4.821   1.870  0.00  0.00    +0.140 A 
ATOM     23  C   UNL     1      -8.942  -5.875   0.969  0.00  0.00    +0.050 A 
ATOM     24  C   UNL     1      -9.594  -7.050   1.287  0.00  0.00    -0.047 A 
ATOM     25  C   UNL     1     -10.241  -7.176   2.503  0.00  0.00    +0.005 A 
ATOM     26  C   UNL     1     -10.236  -6.127   3.404  0.00  0.00    +0.024 A 
ATOM     27  C   UNL     1      -9.579  -4.951   3.093  0.00  0.00    +0.083 A 
ATOM     28 CL   UNL     1      -9.567  -3.637   4.227  0.00  0.00    -0.080 Cl
ATOM     29  C   UNL     1      -9.602  -8.196   0.308  0.00  0.00    +0.044 C 
ENDBRANCH  21  22
ENDBRANCH  19  21
ENDBRANCH   2  19
TORSDOF 7
