REMARK  Name = ZINC39669834
REMARK  11 active torsions:
REMARK  status: ('A' for Active; 'I' for Inactive)
REMARK    1  A    between atoms: C_1  and  C_2
REMARK    2  A    between atoms: C_2  and  C_3
REMARK    3  A    between atoms: C_3  and  C_4
REMARK    4  A    between atoms: C_4  and  C_6
REMARK    5  A    between atoms: C_4  and  C_7
REMARK    6  A    between atoms: C_11  and  C_20
REMARK    7  A    between atoms: N_22  and  C_23
REMARK    8  A    between atoms: C_23  and  C_24
REMARK    9  A    between atoms: C_24  and  C_25
REMARK   10  A    between atoms: C_31  and  O_35
REMARK   11  A    between atoms: O_35  and  C_36
REMARK                            x       y       z     vdW  Elec       q    Type
REMARK                         _______ _______ _______ _____ _____    ______ ____
ROOT
ATOM      1  C   UNL     1       1.321  -2.780   2.746  0.00  0.00    +0.218 C 
ATOM      2  O   UNL     1       1.604  -2.080   3.695  0.00  0.00    -0.275 OA
ATOM      3  N   UNL     1       1.583  -4.102   2.781  0.00  0.00    -0.300 N 
ATOM      4  C   UNL     1       1.413  -5.091   1.690  0.00  0.00    +0.121 C 
ATOM      5  C   UNL     1       2.642  -6.020   1.811  0.00  0.00    +0.100 C 
ATOM      6  C   UNL     1       3.091  -5.888   3.277  0.00  0.00    -0.004 C 
ATOM      7  C   UNL     1       2.112  -4.894   3.918  0.00  0.00    +0.115 C 
ATOM      8  C   UNL     1       3.007  -7.240   3.978  0.00  0.00    -0.010 C 
ATOM      9  C   UNL     1       3.513  -7.096   5.416  0.00  0.00    -0.082 C 
ATOM     10  N   UNL     1       4.899  -6.614   5.403  0.00  0.00    +0.379 N 
ATOM     11  C   UNL     1       4.957  -5.273   4.810  0.00  0.00    -0.082 C 
ATOM     12  C   UNL     1       4.513  -5.340   3.346  0.00  0.00    -0.010 C 
ATOM     13  H   UNL     1       5.250  -6.578   6.349  0.00  0.00    -0.086 HD
ATOM     14  H   UNL     1       5.468  -7.246   4.860  0.00  0.00    -0.086 HD
ENDROOT
BRANCH   5  15
ATOM     15  C   UNL     1       2.255  -7.444   1.504  0.00  0.00    +0.218 C 
ATOM     16  O   UNL     1       1.127  -7.827   1.729  0.00  0.00    -0.275 OA
ATOM     17  N   UNL     1       3.163  -8.290   0.980  0.00  0.00    -0.315 N 
ATOM     18  H   UNL     1       4.066  -7.983   0.801  0.00  0.00    +0.149 HD
BRANCH  17  19
ATOM     19  C   UNL     1       2.788  -9.675   0.682  0.00  0.00    +0.112 C 
BRANCH  19  20
ATOM     20  C   UNL     1       3.993 -10.416   0.100  0.00  0.00    +0.093 C 
BRANCH  20  21
ATOM     21  C   UNL     1       3.606 -11.840  -0.207  0.00  0.00    +0.110 A 
ATOM     22  H   UNL     1       4.098 -12.034  -2.227  0.00  0.00    +0.167 HD
ATOM     23  N   UNL     1       3.090 -12.673   0.648  0.00  0.00    -0.232 NA
ATOM     24  C   UNL     1       2.863 -13.868   0.042  0.00  0.00    +0.089 A 
ATOM     25  C   UNL     1       2.335 -15.084   0.482  0.00  0.00    +0.033 A 
ATOM     26  C   UNL     1       2.229 -16.135  -0.385  0.00  0.00    +0.048 A 
ATOM     27  C   UNL     1       2.643 -16.007  -1.708  0.00  0.00    +0.122 A 
ATOM     28  C   UNL     1       3.169 -14.811  -2.163  0.00  0.00    +0.073 A 
ATOM     29  C   UNL     1       3.282 -13.736  -1.293  0.00  0.00    +0.070 A 
ATOM     30  N   UNL     1       3.742 -12.440  -1.422  0.00  0.00    -0.342 N 
BRANCH  27  31
ATOM     31  O   UNL     1       2.530 -17.063  -2.557  0.00  0.00    -0.495 OA
ATOM     32  C   UNL     1       1.980 -18.268  -2.023  0.00  0.00    +0.277 C 
ENDBRANCH  27  31
ENDBRANCH  20  21
ENDBRANCH  19  20
ENDBRANCH  17  19
ENDBRANCH   5  15
BRANCH   1  33
ATOM     33  C   UNL     1       0.676  -2.172   1.528  0.00  0.00    +0.072 C 
ATOM     34  C   UNL     1       1.761  -1.704   0.556  0.00  0.00    +0.017 C 
BRANCH  33  35
ATOM     35  C   UNL     1      -0.182  -0.977   1.948  0.00  0.00    +0.012 C 
BRANCH  35  37
ATOM     36  C   UNL     1      -1.792   0.759   1.150  0.00  0.00    +0.004 C 
ATOM     37  C   UNL     1      -0.935  -0.436   0.730  0.00  0.00    -0.003 C 
ENDBRANCH  35  37
ENDBRANCH  33  35
ENDBRANCH   1  33
TORSDOF 8
