REMARK  Name = ZINC42416871
REMARK  5 active torsions:
REMARK  status: ('A' for Active; 'I' for Inactive)
REMARK    1  A    between atoms: C_3  and  S_9
REMARK    2  A    between atoms: C_4  and  N_8
REMARK    3  A    between atoms: S_9  and  C_10
REMARK    4  A    between atoms: C_10  and  C_11
REMARK    5  A    between atoms: C_13  and  C_16
REMARK                            x       y       z     vdW  Elec       q    Type
REMARK                         _______ _______ _______ _____ _____    ______ ____
ROOT
ATOM      1  C   UNL     1      -0.017   1.379   0.010  0.00  0.00    +0.021 A 
ATOM      2  C   UNL     1       1.169   2.091   0.002  0.00  0.00    +0.018 A 
ATOM      3  C   UNL     1       2.382   1.418  -0.013  0.00  0.00    +0.029 A 
ATOM      4  C   UNL     1       2.401   0.022  -0.021  0.00  0.00    +0.040 A 
ATOM      5  C   UNL     1       1.208  -0.683  -0.013  0.00  0.00    +0.043 A 
ATOM      6  C   UNL     1       0.002  -0.004   0.002  0.00  0.00    +0.043 A 
ATOM      7 CL   UNL     1      -1.491  -0.890   0.012  0.00  0.00    -0.083 Cl
ENDROOT
BRANCH   4   8
ATOM      8  N   UNL     1       3.622  -0.663  -0.037  0.00  0.00    -0.357 N 
ATOM      9  H   UNL     1       4.456  -0.168  -0.042  0.00  0.00    +0.142 HD
ATOM     10  H   UNL     1       3.634  -1.633  -0.042  0.00  0.00    +0.142 HD
ENDBRANCH   4   8
BRANCH   3  11
ATOM     11  S   UNL     1       3.894   2.322  -0.023  0.00  0.00    -0.115 S 
BRANCH  11  12
ATOM     12  C   UNL     1       3.367   4.058  -0.009  0.00  0.00    +0.151 C 
BRANCH  12  13
ATOM     13  C   UNL     1       4.581   4.951  -0.017  0.00  0.00    +0.148 A 
ATOM     14  C   UNL     1       5.202   5.428  -1.111  0.00  0.00    +0.083 A 
ATOM     15  C   UNL     1       6.293   6.224  -0.683  0.00  0.00    +0.194 A 
ATOM     16  N   UNL     1       6.308   6.211   0.628  0.00  0.00    -0.071 NA
ATOM     17  O   UNL     1       5.224   5.412   1.067  0.00  0.00    -0.358 OA
BRANCH  15  18
ATOM     18  C   UNL     1       7.246   6.941  -1.561  0.00  0.00    +0.408 C 
ATOM     19  O   UNL     1       7.128   6.875  -2.775  0.00  0.00    -0.239 OA
ATOM     20  O   UNL     1       8.152   7.599  -1.070  0.00  0.00    -0.239 OA
ENDBRANCH  15  18
ENDBRANCH  12  13
ENDBRANCH  11  12
ENDBRANCH   3  11
TORSDOF 5
