REMARK  Name = ZINC21891354
REMARK  4 active torsions:
REMARK  status: ('A' for Active; 'I' for Inactive)
REMARK    1  A    between atoms: C_1  and  C_2
REMARK    2  A    between atoms: C_2  and  C_3
REMARK    3  A    between atoms: C_8  and  N_9
REMARK    4  A    between atoms: C_25  and  C_27
REMARK                            x       y       z     vdW  Elec       q    Type
REMARK                         _______ _______ _______ _____ _____    ______ ____
ROOT
ATOM      1  N   UNL     1      -4.443  -0.153  -1.266  0.00  0.00    -0.269 N 
ATOM      2  C   UNL     1      -3.631   0.667  -1.963  0.00  0.00    +0.308 C 
ATOM      3  O   UNL     1      -3.706   0.709  -3.175  0.00  0.00    -0.252 OA
ATOM      4  N   UNL     1      -2.738   1.441  -1.315  0.00  0.00    -0.268 N 
ATOM      5  C   UNL     1      -1.936   2.449  -2.035  0.00  0.00    +0.147 C 
ATOM      6  C   UNL     1      -1.819   3.736  -1.264  0.00  0.00    -0.006 A 
ATOM      7  C   UNL     1      -2.518   4.860  -1.649  0.00  0.00    +0.007 A 
ATOM      8  C   UNL     1      -2.349   6.054  -0.946  0.00  0.00    +0.000 A 
ATOM      9  C   UNL     1      -1.466   6.117   0.117  0.00  0.00    +0.002 A 
ATOM     10  C   UNL     1      -0.783   4.986   0.520  0.00  0.00    +0.026 A 
ATOM     11  C   UNL     1      -0.982   3.788  -0.147  0.00  0.00    +0.051 A 
ATOM     12  N   UNL     1      -0.358   2.609   0.285  0.00  0.00    -0.318 N 
ATOM     13  C   UNL     1       0.941   2.395   0.617  0.00  0.00    +0.091 A 
ATOM     14  C   UNL     1       1.073   1.096   0.966  0.00  0.00    +0.020 A 
ATOM     15  C   UNL     1      -0.198   0.491   0.844  0.00  0.00    +0.025 A 
ATOM     16  C   UNL     1      -1.051   1.438   0.423  0.00  0.00    +0.049 A 
ATOM     17  C   UNL     1      -2.525   1.310   0.138  0.00  0.00    +0.162 C 
ATOM     18  H   UNL     1      -4.457  -0.108  -0.167  0.00  0.00    +0.156 HD
ENDROOT
BRANCH   1  24
ATOM     19  C   UNL     1      -5.612  -2.265  -1.340  0.00  0.00    -0.026 A 
ATOM     20  C   UNL     1      -6.426  -3.159  -2.009  0.00  0.00    +0.005 A 
ATOM     21  C   UNL     1      -6.895  -2.857  -3.273  0.00  0.00    +0.000 A 
ATOM     22  C   UNL     1      -6.552  -1.659  -3.874  0.00  0.00    +0.002 A 
ATOM     23  C   UNL     1      -5.744  -0.758  -3.209  0.00  0.00    +0.023 A 
ATOM     24  C   UNL     1      -5.266  -1.061  -1.940  0.00  0.00    +0.038 A 
BRANCH  19  26
ATOM     25  C   UNL     1      -6.027  -1.975   1.087  0.00  0.00    +0.009 C 
ATOM     26  C   UNL     1      -5.101  -2.595   0.038  0.00  0.00    +0.033 C 
ENDBRANCH  19  26
ENDBRANCH   1  24
BRANCH  17  27
ATOM     27  C   UNL     1      -3.276   2.399   0.860  0.00  0.00    +0.016 A 
ATOM     28  C   UNL     1      -4.433   3.013   0.511  0.00  0.00    +0.013 A 
ATOM     29  C   UNL     1      -4.945   3.997   1.336  0.00  0.00    +0.008 A 
ATOM     30  C   UNL     1      -4.274   4.319   2.469  0.00  0.00    +0.045 A 
ATOM     31  S   UNL     1      -2.877   3.211   2.399  0.00  0.00    -0.099 S 
ENDBRANCH  17  27
TORSDOF 3
