REMARK  Name = ZINC17920856
REMARK  7 active torsions:
REMARK  status: ('A' for Active; 'I' for Inactive)
REMARK    1  A    between atoms: C_1  and  C_2
REMARK    2  A    between atoms: C_2  and  O_3
REMARK    3  A    between atoms: O_3  and  C_4
REMARK    4  A    between atoms: C_6  and  C_11
REMARK    5  A    between atoms: C_9  and  O_10
REMARK    6  A    between atoms: N_19  and  C_22
REMARK    7  A    between atoms: N_30  and  C_31
REMARK                            x       y       z     vdW  Elec       q    Type
REMARK                         _______ _______ _______ _____ _____    ______ ____
ROOT
ATOM      1  C   UNL     1       0.610  -4.983  -0.047  0.00  0.00    +0.157 C 
ATOM      2  C   UNL     1       0.896  -5.532   1.370  0.00  0.00    +0.145 C 
ATOM      3  C   UNL     1       0.239  -6.939   1.353  0.00  0.00    +0.249 C 
ATOM      4  C   UNL     1      -0.861  -6.821   2.385  0.00  0.00    +0.259 C 
ATOM      5  O   UNL     1      -1.615  -7.713   2.710  0.00  0.00    -0.272 OA
ATOM      6  N   UNL     1      -0.871  -5.579   2.883  0.00  0.00    -0.208 N 
ATOM      7  C   UNL     1       0.081  -4.757   2.380  0.00  0.00    +0.235 C 
ATOM      8  O   UNL     1       0.257  -3.596   2.680  0.00  0.00    -0.274 OA
ATOM      9  O   UNL     1      -0.343  -7.078   0.043  0.00  0.00    -0.257 OA
ATOM     10  N   UNL     1       0.377  -6.216  -0.838  0.00  0.00    -0.244 N 
ENDROOT
BRANCH   6  11
ATOM     11  C   UNL     1      -1.791  -5.160   3.855  0.00  0.00    +0.044 A 
ATOM     12  C   UNL     1      -1.353  -4.832   5.131  0.00  0.00    +0.025 A 
ATOM     13  C   UNL     1      -2.261  -4.419   6.087  0.00  0.00    +0.022 A 
ATOM     14  C   UNL     1      -3.606  -4.333   5.774  0.00  0.00    +0.041 A 
ATOM     15  C   UNL     1      -4.045  -4.660   4.503  0.00  0.00    +0.022 A 
ATOM     16  C   UNL     1      -3.140  -5.067   3.542  0.00  0.00    +0.025 A 
ATOM     17 CL   UNL     1      -4.745  -3.814   6.977  0.00  0.00    -0.084 Cl
ENDBRANCH   6  11
BRANCH   1  20
ATOM     18  C   UNL     1      -1.614  -1.930  -0.068  0.00  0.00    +0.162 A 
ATOM     19  C   UNL     1      -0.486  -2.734  -0.071  0.00  0.00    +0.055 A 
ATOM     20  C   UNL     1      -0.618  -4.110  -0.044  0.00  0.00    -0.018 A 
ATOM     21  C   UNL     1      -1.874  -4.687  -0.016  0.00  0.00    +0.009 A 
ATOM     22  C   UNL     1      -3.004  -3.890  -0.013  0.00  0.00    +0.049 A 
ATOM     23  C   UNL     1      -2.879  -2.510  -0.034  0.00  0.00    +0.158 A 
BRANCH  23  24
ATOM     24  O   UNL     1      -3.989  -1.725  -0.026  0.00  0.00    -0.503 OA
ATOM     25  H   UNL     1      -4.327  -1.513  -0.906  0.00  0.00    +0.292 HD
ENDBRANCH  23  24
BRANCH  18  26
ATOM     26  O   UNL     1      -1.486  -0.576  -0.094  0.00  0.00    -0.489 OA
BRANCH  26  28
ATOM     27  C   UNL     1      -0.214   1.478  -0.154  0.00  0.00    +0.048 C 
ATOM     28  C   UNL     1      -0.158  -0.051  -0.129  0.00  0.00    +0.226 C 
ENDBRANCH  26  28
ENDBRANCH  18  26
ENDBRANCH   1  20
BRANCH  10  29
ATOM     29  C   UNL     1       0.782  -6.481  -2.148  0.00  0.00    +0.065 A 
ATOM     30  C   UNL     1       1.499  -5.528  -2.861  0.00  0.00    +0.028 A 
ATOM     31  C   UNL     1       1.899  -5.793  -4.156  0.00  0.00    +0.002 A 
ATOM     32  C   UNL     1       1.586  -7.005  -4.743  0.00  0.00    +0.000 A 
ATOM     33  C   UNL     1       0.874  -7.956  -4.036  0.00  0.00    +0.002 A 
ATOM     34  C   UNL     1       0.475  -7.700  -2.739  0.00  0.00    +0.028 A 
ENDBRANCH  10  29
TORSDOF 6
