REMARK  Name = ZINC24891905
REMARK  6 active torsions:
REMARK  status: ('A' for Active; 'I' for Inactive)
REMARK    1  A    between atoms: C_1  and  C_2
REMARK    2  A    between atoms: C_7  and  N_8
REMARK    3  A    between atoms: C_17  and  S_18
REMARK    4  A    between atoms: S_18  and  C_19
REMARK    5  A    between atoms: C_19  and  C_20
REMARK    6  A    between atoms: C_20  and  C_21
REMARK                            x       y       z     vdW  Elec       q    Type
REMARK                         _______ _______ _______ _____ _____    ______ ____
ROOT
ATOM      1  N   UNL     1      -0.118   1.163   4.055  0.00  0.00    -0.255 N 
ATOM      2  C   UNL     1       0.648   0.637   5.028  0.00  0.00    +0.268 A 
ATOM      3  O   UNL     1       0.374   0.825   6.201  0.00  0.00    -0.267 OA
ATOM      4  C   UNL     1       1.789  -0.148   4.666  0.00  0.00    +0.076 A 
ATOM      5  C   UNL     1       2.749  -0.811   5.557  0.00  0.00    -0.023 A 
ATOM      6  C   UNL     1       3.751  -1.492   4.967  0.00  0.00    -0.004 A 
ATOM      7  S   UNL     1       3.477  -1.306   3.224  0.00  0.00    -0.073 S 
ATOM      8  C   UNL     1       2.014  -0.303   3.290  0.00  0.00    +0.117 A 
ATOM      9  N   UNL     1       1.216   0.238   2.377  0.00  0.00    -0.216 NA
ATOM     10  C   UNL     1       0.174   0.961   2.735  0.00  0.00    +0.177 A 
ATOM     11  C   UNL     1       4.867  -2.239   5.628  0.00  0.00    +0.043 C 
ATOM     12  C   UNL     1       4.289  -3.160   6.711  0.00  0.00    +0.005 C 
ATOM     13  C   UNL     1       4.231  -2.383   8.023  0.00  0.00    +0.001 C 
ATOM     14  C   UNL     1       3.954  -0.907   7.744  0.00  0.00    +0.005 C 
ATOM     15  C   UNL     1       2.597  -0.734   7.073  0.00  0.00    +0.037 C 
ENDROOT
BRANCH   1  22
ATOM     16  C   UNL     1       0.231   3.968   4.387  0.00  0.00    +0.046 C 
ATOM     17  C   UNL     1      -1.110   3.305   4.572  0.00  0.00    -0.026 A 
ATOM     18  C   UNL     1      -2.214   4.062   4.913  0.00  0.00    +0.005 A 
ATOM     19  C   UNL     1      -3.445   3.454   5.084  0.00  0.00    +0.000 A 
ATOM     20  C   UNL     1      -3.573   2.088   4.914  0.00  0.00    +0.002 A 
ATOM     21  C   UNL     1      -2.474   1.327   4.569  0.00  0.00    +0.026 A 
ATOM     22  C   UNL     1      -1.236   1.933   4.401  0.00  0.00    +0.055 A 
ENDBRANCH   1  22
BRANCH  10  23
ATOM     23  S   UNL     1      -0.860   1.669   1.497  0.00  0.00    -0.087 S 
BRANCH  23  24
ATOM     24  C   UNL     1      -0.013   1.086   0.008  0.00  0.00    +0.086 C 
BRANCH  24  25
ATOM     25  C   UNL     1      -0.753   1.593  -1.232  0.00  0.00    +0.107 C 
BRANCH  25  26
ATOM     26  C   UNL     1      -0.047   1.107  -2.471  0.00  0.00    +0.221 C 
ATOM     27  O   UNL     1       0.949   0.422  -2.373  0.00  0.00    -0.275 OA
ATOM     28  N   UNL     1      -0.524   1.433  -3.689  0.00  0.00    -0.240 N 
ATOM     29  C   UNL     1       0.107   0.998  -4.798  0.00  0.00    +0.303 C 
ATOM     30  O   UNL     1       1.106   0.312  -4.700  0.00  0.00    -0.253 OA
ATOM     31  N   UNL     1      -0.369   1.324  -6.016  0.00  0.00    -0.313 N 
ATOM     32  H   UNL     1      -1.428   2.053  -3.778  0.00  0.00    +0.159 HD
ATOM     33  H   UNL     1       0.145   0.969  -6.921  0.00  0.00    +0.146 HD
ATOM     34  H   UNL     1      -1.273   1.944  -6.105  0.00  0.00    +0.146 HD
ENDBRANCH  25  26
ENDBRANCH  24  25
ENDBRANCH  23  24
ENDBRANCH  10  23
TORSDOF 5
