REMARK  Name = ZINC12717059
REMARK  7 active torsions:
REMARK  status: ('A' for Active; 'I' for Inactive)
REMARK    1  A    between atoms: C_1  and  C_2
REMARK    2  A    between atoms: C_12  and  C_14
REMARK    3  A    between atoms: C_14  and  C_16
REMARK    4  A    between atoms: C_14  and  N_60
REMARK    5  A    between atoms: N_20  and  C_21
REMARK    6  A    between atoms: C_21  and  C_22
REMARK    7  A    between atoms: C_31  and  C_34
REMARK                            x       y       z     vdW  Elec       q    Type
REMARK                         _______ _______ _______ _____ _____    ______ ____
ROOT
ATOM      1  C   UNL     1       1.576  -1.794  -0.259  0.00  0.00    +0.039 C 
ENDROOT
BRANCH   1  13
ATOM      2  C   UNL     1      -1.413  -3.567  -5.838  0.00  0.00    +0.046 C 
ATOM      3  C   UNL     1       0.038  -3.598  -5.433  0.00  0.00    -0.026 A 
ATOM      4  C   UNL     1       0.992  -4.062  -6.313  0.00  0.00    +0.005 A 
ATOM      5  C   UNL     1       2.332  -4.096  -5.953  0.00  0.00    +0.001 A 
ATOM      6  C   UNL     1       2.731  -3.669  -4.718  0.00  0.00    +0.010 A 
ATOM      7  C   UNL     1       1.780  -3.194  -3.808  0.00  0.00    -0.001 A 
ATOM      8  C   UNL     1       0.420  -3.159  -4.170  0.00  0.00    +0.052 A 
ATOM      9  N   UNL     1      -0.513  -2.690  -3.270  0.00  0.00    -0.322 N 
ATOM     10  H   UNL     1      -1.450  -2.666  -3.521  0.00  0.00    +0.169 HD
ATOM     11  C   UNL     1      -0.143  -2.265  -2.049  0.00  0.00    +0.251 A 
ATOM     12  O   UNL     1      -0.995  -1.857  -1.279  0.00  0.00    -0.268 OA
ATOM     13  C   UNL     1       1.206  -2.280  -1.637  0.00  0.00    +0.011 A 
ATOM     14  C   UNL     1       2.173  -2.724  -2.478  0.00  0.00    +0.017 A 
ENDBRANCH   1  13
BRANCH   1  21
ATOM     15  C   UNL     1       0.964  -4.004   0.518  0.00  0.00    -0.077 C 
ATOM     16  C   UNL     1       0.059  -4.764   1.490  0.00  0.00    -0.018 C 
ATOM     17  C   UNL     1       0.457  -4.416   2.927  0.00  0.00    -0.001 C 
ATOM     18  C   UNL     1       0.353  -2.902   3.126  0.00  0.00    -0.031 C 
ATOM     19  C   UNL     1       1.249  -2.196   2.106  0.00  0.00    -0.074 C 
ATOM     20  C   UNL     1       0.806  -2.539   4.541  0.00  0.00    +0.005 C 
ATOM     21  N   UNL     1       0.799  -2.552   0.744  0.00  0.00    +0.389 N 
ATOM     22  H   UNL     1      -0.194  -2.311   0.647  0.00  0.00    -0.080 HD
ENDBRANCH   1  21
BRANCH   1  23
ATOM     23  C   UNL     1       1.235  -0.332  -0.134  0.00  0.00    +0.143 A 
ATOM     24  N   UNL     1       0.045   0.206  -0.244  0.00  0.00    -0.115 NA
ATOM     25  N   UNL     1       0.166   1.478  -0.074  0.00  0.00    -0.023 NA
ATOM     26  N   UNL     1       1.402   1.765   0.141  0.00  0.00    -0.044 NA
ATOM     27  N   UNL     1       2.093   0.675   0.113  0.00  0.00    -0.226 N 
BRANCH  27  28
ATOM     28  C   UNL     1       3.540   0.557   0.310  0.00  0.00    +0.182 C 
BRANCH  28  29
ATOM     29  C   UNL     1       4.239   0.661  -1.020  0.00  0.00    -0.026 A 
ATOM     30  C   UNL     1       4.601  -0.485  -1.702  0.00  0.00    +0.005 A 
ATOM     31  C   UNL     1       5.238  -0.390  -2.925  0.00  0.00    +0.000 A 
ATOM     32  C   UNL     1       5.522   0.852  -3.462  0.00  0.00    +0.000 A 
ATOM     33  C   UNL     1       5.164   1.998  -2.778  0.00  0.00    +0.000 A 
ATOM     34  C   UNL     1       4.523   1.903  -1.557  0.00  0.00    +0.005 A 
ENDBRANCH  28  29
ENDBRANCH  27  28
ENDBRANCH   1  23
TORSDOF 5
