REMARK  Name = ZINC12856954
REMARK  6 active torsions:
REMARK  status: ('A' for Active; 'I' for Inactive)
REMARK    1  A    between atoms: C_1  and  C_2
REMARK    2  A    between atoms: C_2  and  C_19
REMARK    3  A    between atoms: C_11  and  C_14
REMARK    4  A    between atoms: C_22  and  C_25
REMARK    5  A    between atoms: C_25  and  N_26
REMARK    6  A    between atoms: C_30  and  C_33
REMARK                            x       y       z     vdW  Elec       q    Type
REMARK                         _______ _______ _______ _____ _____    ______ ____
ROOT
ATOM      1  C   UNL     1       0.218   1.609  -0.203  0.00  0.00    +0.057 C 
ATOM      2  C   UNL     1       0.079   0.098  -0.006  0.00  0.00    +0.142 C 
ATOM      3  N   UNL     1       0.684  -0.626  -1.135  0.00  0.00    -0.274 N 
ATOM      4  C   UNL     1       1.680  -1.377  -0.629  0.00  0.00    +0.324 C 
ATOM      5  O   UNL     1       2.392  -2.104  -1.294  0.00  0.00    -0.251 OA
ATOM      6  N   UNL     1       1.790  -1.223   0.697  0.00  0.00    -0.167 N 
ATOM      7  N   UNL     1       0.858  -0.344   1.168  0.00  0.00    -0.202 NA
ATOM      8  C   UNL     1       2.733  -1.875   1.491  0.00  0.00    +0.161 A 
ATOM      9  C   UNL     1       2.676  -1.746   2.875  0.00  0.00    +0.083 A 
ATOM     10  C   UNL     1       3.618  -2.399   3.651  0.00  0.00    +0.037 A 
ATOM     11  C   UNL     1       4.588  -3.160   3.014  0.00  0.00    +0.074 A 
ATOM     12  C   UNL     1       4.585  -3.244   1.636  0.00  0.00    +0.125 A 
ATOM     13  N   UNL     1       3.671  -2.615   0.922  0.00  0.00    -0.237 NA
ATOM     14 CL   UNL     1       1.440  -0.779   3.619  0.00  0.00    -0.080 Cl
ATOM     15  H   UNL     1       0.416  -0.573  -2.066  0.00  0.00    +0.152 HD
ATOM     16  H   UNL     1       1.299   0.440   1.625  0.00  0.00    +0.148 HD
ENDROOT
BRANCH   2  17
ATOM     17  C   UNL     1      -1.371  -0.281   0.150  0.00  0.00    +0.100 C 
ATOM     18  N   UNL     1      -1.903  -0.781   1.198  0.00  0.00    -0.090 NA
ATOM     19  O   UNL     1      -3.285  -1.041   1.050  0.00  0.00    -0.388 OA
ATOM     20  C   UNL     1      -3.749  -0.288  -0.090  0.00  0.00    +0.227 C 
ATOM     21  C   UNL     1      -2.447  -0.127  -0.908  0.00  0.00    +0.106 C 
BRANCH  20  22
ATOM     22  C   UNL     1      -4.293   1.076   0.339  0.00  0.00    +0.150 C 
BRANCH  22  23
ATOM     23  N   UNL     1      -5.436   0.885   1.237  0.00  0.00    -0.324 N 
ATOM     24  C   UNL     1      -6.101   1.989   1.760  0.00  0.00    +0.137 A 
ATOM     25  C   UNL     1      -7.182   1.800   2.617  0.00  0.00    +0.081 A 
ATOM     26  C   UNL     1      -7.834   2.908   3.131  0.00  0.00    +0.037 A 
ATOM     27  C   UNL     1      -7.381   4.170   2.769  0.00  0.00    +0.074 A 
ATOM     28  C   UNL     1      -6.303   4.283   1.915  0.00  0.00    +0.125 A 
ATOM     29  N   UNL     1      -5.697   3.209   1.444  0.00  0.00    -0.238 NA
ATOM     30 CL   UNL     1      -7.705   0.199   3.035  0.00  0.00    -0.080 Cl
ATOM     31  H   UNL     1      -5.728  -0.011   1.466  0.00  0.00    +0.148 HD
BRANCH  27  32
ATOM     32  C   UNL     1      -8.060   5.404   3.303  0.00  0.00    +0.419 C 
ATOM     33  F   UNL     1      -7.452   5.789   4.503  0.00  0.00    -0.166 F 
ATOM     34  F   UNL     1      -7.947   6.440   2.370  0.00  0.00    -0.166 F 
ATOM     35  F   UNL     1      -9.413   5.130   3.534  0.00  0.00    -0.166 F 
ENDBRANCH  27  32
ENDBRANCH  22  23
ENDBRANCH  20  22
ENDBRANCH   2  17
BRANCH  11  36
ATOM     36  C   UNL     1       5.635  -3.888   3.818  0.00  0.00    +0.419 C 
ATOM     37  F   UNL     1       5.172  -5.170   4.133  0.00  0.00    -0.166 F 
ATOM     38  F   UNL     1       6.812  -3.988   3.069  0.00  0.00    -0.166 F 
ATOM     39  F   UNL     1       5.891  -3.182   4.998  0.00  0.00    -0.166 F 
ENDBRANCH  11  36
TORSDOF 5
