REMARK  Name = ZINC00649962
REMARK  11 active torsions:
REMARK  status: ('A' for Active; 'I' for Inactive)
REMARK    1  A    between atoms: C_1  and  C_2
REMARK    2  A    between atoms: C_5  and  N_8
REMARK    3  A    between atoms: C_11  and  C_13
REMARK    4  A    between atoms: C_14  and  C_22
REMARK    5  A    between atoms: C_16  and  C_20
REMARK    6  A    between atoms: C_17  and  N_19
REMARK    7  A    between atoms: C_25  and  O_38
REMARK    8  A    between atoms: C_26  and  C_28
REMARK    9  A    between atoms: C_28  and  O_29
REMARK   10  A    between atoms: O_29  and  C_30
REMARK   11  A    between atoms: O_38  and  C_39
REMARK                            x       y       z     vdW  Elec       q    Type
REMARK                         _______ _______ _______ _____ _____    ______ ____
ROOT
ATOM      1  N   UNL     1      -2.458   3.824   0.046  0.00  0.00    -0.200 N 
ATOM      2  C   UNL     1      -3.596   3.438  -0.571  0.00  0.00    +0.230 A 
ATOM      3  C   UNL     1      -4.548   4.383  -0.305  0.00  0.00    +0.050 A 
ATOM      4  C   UNL     1      -3.971   5.364   0.491  0.00  0.00    +0.068 A 
ATOM      5  N   UNL     1      -2.721   5.032   0.710  0.00  0.00    -0.168 NA
ATOM      6  C   UNL     1      -4.665   6.594   1.018  0.00  0.00    +0.068 C 
ATOM      7  C   UNL     1      -5.957   4.288  -0.831  0.00  0.00    +0.101 C 
ATOM      8  C   UNL     1      -5.996   3.203  -1.879  0.00  0.00    +0.098 C 
ATOM      9  C   UNL     1      -4.980   2.330  -2.057  0.00  0.00    +0.200 C 
ATOM     10  O   UNL     1      -3.843   2.343  -1.331  0.00  0.00    -0.423 OA
ENDROOT
BRANCH   1  15
ATOM     11  C   UNL     1       2.490   1.045  -0.016  0.00  0.00    +0.044 C 
ATOM     12  C   UNL     1       1.176   1.783   0.000  0.00  0.00    -0.050 A 
ATOM     13  C   UNL     1      -0.013   1.076   0.008  0.00  0.00    +0.005 A 
ATOM     14  C   UNL     1      -1.218   1.749   0.017  0.00  0.00    +0.028 A 
ATOM     15  C   UNL     1      -1.236   3.138   0.031  0.00  0.00    +0.069 A 
ATOM     16  C   UNL     1      -0.041   3.845   0.023  0.00  0.00    +0.028 A 
ATOM     17  C   UNL     1       1.161   3.166   0.008  0.00  0.00    +0.005 A 
ENDBRANCH   1  15
BRANCH   7  18
ATOM     18  C   UNL     1      -6.898   3.943   0.294  0.00  0.00    -0.034 A 
ATOM     19  C   UNL     1      -6.731   2.763   0.996  0.00  0.00    +0.008 A 
ATOM     20  C   UNL     1      -7.589   2.447   2.032  0.00  0.00    +0.046 A 
ATOM     21  C   UNL     1      -8.626   3.309   2.360  0.00  0.00    +0.126 A 
ATOM     22  C   UNL     1      -8.794   4.489   1.650  0.00  0.00    +0.032 A 
ATOM     23  C   UNL     1      -7.930   4.803   0.619  0.00  0.00    +0.015 A 
BRANCH  21  24
ATOM     24  O   UNL     1      -9.475   2.997   3.374  0.00  0.00    -0.495 OA
ATOM     25  C   UNL     1      -9.241   1.766   4.061  0.00  0.00    +0.277 C 
ENDBRANCH  21  24
BRANCH  22  26
ATOM     26  C   UNL     1      -9.919   5.428   2.004  0.00  0.00    +0.268 C 
BRANCH  26  27
ATOM     27  O   UNL     1      -9.882   6.563   1.138  0.00  0.00    -0.484 OA
BRANCH  27  28
ATOM     28  C   UNL     1     -10.836   7.514   1.325  0.00  0.00    +0.156 A 
ATOM     29  C   UNL     1     -11.787   7.356   2.321  0.00  0.00    +0.051 A 
ATOM     30  C   UNL     1     -12.757   8.322   2.511  0.00  0.00    +0.042 A 
ATOM     31  C   UNL     1     -12.779   9.449   1.707  0.00  0.00    +0.126 A 
ATOM     32  C   UNL     1     -11.831   9.610   0.710  0.00  0.00    +0.080 A 
ATOM     33  C   UNL     1     -10.856   8.647   0.522  0.00  0.00    +0.168 A 
ATOM     34  F   UNL     1      -9.927   8.806  -0.446  0.00  0.00    -0.202 F 
ATOM     35  F   UNL     1     -13.728  10.393   1.894  0.00  0.00    -0.205 F 
ENDBRANCH  27  28
ENDBRANCH  26  27
ENDBRANCH  22  26
ENDBRANCH   7  18
BRANCH   9  36
ATOM     36  N   UNL     1      -5.112   1.375  -3.034  0.00  0.00    -0.328 N 
ATOM     37  H   UNL     1      -5.918   1.341  -3.573  0.00  0.00    +0.145 HD
ATOM     38  H   UNL     1      -4.399   0.735  -3.186  0.00  0.00    +0.145 HD
ENDBRANCH   9  36
BRANCH   8  39
ATOM     39  C   UNL     1      -7.153   3.094  -2.716  0.00  0.00    +0.101 C 
ATOM     40  N   UNL     1      -8.071   3.008  -3.379  0.00  0.00    -0.191 NA
ENDBRANCH   8  39
TORSDOF 8
