REMARK  Name = ZINC13500103
REMARK  11 active torsions:
REMARK  status: ('A' for Active; 'I' for Inactive)
REMARK    1  A    between atoms: C_1  and  C_2
REMARK    2  A    between atoms: C_2  and  C_3
REMARK    3  A    between atoms: C_3  and  C_4
REMARK    4  A    between atoms: C_4  and  C_6
REMARK    5  A    between atoms: C_4  and  N_69
REMARK    6  A    between atoms: N_10  and  C_11
REMARK    7  A    between atoms: C_11  and  C_12
REMARK    8  A    between atoms: C_19  and  C_20
REMARK    9  A    between atoms: C_19  and  N_69
REMARK   10  A    between atoms: C_26  and  C_32
REMARK   11  A    between atoms: C_33  and  N_69
REMARK                            x       y       z     vdW  Elec       q    Type
REMARK                         _______ _______ _______ _____ _____    ______ ____
ROOT
ATOM      1  N   UNL     1      -1.235   0.938   2.287  0.00  0.00    +0.391 N 
ATOM      2  H   UNL     1      -1.323   1.590   3.074  0.00  0.00    -0.080 HD
ENDROOT
BRANCH   1   3
ATOM      3  C   UNL     1      -0.203   1.444   1.357  0.00  0.00    -0.067 C 
ATOM      4  C   UNL     1      -0.717   2.708   0.624  0.00  0.00    -0.015 C 
ATOM      5  C   UNL     1       0.596   3.433   0.234  0.00  0.00    -0.002 C 
ATOM      6  C   UNL     1       1.527   3.205   1.442  0.00  0.00    -0.002 C 
ATOM      7  C   UNL     1       1.019   1.940   2.156  0.00  0.00    -0.015 C 
ENDBRANCH   1   3
BRANCH   1   8
ATOM      8  C   UNL     1      -2.537   0.843   1.593  0.00  0.00    +0.003 C 
BRANCH   8   9
ATOM      9  C   UNL     1      -2.436  -0.076   0.403  0.00  0.00    +0.138 A 
ATOM     10  N   UNL     1      -1.564  -1.039   0.229  0.00  0.00    -0.115 NA
ATOM     11  N   UNL     1      -1.804  -1.593  -0.908  0.00  0.00    -0.023 NA
ATOM     12  N   UNL     1      -2.808  -1.009  -1.465  0.00  0.00    -0.044 NA
ATOM     13  N   UNL     1      -3.229  -0.072  -0.685  0.00  0.00    -0.226 N 
BRANCH  13  14
ATOM     14  C   UNL     1      -4.355   0.830  -0.937  0.00  0.00    +0.182 C 
BRANCH  14  15
ATOM     15  C   UNL     1      -3.891   1.991  -1.778  0.00  0.00    -0.026 A 
ATOM     16  C   UNL     1      -3.515   3.175  -1.173  0.00  0.00    +0.008 A 
ATOM     17  C   UNL     1      -3.084   4.239  -1.943  0.00  0.00    +0.038 A 
ATOM     18  C   UNL     1      -3.039   4.121  -3.322  0.00  0.00    +0.123 A 
ATOM     19  C   UNL     1      -3.421   2.936  -3.928  0.00  0.00    +0.038 A 
ATOM     20  C   UNL     1      -3.846   1.872  -3.155  0.00  0.00    +0.008 A 
ATOM     21  F   UNL     1      -2.623   5.162  -4.076  0.00  0.00    -0.205 F 
ENDBRANCH  14  15
ENDBRANCH  13  14
ENDBRANCH   8   9
BRANCH   8  22
ATOM     22  C   UNL     1      -3.582   0.300   2.570  0.00  0.00    -0.008 C 
BRANCH  22  24
ATOM     23  C   UNL     1      -4.684   0.658   4.784  0.00  0.00    +0.004 C 
ATOM     24  C   UNL     1      -3.688   1.236   3.776  0.00  0.00    -0.005 C 
ENDBRANCH  22  24
ENDBRANCH   8  22
ENDBRANCH   1   8
BRANCH   1  25
ATOM     25  C   UNL     1      -0.841  -0.389   2.805  0.00  0.00    -0.036 C 
BRANCH  25  26
ATOM     26  C   UNL     1       0.190  -0.198   3.887  0.00  0.00    +0.001 A 
ATOM     27  C   UNL     1      -0.191   0.235   5.114  0.00  0.00    +0.017 A 
ATOM     28  C   UNL     1       0.835   0.410   6.144  0.00  0.00    -0.001 A 
ATOM     29  C   UNL     1       0.503   0.853   7.428  0.00  0.00    +0.010 A 
ATOM     30  C   UNL     1       1.484   1.008   8.366  0.00  0.00    +0.001 A 
ATOM     31  C   UNL     1       2.808   0.728   8.056  0.00  0.00    +0.005 A 
ATOM     32  C   UNL     1       3.158   0.290   6.798  0.00  0.00    -0.026 A 
ATOM     33  C   UNL     1       2.176   0.126   5.826  0.00  0.00    +0.052 A 
ATOM     34  N   UNL     1       2.498  -0.311   4.559  0.00  0.00    -0.322 N 
ATOM     35  H   UNL     1       3.423  -0.507   4.341  0.00  0.00    +0.169 HD
ATOM     36  C   UNL     1       1.548  -0.475   3.621  0.00  0.00    +0.251 A 
ATOM     37  O   UNL     1       1.869  -0.868   2.513  0.00  0.00    -0.268 OA
ATOM     38  C   UNL     1       4.599  -0.010   6.475  0.00  0.00    +0.046 C 
ENDBRANCH  25  26
ENDBRANCH   1  25
TORSDOF 9
