REMARK  Name = ZINC39884981
REMARK  6 active torsions:
REMARK  status: ('A' for Active; 'I' for Inactive)
REMARK    1  A    between atoms: C_6  and  C_7
REMARK    2  A    between atoms: C_10  and  C_16
REMARK    3  A    between atoms: C_17  and  C_18
REMARK    4  A    between atoms: C_17  and  C_20
REMARK    5  A    between atoms: N_22  and  C_23
REMARK    6  A    between atoms: C_24  and  C_32
REMARK                            x       y       z     vdW  Elec       q    Type
REMARK                         _______ _______ _______ _____ _____    ______ ____
ROOT
ATOM      1  C   UNL     1       0.137  -5.442  -0.367  0.00  0.00    +0.032 C 
ATOM      2  C   UNL     1      -0.257  -6.755  -0.542  0.00  0.00    +0.114 C 
ENDROOT
BRANCH   1   6
ATOM      3  C   UNL     1      -1.798  -0.988   0.797  0.00  0.00    +0.175 A 
ATOM      4  C   UNL     1      -1.626  -2.224   0.165  0.00  0.00    +0.050 A 
ATOM      5  C   UNL     1      -0.701  -3.265   0.295  0.00  0.00    +0.021 A 
ATOM      6  C   UNL     1      -0.808  -4.394  -0.509  0.00  0.00    -0.023 A 
ATOM      7  C   UNL     1      -1.875  -4.518  -1.495  0.00  0.00    +0.010 A 
ATOM      8  C   UNL     1      -2.791  -3.537  -1.655  0.00  0.00    +0.032 A 
ATOM      9  C   UNL     1      -2.709  -2.337  -0.828  0.00  0.00    +0.114 A 
ATOM     10  N   UNL     1      -3.424  -1.237  -0.743  0.00  0.00    -0.078 NA
ATOM     11  O   UNL     1      -2.876  -0.402   0.258  0.00  0.00    -0.353 OA
BRANCH   3  17
ATOM     12  C   UNL     1      -0.510   0.892   1.798  0.00  0.00    +0.013 A 
ATOM     13  C   UNL     1       0.281   1.405   2.803  0.00  0.00    +0.021 A 
ATOM     14  C   UNL     1       0.641   0.610   3.880  0.00  0.00    +0.041 A 
ATOM     15  C   UNL     1       0.208  -0.704   3.955  0.00  0.00    +0.021 A 
ATOM     16  C   UNL     1      -0.585  -1.230   2.957  0.00  0.00    +0.013 A 
ATOM     17  C   UNL     1      -0.952  -0.433   1.867  0.00  0.00    +0.021 A 
ATOM     18 CL   UNL     1       1.639   1.263   5.141  0.00  0.00    -0.084 Cl
ENDBRANCH   3  17
ENDBRANCH   1   6
BRANCH   2  19
ATOM     19  C   UNL     1       0.747  -7.828  -0.550  0.00  0.00    +0.259 C 
ATOM     20  O   UNL     1       1.925  -7.560  -0.404  0.00  0.00    -0.269 OA
ATOM     21  N   UNL     1       0.363  -9.108  -0.721  0.00  0.00    -0.275 N 
ATOM     22  H   UNL     1      -0.576  -9.322  -0.838  0.00  0.00    +0.156 HD
BRANCH  21  23
ATOM     23  C   UNL     1       1.309 -10.120  -0.729  0.00  0.00    +0.085 A 
ATOM     24  C   UNL     1       1.101 -11.481  -0.895  0.00  0.00    +0.068 A 
ATOM     25  C   UNL     1       2.271 -12.340  -0.864  0.00  0.00    -0.023 A 
ATOM     26  C   UNL     1       3.435 -11.682  -0.672  0.00  0.00    -0.004 A 
ATOM     27  S   UNL     1       2.972  -9.979  -0.546  0.00  0.00    -0.077 S 
ATOM     28  C   UNL     1       4.805 -12.282  -0.590  0.00  0.00    +0.043 C 
ATOM     29  C   UNL     1       4.657 -13.796  -0.381  0.00  0.00    +0.005 C 
ATOM     30  C   UNL     1       3.641 -14.339  -1.390  0.00  0.00    +0.005 C 
ATOM     31  C   UNL     1       2.236 -13.852  -1.029  0.00  0.00    +0.037 C 
BRANCH  24  32
ATOM     32  C   UNL     1      -0.244 -12.029  -1.094  0.00  0.00    +0.244 C 
ATOM     33  O   UNL     1      -0.694 -12.146  -2.219  0.00  0.00    -0.270 OA
ATOM     34  N   UNL     1      -0.983 -12.403  -0.031  0.00  0.00    -0.325 N 
ATOM     35  H   UNL     1      -0.625 -12.310   0.866  0.00  0.00    +0.145 HD
ATOM     36  H   UNL     1      -1.873 -12.766  -0.162  0.00  0.00    +0.145 HD
ENDBRANCH  24  32
ENDBRANCH  21  23
ENDBRANCH   2  19
BRANCH   2  37
ATOM     37  C   UNL     1      -1.643  -7.070  -0.715  0.00  0.00    +0.104 C 
ATOM     38  N   UNL     1      -2.743  -7.319  -0.852  0.00  0.00    -0.191 NA
ENDBRANCH   2  37
TORSDOF 6
