REMARK  Name = ZINC08649152
REMARK  3 active torsions:
REMARK  status: ('A' for Active; 'I' for Inactive)
REMARK    1  A    between atoms: C_4  and  C_7
REMARK    2  A    between atoms: C_7  and  S_8
REMARK    3  A    between atoms: S_8  and  C_9
REMARK                            x       y       z     vdW  Elec       q    Type
REMARK                         _______ _______ _______ _____ _____    ______ ____
ROOT
ATOM      1  C   UNL     1       5.786  -1.866   1.477  0.00  0.00    +0.184 A 
ATOM      2  C   UNL     1       6.506  -2.275   2.600  0.00  0.00    +0.286 A 
ATOM      3  N   UNL     1       7.684  -2.933   2.410  0.00  0.00    -0.270 N 
ATOM      4  C   UNL     1       8.103  -3.162   1.148  0.00  0.00    +0.367 A 
ATOM      5  N   UNL     1       7.374  -2.749   0.109  0.00  0.00    -0.089 NA
ATOM      6  N   UNL     1       6.258  -2.132   0.268  0.00  0.00    -0.133 NA
ATOM      7  O   UNL     1       9.155  -3.750   0.956  0.00  0.00    -0.243 OA
ATOM      8  O   UNL     1       6.048  -2.023   3.845  0.00  0.00    -0.265 OA
ATOM      9  H   UNL     1       8.211  -3.232   3.167  0.00  0.00    +0.174 HD
ENDROOT
BRANCH   1  10
ATOM     10  S   UNL     1       4.257  -1.011   1.666  0.00  0.00    -0.094 S 
BRANCH  10  11
ATOM     11  C   UNL     1       3.711  -0.707  -0.038  0.00  0.00    +0.111 C 
BRANCH  11  15
ATOM     12  C   UNL     1      -0.017   1.378   0.010  0.00  0.00    +0.000 A 
ATOM     13  C   UNL     1       1.171   2.086   0.002  0.00  0.00    +0.000 A 
ATOM     14  C   UNL     1       2.377   1.411  -0.013  0.00  0.00    +0.004 A 
ATOM     15  C   UNL     1       2.396   0.029  -0.020  0.00  0.00    -0.037 A 
ATOM     16  C   UNL     1       1.208  -0.679  -0.012  0.00  0.00    +0.004 A 
ATOM     17  C   UNL     1       0.002  -0.004   0.002  0.00  0.00    +0.000 A 
ENDBRANCH  11  15
ENDBRANCH  10  11
ENDBRANCH   1  10
TORSDOF 3
