REMARK  Name = ZINC44695555
REMARK  8 active torsions:
REMARK  status: ('A' for Active; 'I' for Inactive)
REMARK    1  A    between atoms: C_1  and  C_2
REMARK    2  A    between atoms: C_4  and  C_7
REMARK    3  A    between atoms: C_8  and  C_13
REMARK    4  A    between atoms: C_9  and  C_12
REMARK    5  A    between atoms: C_17  and  C_26
REMARK    6  A    between atoms: N_28  and  C_29
REMARK    7  A    between atoms: C_29  and  C_30
REMARK    8  A    between atoms: C_30  and  C_31
REMARK                            x       y       z     vdW  Elec       q    Type
REMARK                         _______ _______ _______ _____ _____    ______ ____
ROOT
ATOM      1  C   UNL     1       0.454  -5.120   0.019  0.00  0.00    +0.252 C 
ATOM      2  O   UNL     1       1.064  -5.308   1.054  0.00  0.00    -0.270 OA
ATOM      3  N   UNL     1       1.059  -5.328  -1.167  0.00  0.00    -0.296 N 
ATOM      4  C   UNL     1       0.487  -5.148  -2.523  0.00  0.00    +0.121 C 
ATOM      5  C   UNL     1       1.638  -4.536  -3.354  0.00  0.00    +0.100 C 
ATOM      6  C   UNL     1       2.921  -4.962  -2.620  0.00  0.00    -0.004 C 
ATOM      7  C   UNL     1       2.449  -5.782  -1.411  0.00  0.00    +0.115 C 
ATOM      8  C   UNL     1       3.691  -3.732  -2.148  0.00  0.00    -0.010 C 
ATOM      9  C   UNL     1       4.991  -4.179  -1.472  0.00  0.00    -0.082 C 
ATOM     10  N   UNL     1       5.798  -4.952  -2.424  0.00  0.00    +0.379 N 
ATOM     11  C   UNL     1       5.088  -6.180  -2.802  0.00  0.00    -0.082 C 
ATOM     12  C   UNL     1       3.793  -5.818  -3.533  0.00  0.00    -0.010 C 
ATOM     13  H   UNL     1       5.968  -4.396  -3.248  0.00  0.00    -0.086 HD
ATOM     14  H   UNL     1       6.680  -5.193  -1.996  0.00  0.00    -0.086 HD
ENDROOT
BRANCH   1  16
ATOM     15  C   UNL     1      -1.382  -3.347   0.075  0.00  0.00    +0.201 A 
ATOM     16  C   UNL     1      -0.945  -4.664   0.062  0.00  0.00    +0.108 A 
ATOM     17  C   UNL     1      -2.097  -5.489   0.096  0.00  0.00    +0.093 A 
ATOM     18  N   UNL     1      -3.145  -4.722   0.128  0.00  0.00    -0.082 NA
ATOM     19  O   UNL     1      -2.724  -3.371   0.121  0.00  0.00    -0.352 OA
ATOM     20  C   UNL     1      -2.105  -6.996   0.095  0.00  0.00    +0.070 C 
BRANCH  15  24
ATOM     21  C   UNL     1       0.081   1.511   0.043  0.00  0.00    +0.089 C 
ATOM     22  C   UNL     1       0.101   0.004   0.037  0.00  0.00    +0.135 A 
ATOM     23  C   UNL     1      -0.978  -0.797   0.070  0.00  0.00    +0.079 A 
ATOM     24  C   UNL     1      -0.528  -2.141   0.050  0.00  0.00    +0.152 A 
ATOM     25  N   UNL     1       0.784  -2.122   0.007  0.00  0.00    -0.075 NA
ATOM     26  O   UNL     1       1.197  -0.767  -0.007  0.00  0.00    -0.359 OA
ENDBRANCH  15  24
ENDBRANCH   1  16
BRANCH   5  27
ATOM     27  C   UNL     1       1.521  -3.034  -3.385  0.00  0.00    +0.218 C 
ATOM     28  O   UNL     1       0.916  -2.455  -2.508  0.00  0.00    -0.275 OA
ATOM     29  N   UNL     1       2.090  -2.335  -4.387  0.00  0.00    -0.315 N 
ATOM     30  H   UNL     1       2.574  -2.798  -5.088  0.00  0.00    +0.149 HD
BRANCH  29  31
ATOM     31  C   UNL     1       1.977  -0.875  -4.417  0.00  0.00    +0.109 C 
BRANCH  31  32
ATOM     32  C   UNL     1       2.704  -0.332  -5.648  0.00  0.00    +0.056 C 
BRANCH  32  33
ATOM     33  C   UNL     1       2.588   1.170  -5.679  0.00  0.00    -0.021 A 
ATOM     34  C   UNL     1       1.667   1.886  -6.343  0.00  0.00    +0.087 A 
ATOM     35  N   UNL     1       1.876   3.223  -6.136  0.00  0.00    -0.360 N 
ATOM     36  H   UNL     1       1.337   3.936  -6.512  0.00  0.00    +0.165 HD
ATOM     37  C   UNL     1       2.966   3.404  -5.313  0.00  0.00    +0.047 A 
ATOM     38  C   UNL     1       3.456   2.126  -4.986  0.00  0.00    +0.003 A 
ATOM     39  C   UNL     1       4.566   1.999  -4.151  0.00  0.00    +0.010 A 
ATOM     40  C   UNL     1       5.171   3.118  -3.651  0.00  0.00    +0.001 A 
ATOM     41  C   UNL     1       4.689   4.380  -3.967  0.00  0.00    +0.002 A 
ATOM     42  C   UNL     1       3.599   4.529  -4.798  0.00  0.00    +0.026 A 
ENDBRANCH  32  33
ENDBRANCH  31  32
ENDBRANCH  29  31
ENDBRANCH   5  27
TORSDOF 6
