REMARK  Name = ZINC12480987
REMARK  7 active torsions:
REMARK  status: ('A' for Active; 'I' for Inactive)
REMARK    1  A    between atoms: C_7  and  C_11
REMARK    2  A    between atoms: C_11  and  N_69
REMARK    3  A    between atoms: C_14  and  C_36
REMARK    4  A    between atoms: C_16  and  C_19
REMARK    5  A    between atoms: C_19  and  C_20
REMARK    6  A    between atoms: C_20  and  N_71
REMARK    7  A    between atoms: C_36  and  C_37
REMARK                            x       y       z     vdW  Elec       q    Type
REMARK                         _______ _______ _______ _____ _____    ______ ____
ROOT
ATOM      1  C   UNL     1       3.534   2.217   1.310  0.00  0.00    -0.078 C 
ATOM      2  C   UNL     1       2.120   1.633   1.300  0.00  0.00    -0.014 C 
ATOM      3  C   UNL     1       1.417   2.032  -0.001  0.00  0.00    -0.001 C 
ATOM      4  C   UNL     1       1.398   3.559  -0.115  0.00  0.00    -0.026 C 
ATOM      5  C   UNL     1       2.834   4.087  -0.062  0.00  0.00    -0.075 C 
ATOM      6  N   UNL     1       3.446   3.690   1.224  0.00  0.00    +0.383 N 
ATOM      7  H   UNL     1       2.858   4.034   1.992  0.00  0.00    -0.081 HD
ENDROOT
BRANCH   6   8
ATOM      8  C   UNL     1       4.793   4.285   1.346  0.00  0.00    -0.041 C 
BRANCH   8  15
ATOM      9  C   UNL     1       5.143   5.814  -3.071  0.00  0.00    +0.001 A 
ATOM     10  C   UNL     1       6.101   5.129  -3.807  0.00  0.00    +0.002 A 
ATOM     11  C   UNL     1       6.835   4.115  -3.232  0.00  0.00    +0.026 A 
ATOM     12  C   UNL     1       6.617   3.772  -1.901  0.00  0.00    +0.047 A 
ATOM     13  C   UNL     1       5.641   4.465  -1.162  0.00  0.00    +0.001 A 
ATOM     14  C   UNL     1       4.912   5.494  -1.763  0.00  0.00    +0.010 A 
ATOM     15  C   UNL     1       5.659   3.880   0.181  0.00  0.00    -0.039 A 
ATOM     16  C   UNL     1       6.588   2.912   0.174  0.00  0.00    +0.085 A 
ATOM     17  N   UNL     1       7.171   2.833  -1.061  0.00  0.00    -0.360 N 
ATOM     18  H   UNL     1       7.870   2.207  -1.308  0.00  0.00    +0.165 HD
ENDBRANCH   8  15
ENDBRANCH   6   8
BRANCH   4  19
ATOM     19  C   UNL     1       0.596   4.149   1.047  0.00  0.00    -0.017 C 
BRANCH  19  20
ATOM     20  C   UNL     1       0.472   5.662   0.865  0.00  0.00    -0.079 C 
BRANCH  20  34
ATOM     21  C   UNL     1      -0.240   7.694   1.970  0.00  0.00    -0.074 C 
ATOM     22  C   UNL     1      -1.087   8.284   3.088  0.00  0.00    -0.007 C 
ATOM     23  C   UNL     1      -0.669   7.711   4.445  0.00  0.00    +0.011 C 
ATOM     24  C   UNL     1      -0.795   6.185   4.363  0.00  0.00    +0.020 C 
ATOM     25  C   UNL     1       0.162   5.687   3.268  0.00  0.00    -0.069 C 
ATOM     26  C   UNL     1      -2.201   5.825   3.936  0.00  0.00    +0.023 A 
ATOM     27  C   UNL     1      -2.677   4.609   4.313  0.00  0.00    +0.022 A 
ATOM     28  C   UNL     1      -3.916   4.156   3.847  0.00  0.00    +0.007 A 
ATOM     29  C   UNL     1      -4.629   4.950   2.997  0.00  0.00    +0.070 A 
ATOM     30  C   UNL     1      -4.115   6.203   2.638  0.00  0.00    +0.251 A 
ATOM     31  O   UNL     1      -4.725   6.902   1.845  0.00  0.00    -0.268 OA
ATOM     32  N   UNL     1      -2.947   6.649   3.164  0.00  0.00    -0.312 N 
ATOM     33  C   UNL     1      -2.568   8.030   2.867  0.00  0.00    +0.126 C 
ATOM     34  N   UNL     1      -0.327   6.219   1.975  0.00  0.00    +0.380 N 
ATOM     35  H   UNL     1      -1.308   5.943   1.851  0.00  0.00    -0.082 HD
ENDBRANCH  20  34
ENDBRANCH  19  20
ENDBRANCH   4  19
BRANCH   3  36
ATOM     36  C   UNL     1      -0.018   1.503   0.010  0.00  0.00    +0.128 C 
BRANCH  36  37
ATOM     37  C   UNL     1       0.002  -0.004   0.002  0.00  0.00    +0.356 C 
ATOM     38  O   UNL     1       1.056  -0.594  -0.011  0.00  0.00    -0.246 OA
ATOM     39  O   UNL     1      -1.151  -0.691   0.009  0.00  0.00    -0.246 OA
ENDBRANCH  36  37
ENDBRANCH   3  36
TORSDOF 7
