REMARK  Name = ZINC36037286
REMARK  10 active torsions:
REMARK  status: ('A' for Active; 'I' for Inactive)
REMARK    1  A    between atoms: C_1  and  O_2
REMARK    2  A    between atoms: O_2  and  C_3
REMARK    3  A    between atoms: C_3  and  C_5
REMARK    4  A    between atoms: C_7  and  C_37
REMARK    5  A    between atoms: C_14  and  C_30
REMARK    6  A    between atoms: C_16  and  C_26
REMARK    7  A    between atoms: C_17  and  N_25
REMARK    8  A    between atoms: N_18  and  C_19
REMARK    9  A    between atoms: C_26  and  O_28
REMARK   10  A    between atoms: O_28  and  C_29
REMARK                            x       y       z     vdW  Elec       q    Type
REMARK                         _______ _______ _______ _____ _____    ______ ____
ROOT
ATOM      1  C   UNL     1       0.296  -3.482  -0.179  0.00  0.00    +0.176 C 
ATOM      2  C   UNL     1       0.757  -3.695  -1.625  0.00  0.00    +0.046 C 
ATOM      3  C   UNL     1       1.857  -2.678  -1.938  0.00  0.00    +0.061 C 
ATOM      4  C   UNL     1       2.999  -2.853  -0.968  0.00  0.00    +0.025 C 
ATOM      5  C   UNL     1       2.781  -3.285   0.291  0.00  0.00    +0.025 C 
ATOM      6  C   UNL     1       1.483  -3.601   0.737  0.00  0.00    +0.176 C 
ATOM      7  O   UNL     1       1.318  -3.977   1.881  0.00  0.00    -0.291 OA
ATOM      8  C   UNL     1       3.922  -3.440   1.266  0.00  0.00    +0.094 C 
ATOM      9  C   UNL     1       5.240  -3.496   0.552  0.00  0.00    +0.084 C 
ATOM     10  C   UNL     1       5.363  -3.059  -0.732  0.00  0.00    +0.103 C 
ATOM     11  N   UNL     1       4.269  -2.564  -1.399  0.00  0.00    -0.261 N 
ENDROOT
BRANCH   8  12
ATOM     12  C   UNL     1       3.924  -2.270   2.215  0.00  0.00    -0.035 A 
ATOM     13  C   UNL     1       4.062  -0.984   1.725  0.00  0.00    +0.007 A 
ATOM     14  C   UNL     1       4.063   0.090   2.594  0.00  0.00    +0.038 A 
ATOM     15  C   UNL     1       3.926  -0.121   3.956  0.00  0.00    +0.123 A 
ATOM     16  C   UNL     1       3.788  -1.409   4.445  0.00  0.00    +0.038 A 
ATOM     17  C   UNL     1       3.781  -2.482   3.573  0.00  0.00    +0.007 A 
ATOM     18  F   UNL     1       3.928   0.928   4.806  0.00  0.00    -0.205 F 
ENDBRANCH   8  12
BRANCH  11  19
ATOM     19  C   UNL     1       4.451  -1.757  -2.528  0.00  0.00    +0.040 A 
ATOM     20  C   UNL     1       4.086  -0.417  -2.493  0.00  0.00    +0.024 A 
ATOM     21  C   UNL     1       4.268   0.376  -3.609  0.00  0.00    +0.002 A 
ATOM     22  C   UNL     1       4.812  -0.162  -4.760  0.00  0.00    +0.000 A 
ATOM     23  C   UNL     1       5.176  -1.496  -4.799  0.00  0.00    +0.002 A 
ATOM     24  C   UNL     1       5.003  -2.293  -3.684  0.00  0.00    +0.024 A 
ENDBRANCH  11  19
BRANCH   2  25
ATOM     25  C   UNL     1      -0.406  -3.494  -2.562  0.00  0.00    -0.043 A 
ATOM     26  C   UNL     1      -0.249  -2.733  -3.706  0.00  0.00    +0.004 A 
ATOM     27  C   UNL     1      -1.316  -2.549  -4.565  0.00  0.00    +0.000 A 
ATOM     28  C   UNL     1      -2.540  -3.125  -4.281  0.00  0.00    +0.000 A 
ATOM     29  C   UNL     1      -2.697  -3.886  -3.138  0.00  0.00    +0.000 A 
ATOM     30  C   UNL     1      -1.629  -4.074  -2.280  0.00  0.00    +0.004 A 
ENDBRANCH   2  25
BRANCH  10  31
ATOM     31  N   UNL     1       6.580  -3.113  -1.359  0.00  0.00    -0.346 N 
ATOM     32  H   UNL     1       7.183  -3.853  -1.186  0.00  0.00    +0.143 HD
ATOM     33  H   UNL     1       6.839  -2.412  -1.977  0.00  0.00    +0.143 HD
ENDBRANCH  10  31
BRANCH   1  34
ATOM     34  C   UNL     1      -0.312  -2.110  -0.041  0.00  0.00    +0.318 C 
ATOM     35  O   UNL     1      -0.454  -1.411  -1.016  0.00  0.00    -0.250 OA
BRANCH  34  37
ATOM     36  C   UNL     1      -1.264  -0.355   1.224  0.00  0.00    +0.280 C 
ATOM     37  O   UNL     1      -0.695  -1.665   1.166  0.00  0.00    -0.467 OA
ENDBRANCH  34  37
ENDBRANCH   1  34
BRANCH   9  38
ATOM     38  C   UNL     1       6.364  -4.005   1.218  0.00  0.00    +0.339 C 
ATOM     39  O   UNL     1       7.460  -3.957   0.688  0.00  0.00    -0.245 OA
BRANCH  38  40
ATOM     40  O   UNL     1       6.232  -4.549   2.447  0.00  0.00    -0.465 OA
ATOM     41  C   UNL     1       7.419  -5.049   3.067  0.00  0.00    +0.280 C 
ENDBRANCH  38  40
ENDBRANCH   9  38
TORSDOF 8
