REMARK  Name = ZINC12678341
REMARK  7 active torsions:
REMARK  status: ('A' for Active; 'I' for Inactive)
REMARK    1  A    between atoms: C_2  and  C_3
REMARK    2  A    between atoms: C_3  and  N_48
REMARK    3  A    between atoms: C_4  and  C_5
REMARK    4  A    between atoms: C_4  and  N_48
REMARK    5  A    between atoms: C_11  and  C_12
REMARK    6  A    between atoms: C_11  and  N_48
REMARK    7  A    between atoms: N_17  and  C_18
REMARK                            x       y       z     vdW  Elec       q    Type
REMARK                         _______ _______ _______ _____ _____    ______ ____
ROOT
ATOM      1  C   UNL     1       4.992  -4.075   0.540  0.00  0.00    +0.204 C 
ATOM      2  O   UNL     1       3.925  -4.649   0.569  0.00  0.00    -0.277 OA
ATOM      3  N   UNL     1       5.036  -2.729   0.585  0.00  0.00    -0.241 N 
ATOM      4  C   UNL     1       3.892  -2.020   0.662  0.00  0.00    +0.310 C 
ATOM      5  O   UNL     1       2.822  -2.595   0.691  0.00  0.00    -0.252 OA
ATOM      6  N   UNL     1       3.936  -0.674   0.708  0.00  0.00    -0.269 N 
ATOM      7  H   UNL     1       5.890  -2.270   0.562  0.00  0.00    +0.159 HD
ATOM      8  H   UNL     1       4.784  -0.212   0.611  0.00  0.00    +0.156 HD
ENDROOT
BRANCH   6   9
ATOM      9  C   UNL     1       2.756   0.060   0.894  0.00  0.00    +0.038 A 
ATOM     10  C   UNL     1       1.734  -0.457   1.679  0.00  0.00    +0.027 A 
ATOM     11  C   UNL     1       0.571   0.265   1.862  0.00  0.00    +0.051 A 
ATOM     12  C   UNL     1       0.420   1.507   1.264  0.00  0.00    +0.162 A 
ATOM     13  C   UNL     1       1.443   2.028   0.480  0.00  0.00    +0.164 A 
ATOM     14  C   UNL     1       2.610   1.302   0.295  0.00  0.00    +0.072 A 
ATOM     15  O   UNL     1       1.317   3.249  -0.108  0.00  0.00    -0.485 OA
ATOM     16  C   UNL     1      -0.008   3.782  -0.208  0.00  0.00    +0.270 C 
ATOM     17  C   UNL     1      -0.703   3.601   1.148  0.00  0.00    +0.270 C 
ATOM     18  O   UNL     1      -0.737   2.201   1.449  0.00  0.00    -0.485 OA
ENDBRANCH   6   9
BRANCH   1  19
ATOM     19  C   UNL     1       6.271  -4.868   0.454  0.00  0.00    +0.020 C 
BRANCH  19  20
ATOM     20  N   UNL     1       5.939  -6.308   0.441  0.00  0.00    +0.391 N 
ATOM     21  H   UNL     1       5.319  -6.515   1.232  0.00  0.00    -0.080 HD
BRANCH  20  22
ATOM     22  C   UNL     1       5.244  -6.654  -0.817  0.00  0.00    -0.051 C 
BRANCH  22  24
ATOM     23  C   UNL     1       6.371  -7.379  -2.858  0.00  0.00    +0.002 C 
ATOM     24  C   UNL     1       6.143  -6.414  -2.002  0.00  0.00    -0.053 C 
ENDBRANCH  22  24
ENDBRANCH  20  22
BRANCH  20  25
ATOM     25  C   UNL     1       7.173  -7.112   0.573  0.00  0.00    -0.034 C 
BRANCH  25  26
ATOM     26  C   UNL     1       6.792  -8.528   0.921  0.00  0.00    -0.025 A 
ATOM     27  C   UNL     1       6.645  -9.598   0.101  0.00  0.00    +0.011 A 
ATOM     28  C   UNL     1       6.286 -10.816   0.647  0.00  0.00    +0.028 A 
ATOM     29  C   UNL     1       6.093 -10.905   1.987  0.00  0.00    +0.078 A 
ATOM     30  S   UNL     1       6.427  -9.234   2.519  0.00  0.00    -0.084 S 
ATOM     31 CL   UNL     1       5.644 -12.286   2.938  0.00  0.00    -0.076 Cl
ENDBRANCH  25  26
ENDBRANCH  20  25
ENDBRANCH  19  20
ENDBRANCH   1  19
TORSDOF 7
