REMARK  Name = ZINC39674077
REMARK  8 active torsions:
REMARK  status: ('A' for Active; 'I' for Inactive)
REMARK    1  A    between atoms: C_1  and  C_2
REMARK    2  A    between atoms: C_4  and  C_12
REMARK    3  A    between atoms: C_12  and  C_13
REMARK    4  A    between atoms: C_13  and  N_14
REMARK    5  A    between atoms: C_15  and  C_17
REMARK    6  A    between atoms: C_28  and  C_30
REMARK    7  A    between atoms: C_33  and  C_41
REMARK    8  A    between atoms: C_35  and  C_37
REMARK                            x       y       z     vdW  Elec       q    Type
REMARK                         _______ _______ _______ _____ _____    ______ ____
ROOT
ATOM      1  C   UNL     1      -4.942   3.442   2.744  0.00  0.00    +0.100 C 
ATOM      2  C   UNL     1      -4.711   2.300   3.758  0.00  0.00    +0.121 C 
ATOM      3  N   UNL     1      -4.240   2.981   4.987  0.00  0.00    -0.300 N 
ATOM      4  C   UNL     1      -5.062   4.213   5.065  0.00  0.00    +0.115 C 
ATOM      5  C   UNL     1      -5.176   4.695   3.605  0.00  0.00    -0.004 C 
ATOM      6  C   UNL     1      -6.567   5.264   3.344  0.00  0.00    -0.010 C 
ATOM      7  C   UNL     1      -6.754   6.541   4.168  0.00  0.00    -0.082 C 
ATOM      8  N   UNL     1      -5.726   7.520   3.796  0.00  0.00    +0.379 N 
ATOM      9  C   UNL     1      -4.395   7.002   4.137  0.00  0.00    -0.082 C 
ATOM     10  C   UNL     1      -4.108   5.745   3.312  0.00  0.00    -0.010 C 
ATOM     11  C   UNL     1      -3.281   2.573   5.842  0.00  0.00    +0.226 C 
ATOM     12  O   UNL     1      -3.078   3.191   6.866  0.00  0.00    -0.275 OA
ATOM     13  H   UNL     1      -5.773   7.696   2.804  0.00  0.00    -0.086 HD
ATOM     14  H   UNL     1      -5.888   8.382   4.295  0.00  0.00    -0.086 HD
ENDROOT
BRANCH  11  15
ATOM     15  C   UNL     1      -2.461   1.349   5.526  0.00  0.00    +0.150 C 
ATOM     16  C   UNL     1      -2.533   0.338   6.657  0.00  0.00    +0.030 C 
ATOM     17  C   UNL     1      -1.407   0.422   7.332  0.00  0.00    +0.092 C 
ATOM     18  O   UNL     1      -0.553   1.353   6.846  0.00  0.00    -0.484 OA
ATOM     19  C   UNL     1      -0.949   1.685   5.500  0.00  0.00    +0.292 C 
ATOM     20  C   UNL     1      -1.096  -0.437   8.530  0.00  0.00    +0.085 C 
BRANCH  19  21
ATOM     21  C   UNL     1      -0.724   3.171   5.213  0.00  0.00    +0.427 C 
ATOM     22  F   UNL     1      -1.207   3.931   6.283  0.00  0.00    -0.167 F 
ATOM     23  F   UNL     1       0.645   3.412   5.051  0.00  0.00    -0.167 F 
ATOM     24  F   UNL     1      -1.402   3.528   4.043  0.00  0.00    -0.167 F 
ENDBRANCH  19  21
ENDBRANCH  11  15
BRANCH   1  26
ATOM     25  N   UNL     1      -3.800   4.387   0.763  0.00  0.00    -0.315 N 
ATOM     26  C   UNL     1      -3.726   3.624   1.872  0.00  0.00    +0.218 C 
ATOM     27  O   UNL     1      -2.682   3.084   2.169  0.00  0.00    -0.275 OA
ATOM     28  H   UNL     1      -4.636   4.819   0.526  0.00  0.00    +0.149 HD
BRANCH  25  29
ATOM     29  C   UNL     1      -2.618   4.564  -0.084  0.00  0.00    +0.109 C 
BRANCH  29  30
ATOM     30  C   UNL     1      -2.969   5.467  -1.267  0.00  0.00    +0.056 C 
BRANCH  30  34
ATOM     31  C   UNL     1      -2.155   3.674  -3.666  0.00  0.00    +0.063 C 
ATOM     32  C   UNL     1      -1.393   4.880  -3.178  0.00  0.00    +0.017 A 
ATOM     33  H   UNL     1       0.228   4.954  -4.484  0.00  0.00    +0.166 HD
ATOM     34  C   UNL     1      -1.753   5.649  -2.139  0.00  0.00    -0.018 A 
ATOM     35  C   UNL     1      -0.741   6.700  -2.013  0.00  0.00    +0.003 A 
ATOM     36  C   UNL     1      -0.563   7.778  -1.144  0.00  0.00    +0.010 A 
ATOM     37  C   UNL     1       0.518   8.600  -1.294  0.00  0.00    +0.001 A 
ATOM     38  C   UNL     1       1.442   8.372  -2.304  0.00  0.00    +0.002 A 
ATOM     39  C   UNL     1       1.286   7.314  -3.173  0.00  0.00    +0.026 A 
ATOM     40  C   UNL     1       0.193   6.465  -3.039  0.00  0.00    +0.047 A 
ATOM     41  N   UNL     1      -0.230   5.348  -3.724  0.00  0.00    -0.358 N 
ENDBRANCH  30  34
ENDBRANCH  29  30
ENDBRANCH  25  29
ENDBRANCH   1  26
TORSDOF 6
