REMARK  Name = ZINC11784212
REMARK  6 active torsions:
REMARK  status: ('A' for Active; 'I' for Inactive)
REMARK    1  A    between atoms: C_5  and  C_7
REMARK    2  A    between atoms: C_7  and  N_8
REMARK    3  A    between atoms: C_16  and  C_19
REMARK    4  A    between atoms: C_19  and  N_51
REMARK    5  A    between atoms: C_20  and  C_21
REMARK    6  A    between atoms: C_20  and  N_51
REMARK                            x       y       z     vdW  Elec       q    Type
REMARK                         _______ _______ _______ _____ _____    ______ ____
ROOT
ATOM      1  N   UNL     1      -4.119  -1.659   4.685  0.00  0.00    -0.303 N 
ATOM      2  C   UNL     1      -5.120  -0.794   5.075  0.00  0.00    +0.055 A 
ATOM      3  C   UNL     1      -5.824  -1.002   6.255  0.00  0.00    +0.064 A 
ATOM      4  C   UNL     1      -6.822  -0.120   6.621  0.00  0.00    +0.125 A 
ATOM      5  C   UNL     1      -7.130   0.975   5.821  0.00  0.00    +0.039 A 
ATOM      6  C   UNL     1      -6.450   1.197   4.658  0.00  0.00    +0.013 A 
ATOM      7  C   UNL     1      -5.434   0.316   4.268  0.00  0.00    -0.001 A 
ATOM      8  C   UNL     1      -4.687   0.525   3.027  0.00  0.00    +0.017 A 
ATOM      9  C   UNL     1      -3.714  -0.362   2.700  0.00  0.00    +0.001 A 
ATOM     10  C   UNL     1      -3.441  -1.461   3.541  0.00  0.00    +0.253 A 
ATOM     11  O   UNL     1      -2.566  -2.248   3.225  0.00  0.00    -0.267 OA
ATOM     12  F   UNL     1      -7.506  -0.324   7.769  0.00  0.00    -0.205 F 
ENDROOT
BRANCH   1  13
ATOM     13  C   UNL     1      -3.793  -2.812   5.527  0.00  0.00    +0.162 C 
BRANCH  13  18
ATOM     14  C   UNL     1      -3.865  -6.003   3.510  0.00  0.00    +0.000 A 
ATOM     15  C   UNL     1      -5.187  -6.386   3.646  0.00  0.00    +0.001 A 
ATOM     16  C   UNL     1      -6.058  -5.614   4.390  0.00  0.00    +0.020 A 
ATOM     17  C   UNL     1      -5.606  -4.459   5.004  0.00  0.00    +0.046 A 
ATOM     18  C   UNL     1      -4.285  -4.073   4.863  0.00  0.00    -0.009 A 
ATOM     19  C   UNL     1      -3.414  -4.847   4.119  0.00  0.00    +0.007 A 
ATOM     20 CL   UNL     1      -6.697  -3.491   5.945  0.00  0.00    -0.083 Cl
ENDBRANCH  13  18
ENDBRANCH   1  13
BRANCH   9  21
ATOM     21  C   UNL     1      -2.925  -0.175   1.429  0.00  0.00    -0.041 C 
BRANCH  21  22
ATOM     22  N   UNL     1      -1.678   0.550   1.736  0.00  0.00    +0.384 N 
ATOM     23  H   UNL     1      -1.128   0.007   2.411  0.00  0.00    -0.085 HD
ATOM     24  H   UNL     1      -1.909   1.465   2.140  0.00  0.00    -0.085 HD
BRANCH  22  25
ATOM     25  C   UNL     1      -0.885   0.747   0.508  0.00  0.00    -0.046 C 
BRANCH  25  26
ATOM     26  C   UNL     1       0.381   1.489   0.852  0.00  0.00    -0.061 A 
ATOM     27  C   UNL     1       1.519   0.787   1.202  0.00  0.00    +0.005 A 
ATOM     28  C   UNL     1       2.684   1.463   1.513  0.00  0.00    +0.050 A 
ATOM     29  C   UNL     1       2.712   2.848   1.478  0.00  0.00    +0.166 A 
ATOM     30  C   UNL     1       1.564   3.555   1.130  0.00  0.00    +0.166 A 
ATOM     31  C   UNL     1       0.400   2.871   0.821  0.00  0.00    +0.051 A 
ATOM     32  O   UNL     1       1.847   4.891   1.168  0.00  0.00    -0.453 OA
ATOM     33  C   UNL     1       3.283   4.981   1.145  0.00  0.00    +0.466 C 
ATOM     34  O   UNL     1       3.713   3.739   1.735  0.00  0.00    -0.453 OA
ENDBRANCH  25  26
ENDBRANCH  22  25
ENDBRANCH  21  22
ENDBRANCH   9  21
TORSDOF 6
