REMARK  Name = ZINC06134596
REMARK  15 active torsions:
REMARK  status: ('A' for Active; 'I' for Inactive)
REMARK    1  A    between atoms: C_1  and  C_2
REMARK    2  A    between atoms: C_2  and  C_3
REMARK    3  A    between atoms: C_2  and  C_4
REMARK    4  A    between atoms: C_4  and  C_5
REMARK    5  A    between atoms: C_5  and  N_6
REMARK    6  A    between atoms: C_7  and  C_9
REMARK    7  A    between atoms: C_9  and  C_11
REMARK    8  A    between atoms: C_9  and  N_16
REMARK    9  A    between atoms: N_16  and  C_17
REMARK   10  A    between atoms: C_20  and  C_23
REMARK   11  A    between atoms: C_23  and  C_24
REMARK   12  A    between atoms: C_23  and  C_25
REMARK   13  A    between atoms: C_26  and  C_28
REMARK   14  A    between atoms: C_29  and  N_36
REMARK   15  A    between atoms: C_30  and  C_33
REMARK                            x       y       z     vdW  Elec       q    Type
REMARK                         _______ _______ _______ _____ _____    ______ ____
ROOT
ATOM      1  N   UNL     1       3.712   2.500   0.727  0.00  0.00    -0.248 N 
ATOM      2  C   UNL     1       3.041   3.650   0.938  0.00  0.00    +0.262 C 
ATOM      3  O   UNL     1       3.152   4.233   2.001  0.00  0.00    -0.269 OA
ENDROOT
BRANCH   1   4
ATOM      4  C   UNL     1       4.505   1.957   1.742  0.00  0.00    +0.038 A 
ATOM      5  C   UNL     1       4.916   0.632   1.671  0.00  0.00    +0.024 A 
ATOM      6  C   UNL     1       5.704   0.100   2.673  0.00  0.00    +0.006 A 
ATOM      7  C   UNL     1       6.075   0.883   3.752  0.00  0.00    -0.045 A 
ATOM      8  C   UNL     1       5.663   2.200   3.828  0.00  0.00    +0.006 A 
ATOM      9  C   UNL     1       4.880   2.740   2.827  0.00  0.00    +0.024 A 
BRANCH   7  10
ATOM     10  C   UNL     1       6.931   0.298   4.846  0.00  0.00    +0.013 C 
ATOM     11  C   UNL     1       6.204  -0.889   5.482  0.00  0.00    +0.012 C 
ATOM     12  C   UNL     1       8.260  -0.176   4.256  0.00  0.00    +0.012 C 
ENDBRANCH   7  10
ENDBRANCH   1   4
BRANCH   2  13
ATOM     13  C   UNL     1       2.180   4.198  -0.112  0.00  0.00    +0.116 A 
ATOM     14  C   UNL     1       1.880   5.530  -0.404  0.00  0.00    +0.076 A 
ATOM     15  C   UNL     1       1.015   5.656  -1.491  0.00  0.00    +0.155 A 
ATOM     16  N   UNL     1       0.580   4.573  -2.096  0.00  0.00    -0.203 NA
ATOM     17  S   UNL     1       1.229   3.345  -1.352  0.00  0.00    +0.019 S 
BRANCH  15  18
ATOM     18  C   UNL     1       0.588   6.990  -1.952  0.00  0.00    +0.262 C 
ATOM     19  O   UNL     1       0.993   7.987  -1.387  0.00  0.00    -0.269 OA
ATOM     20  N   UNL     1      -0.253   7.103  -2.999  0.00  0.00    -0.324 N 
ATOM     21  H   UNL     1      -0.577   6.308  -3.450  0.00  0.00    +0.145 HD
ATOM     22  H   UNL     1      -0.534   7.981  -3.303  0.00  0.00    +0.145 HD
ENDBRANCH  15  18
BRANCH  14  23
ATOM     23  N   UNL     1       2.390   6.609   0.306  0.00  0.00    -0.355 N 
ATOM     24  H   UNL     1       2.991   6.459   1.052  0.00  0.00    +0.142 HD
ATOM     25  H   UNL     1       2.145   7.514   0.055  0.00  0.00    +0.142 HD
ENDBRANCH  14  23
ENDBRANCH   2  13
BRANCH   1  26
ATOM     26  C   UNL     1       3.609   1.818  -0.566  0.00  0.00    +0.233 C 
BRANCH  26  27
ATOM     27  C   UNL     1       4.990   1.566  -1.112  0.00  0.00    +0.135 A 
ATOM     28  C   UNL     1       5.325   1.518  -2.414  0.00  0.00    +0.047 A 
ATOM     29  C   UNL     1       6.712   1.251  -2.470  0.00  0.00    +0.041 A 
ATOM     30  C   UNL     1       7.144   1.161  -1.200  0.00  0.00    +0.195 A 
ATOM     31  O   UNL     1       6.096   1.349  -0.381  0.00  0.00    -0.465 OA
ENDBRANCH  26  27
BRANCH  26  33
ATOM     32  N   UNL     1       2.680  -0.298  -1.447  0.00  0.00    -0.313 N 
ATOM     33  C   UNL     1       2.892   0.505  -0.386  0.00  0.00    +0.242 C 
ATOM     34  O   UNL     1       2.505   0.171   0.714  0.00  0.00    -0.273 OA
ATOM     35  H   UNL     1       2.990  -0.031  -2.326  0.00  0.00    +0.149 HD
BRANCH  32  36
ATOM     36  C   UNL     1       1.983  -1.575  -1.272  0.00  0.00    +0.104 C 
BRANCH  36  37
ATOM     37  C   UNL     1       1.876  -2.287  -2.622  0.00  0.00    +0.022 C 
BRANCH  37  39
ATOM     38  C   UNL     1      -0.295  -3.358  -2.004  0.00  0.00    +0.007 C 
ATOM     39  C   UNL     1       1.148  -3.620  -2.439  0.00  0.00    -0.016 C 
ATOM     40  C   UNL     1       1.150  -4.388  -3.763  0.00  0.00    +0.007 C 
ENDBRANCH  37  39
ENDBRANCH  36  37
ENDBRANCH  32  36
ENDBRANCH  26  33
ENDBRANCH   1  26
TORSDOF 11
