REMARK  Name = ZINC40730033
REMARK  6 active torsions:
REMARK  status: ('A' for Active; 'I' for Inactive)
REMARK    1  A    between atoms: C_4  and  C_7
REMARK    2  A    between atoms: C_7  and  C_8
REMARK    3  A    between atoms: C_7  and  N_14
REMARK    4  A    between atoms: C_21  and  N_39
REMARK    5  A    between atoms: C_22  and  N_26
REMARK    6  A    between atoms: N_29  and  C_32
REMARK                            x       y       z     vdW  Elec       q    Type
REMARK                         _______ _______ _______ _____ _____    ______ ____
ROOT
ATOM      1  N   UNL     1       3.424  -1.746  -1.081  0.00  0.00    -0.289 NA
ATOM      2  C   UNL     1       3.047  -1.384  -2.454  0.00  0.00    +0.104 C 
ATOM      3  C   UNL     1       2.823  -2.661  -3.272  0.00  0.00    +0.122 C 
ATOM      4  N   UNL     1       4.022  -3.505  -3.159  0.00  0.00    -0.311 N 
ATOM      5  C   UNL     1       4.541  -3.799  -1.814  0.00  0.00    +0.122 C 
ATOM      6  C   UNL     1       4.698  -2.477  -1.054  0.00  0.00    +0.104 C 
ATOM      7  C   UNL     1       4.647  -4.013  -4.291  0.00  0.00    +0.147 A 
ATOM      8  C   UNL     1       4.291  -5.265  -4.796  0.00  0.00    +0.106 A 
ATOM      9  C   UNL     1       4.950  -5.727  -5.937  0.00  0.00    +0.147 A 
ATOM     10  N   UNL     1       5.885  -4.962  -6.495  0.00  0.00    -0.219 NA
ATOM     11  C   UNL     1       6.191  -3.786  -5.987  0.00  0.00    +0.225 A 
ATOM     12  N   UNL     1       5.590  -3.310  -4.915  0.00  0.00    -0.219 NA
ENDROOT
BRANCH   9  13
ATOM     13  N   UNL     1       4.634  -6.966  -6.481  0.00  0.00    -0.311 N 
ATOM     14  C   UNL     1       3.595  -7.088  -7.513  0.00  0.00    +0.125 C 
ATOM     15  C   UNL     1       4.200  -7.783  -8.738  0.00  0.00    +0.124 C 
ATOM     16  N   UNL     1       4.900  -8.996  -8.292  0.00  0.00    -0.325 N 
ATOM     17  C   UNL     1       5.939  -8.874  -7.260  0.00  0.00    +0.124 C 
ATOM     18  C   UNL     1       5.338  -8.178  -6.038  0.00  0.00    +0.125 C 
BRANCH  16  19
ATOM     19  C   UNL     1       4.582 -10.243  -8.839  0.00  0.00    +0.065 A 
ATOM     20  C   UNL     1       5.257 -10.702  -9.962  0.00  0.00    +0.026 A 
ATOM     21  C   UNL     1       4.941 -11.935 -10.501  0.00  0.00    +0.002 A 
ATOM     22  C   UNL     1       3.954 -12.712  -9.922  0.00  0.00    +0.003 A 
ATOM     23  C   UNL     1       3.279 -12.259  -8.804  0.00  0.00    +0.040 A 
ATOM     24  C   UNL     1       3.594 -11.029  -8.256  0.00  0.00    +0.144 A 
ATOM     25  F   UNL     1       2.939 -10.589  -7.160  0.00  0.00    -0.204 F 
ENDBRANCH  16  19
ENDBRANCH   9  13
BRANCH   8  26
ATOM     26  N   UNL     1       3.297  -6.038  -4.174  0.00  0.00    -0.353 N 
ATOM     27  H   UNL     1       2.785  -5.668  -3.438  0.00  0.00    +0.143 HD
ATOM     28  H   UNL     1       3.123  -6.942  -4.480  0.00  0.00    +0.143 HD
ENDBRANCH   8  26
BRANCH   1  29
ATOM     29  C   UNL     1       3.480  -0.557  -0.221  0.00  0.00    +0.117 C 
BRANCH  29  33
ATOM     30  C   UNL     1      -0.265   1.491  -0.376  0.00  0.00    +0.000 A 
ATOM     31  C   UNL     1       0.916   2.209  -0.362  0.00  0.00    +0.000 A 
ATOM     32  C   UNL     1       2.128   1.547  -0.312  0.00  0.00    +0.005 A 
ATOM     33  C   UNL     1       2.159   0.165  -0.274  0.00  0.00    -0.026 A 
ATOM     34  C   UNL     1       0.978  -0.553  -0.287  0.00  0.00    +0.005 A 
ATOM     35  C   UNL     1      -0.234   0.109  -0.339  0.00  0.00    +0.000 A 
ENDBRANCH  29  33
BRANCH  29  36
ATOM     36  C   UNL     1       3.765  -0.978   1.198  0.00  0.00    -0.026 A 
ATOM     37  C   UNL     1       3.169  -2.112   1.716  0.00  0.00    +0.005 A 
ATOM     38  C   UNL     1       3.430  -2.498   3.018  0.00  0.00    +0.000 A 
ATOM     39  C   UNL     1       4.289  -1.750   3.801  0.00  0.00    +0.000 A 
ATOM     40  C   UNL     1       4.886  -0.616   3.283  0.00  0.00    +0.000 A 
ATOM     41  C   UNL     1       4.628  -0.232   1.980  0.00  0.00    +0.005 A 
ENDBRANCH  29  36
ENDBRANCH   1  29
TORSDOF 6
