REMARK  Name = ZINC39681381
REMARK  10 active torsions:
REMARK  status: ('A' for Active; 'I' for Inactive)
REMARK    1  A    between atoms: C_1  and  C_2
REMARK    2  A    between atoms: C_2  and  C_3
REMARK    3  A    between atoms: C_3  and  C_5
REMARK    4  A    between atoms: C_3  and  C_6
REMARK    5  A    between atoms: C_6  and  C_7
REMARK    6  A    between atoms: C_11  and  C_20
REMARK    7  A    between atoms: N_22  and  C_23
REMARK    8  A    between atoms: C_23  and  C_24
REMARK    9  A    between atoms: C_24  and  O_25
REMARK   10  A    between atoms: O_25  and  C_26
REMARK                            x       y       z     vdW  Elec       q    Type
REMARK                         _______ _______ _______ _____ _____    ______ ____
ROOT
ATOM      1  C   UNL     1       1.328  -2.519  -2.757  0.00  0.00    +0.216 C 
ATOM      2  O   UNL     1       1.737  -1.738  -3.589  0.00  0.00    -0.276 OA
ATOM      3  N   UNL     1       1.312  -3.840  -3.023  0.00  0.00    -0.300 N 
ATOM      4  C   UNL     1       0.848  -4.939  -2.144  0.00  0.00    +0.121 C 
ATOM      5  C   UNL     1       0.117  -5.916  -3.092  0.00  0.00    +0.100 C 
ATOM      6  C   UNL     1       0.719  -5.639  -4.480  0.00  0.00    -0.004 C 
ATOM      7  C   UNL     1       1.751  -4.522  -4.265  0.00  0.00    +0.115 C 
ATOM      8  C   UNL     1       1.401  -6.893  -5.020  0.00  0.00    -0.010 C 
ATOM      9  C   UNL     1       1.940  -6.610  -6.425  0.00  0.00    -0.082 C 
ATOM     10  N   UNL     1       0.835  -6.212  -7.305  0.00  0.00    +0.379 N 
ATOM     11  C   UNL     1       0.244  -4.955  -6.830  0.00  0.00    -0.082 C 
ATOM     12  C   UNL     1      -0.367  -5.168  -5.443  0.00  0.00    -0.010 C 
ATOM     13  H   UNL     1       1.183  -6.085  -8.243  0.00  0.00    -0.086 HD
ATOM     14  H   UNL     1       0.131  -6.934  -7.305  0.00  0.00    -0.086 HD
ENDROOT
BRANCH   5  15
ATOM     15  C   UNL     1       0.377  -7.341  -2.679  0.00  0.00    +0.218 C 
ATOM     16  O   UNL     1       1.426  -7.637  -2.147  0.00  0.00    -0.275 OA
ATOM     17  N   UNL     1      -0.556  -8.288  -2.902  0.00  0.00    -0.312 N 
ATOM     18  H   UNL     1      -1.395  -8.052  -3.328  0.00  0.00    +0.149 HD
BRANCH  17  19
ATOM     19  C   UNL     1      -0.303  -9.674  -2.501  0.00  0.00    +0.145 C 
BRANCH  19  20
ATOM     20  C   UNL     1      -1.511 -10.539  -2.864  0.00  0.00    +0.248 C 
BRANCH  20  21
ATOM     21  O   UNL     1      -1.659 -10.578  -4.285  0.00  0.00    -0.489 OA
BRANCH  21  22
ATOM     22  C   UNL     1      -2.694 -11.309  -4.777  0.00  0.00    +0.139 A 
ATOM     23  C   UNL     1      -3.552 -11.971  -3.911  0.00  0.00    +0.047 A 
ATOM     24  C   UNL     1      -4.603 -12.713  -4.414  0.00  0.00    +0.004 A 
ATOM     25  C   UNL     1      -4.800 -12.798  -5.780  0.00  0.00    +0.002 A 
ATOM     26  C   UNL     1      -3.947 -12.140  -6.646  0.00  0.00    +0.023 A 
ATOM     27  C   UNL     1      -2.897 -11.391  -6.148  0.00  0.00    +0.083 A 
ATOM     28 CL   UNL     1      -1.830 -10.559  -7.236  0.00  0.00    -0.080 Cl
ENDBRANCH  21  22
ENDBRANCH  20  21
ENDBRANCH  19  20
ENDBRANCH  17  19
ENDBRANCH   5  15
BRANCH   1  29
ATOM     29  C   UNL     1       0.836  -2.014  -1.425  0.00  0.00    +0.099 C 
BRANCH  29  30
ATOM     30  C   UNL     1       0.961  -0.489  -1.381  0.00  0.00    -0.006 C 
ATOM     31  C   UNL     1       2.438  -0.096  -1.444  0.00  0.00    +0.008 C 
BRANCH  30  33
ATOM     32  C   UNL     1       0.359   1.565  -0.092  0.00  0.00    +0.004 C 
ATOM     33  C   UNL     1       0.348   0.035  -0.081  0.00  0.00    +0.000 C 
ENDBRANCH  30  33
ENDBRANCH  29  30
ENDBRANCH   1  29
TORSDOF 8
