REMARK  Name = ZINC01208486
REMARK  4 active torsions:
REMARK  status: ('A' for Active; 'I' for Inactive)
REMARK    1  A    between atoms: C_1  and  C_2
REMARK    2  A    between atoms: C_3  and  C_17
REMARK    3  A    between atoms: C_4  and  C_10
REMARK    4  A    between atoms: N_19  and  C_20
REMARK                            x       y       z     vdW  Elec       q    Type
REMARK                         _______ _______ _______ _____ _____    ______ ____
ROOT
ATOM      1  C   UNL     1       1.223   0.839   0.120  0.00  0.00    +0.061 C 
ATOM      2  C   UNL     1       0.124   1.413   0.977  0.00  0.00    +0.019 C 
ATOM      3  C   UNL     1       0.380   1.721   2.265  0.00  0.00    +0.056 C 
ATOM      4  C   UNL     1      -0.753   2.296   3.091  0.00  0.00    +0.144 C 
ATOM      5  N   UNL     1      -2.050   2.471   2.416  0.00  0.00    -0.288 N 
ATOM      6  C   UNL     1      -2.151   2.115   1.120  0.00  0.00    +0.304 C 
ATOM      7  O   UNL     1      -3.217   2.256   0.553  0.00  0.00    -0.252 OA
ATOM      8  N   UNL     1      -1.114   1.617   0.435  0.00  0.00    -0.273 N 
ATOM      9  H   UNL     1      -2.813   2.834   2.892  0.00  0.00    +0.151 HD
ATOM     10  H   UNL     1      -1.250   1.384  -0.497  0.00  0.00    +0.156 HD
ENDROOT
BRANCH   4  11
ATOM     11  C   UNL     1      -0.967   1.392   4.278  0.00  0.00    +0.013 A 
ATOM     12  C   UNL     1      -2.030   0.509   4.292  0.00  0.00    +0.008 A 
ATOM     13  C   UNL     1      -2.227  -0.321   5.380  0.00  0.00    +0.001 A 
ATOM     14  C   UNL     1      -1.360  -0.269   6.455  0.00  0.00    +0.003 A 
ATOM     15  C   UNL     1      -0.296   0.613   6.444  0.00  0.00    +0.039 A 
ATOM     16  C   UNL     1      -0.096   1.441   5.352  0.00  0.00    +0.129 A 
ATOM     17  F   UNL     1       0.947   2.300   5.338  0.00  0.00    -0.205 F 
ENDBRANCH   4  11
BRANCH   3  18
ATOM     18  C   UNL     1       1.664   1.515   2.827  0.00  0.00    +0.248 C 
ATOM     19  O   UNL     1       2.431   2.452   2.952  0.00  0.00    -0.270 OA
ATOM     20  N   UNL     1       2.036   0.282   3.222  0.00  0.00    -0.282 N 
ATOM     21  H   UNL     1       1.388  -0.440   3.236  0.00  0.00    +0.155 HD
BRANCH  20  22
ATOM     22  C   UNL     1       3.358   0.041   3.612  0.00  0.00    +0.034 A 
ATOM     23  C   UNL     1       4.148   1.087   4.072  0.00  0.00    +0.024 A 
ATOM     24  C   UNL     1       5.451   0.846   4.461  0.00  0.00    +0.017 A 
ATOM     25  C   UNL     1       5.973  -0.434   4.384  0.00  0.00    +0.018 A 
ATOM     26  C   UNL     1       5.189  -1.476   3.921  0.00  0.00    +0.017 A 
ATOM     27  C   UNL     1       3.884  -1.242   3.535  0.00  0.00    +0.024 A 
ATOM     28 BR   UNL     1       7.759  -0.758   4.911  0.00  0.00    -0.050 Br
ENDBRANCH  20  22
ENDBRANCH   3  18
TORSDOF 3
