REMARK  Name = ZINC15942316
REMARK  7 active torsions:
REMARK  status: ('A' for Active; 'I' for Inactive)
REMARK    1  A    between atoms: C_1  and  C_2
REMARK    2  A    between atoms: C_10  and  C_11
REMARK    3  A    between atoms: N_13  and  N_14
REMARK    4  A    between atoms: C_15  and  C_17
REMARK    5  A    between atoms: C_17  and  C_18
REMARK    6  A    between atoms: C_18  and  C_19
REMARK    7  A    between atoms: C_19  and  C_20
REMARK                            x       y       z     vdW  Elec       q    Type
REMARK                         _______ _______ _______ _____ _____    ______ ____
ROOT
ATOM      1  N   UNL     1      -0.524   1.433  -3.689  0.00  0.00    -0.234 N 
ATOM      2  C   UNL     1      -0.047   1.107  -2.471  0.00  0.00    +0.229 C 
ATOM      3  O   UNL     1       0.949   0.422  -2.373  0.00  0.00    -0.274 OA
ATOM      4  H   UNL     1      -1.321   1.980  -3.768  0.00  0.00    +0.173 HD
ENDROOT
BRANCH   1   7
ATOM      5  C   UNL     1      -0.345   1.307  -6.060  0.00  0.00    +0.296 C 
ATOM      6  O   UNL     1      -1.344   1.993  -6.158  0.00  0.00    -0.265 OA
ATOM      7  N   UNL     1       0.132   0.981  -4.842  0.00  0.00    -0.228 N 
ATOM      8  H   UNL     1       0.929   0.433  -4.763  0.00  0.00    +0.173 HD
BRANCH   5  18
ATOM      9  C   UNL     1      -1.242   1.903  -8.977  0.00  0.00    +0.048 C 
ATOM     10  C   UNL     1      -0.047   1.093  -8.543  0.00  0.00    +0.008 A 
ATOM     11  C   UNL     1       0.927   0.430  -9.409  0.00  0.00    +0.024 A 
ATOM     12  C   UNL     1       1.084   0.320 -10.793  0.00  0.00    +0.012 A 
ATOM     13  C   UNL     1       2.129  -0.398 -11.301  0.00  0.00    +0.001 A 
ATOM     14  C   UNL     1       3.034  -1.020 -10.452  0.00  0.00    +0.004 A 
ATOM     15  C   UNL     1       2.897  -0.924  -9.084  0.00  0.00    +0.047 A 
ATOM     16  C   UNL     1       1.841  -0.198  -8.544  0.00  0.00    +0.136 A 
ATOM     17  O   UNL     1       1.455   0.068  -7.281  0.00  0.00    -0.450 OA
ATOM     18  C   UNL     1       0.343   0.833  -7.269  0.00  0.00    +0.195 A 
ENDBRANCH   5  18
ENDBRANCH   1   7
BRANCH   2  19
ATOM     19  C   UNL     1      -0.753   1.593  -1.232  0.00  0.00    +0.097 C 
BRANCH  19  20
ATOM     20  C   UNL     1      -0.013   1.086   0.008  0.00  0.00    +0.014 C 
BRANCH  20  21
ATOM     21  C   UNL     1      -0.729   1.579   1.267  0.00  0.00    +0.038 C 
BRANCH  21  22
ATOM     22  C   UNL     1       0.000   1.080   2.488  0.00  0.00    -0.022 A 
ATOM     23  C   UNL     1      -0.289  -0.024   3.194  0.00  0.00    +0.087 A 
ATOM     24  N   UNL     1       0.591  -0.156   4.234  0.00  0.00    -0.360 N 
ATOM     25  H   UNL     1       0.584  -0.878   4.882  0.00  0.00    +0.165 HD
ATOM     26  C   UNL     1       1.485   0.891   4.226  0.00  0.00    +0.047 A 
ATOM     27  C   UNL     1       1.154   1.711   3.132  0.00  0.00    +0.003 A 
ATOM     28  C   UNL     1       1.901   2.862   2.874  0.00  0.00    +0.010 A 
ATOM     29  C   UNL     1       2.951   3.186   3.686  0.00  0.00    +0.001 A 
ATOM     30  C   UNL     1       3.281   2.381   4.767  0.00  0.00    +0.002 A 
ATOM     31  C   UNL     1       2.558   1.240   5.040  0.00  0.00    +0.026 A 
ENDBRANCH  21  22
ENDBRANCH  20  21
ENDBRANCH  19  20
ENDBRANCH   2  19
TORSDOF 6
