REMARK  Name = ZINC42956094
REMARK  6 active torsions:
REMARK  status: ('A' for Active; 'I' for Inactive)
REMARK    1  A    between atoms: C_1  and  C_2
REMARK    2  A    between atoms: C_2  and  C_3
REMARK    3  A    between atoms: C_3  and  C_5
REMARK    4  A    between atoms: C_3  and  N_20
REMARK    5  A    between atoms: C_5  and  C_7
REMARK    6  A    between atoms: C_5  and  N_14
REMARK                            x       y       z     vdW  Elec       q    Type
REMARK                         _______ _______ _______ _____ _____    ______ ____
ROOT
ATOM      1  C   UNL     1       0.655  -2.037   1.299  0.00  0.00    +0.123 C 
ENDROOT
BRANCH   1   2
ATOM      2  C   UNL     1      -0.759  -2.556   1.323  0.00  0.00    -0.025 A 
ATOM      3  C   UNL     1      -1.257  -3.256   0.239  0.00  0.00    +0.007 A 
ATOM      4  C   UNL     1      -2.555  -3.732   0.261  0.00  0.00    +0.015 A 
ATOM      5  C   UNL     1      -3.355  -3.508   1.367  0.00  0.00    +0.018 A 
ATOM      6  C   UNL     1      -2.856  -2.808   2.450  0.00  0.00    +0.015 A 
ATOM      7  C   UNL     1      -1.557  -2.336   2.430  0.00  0.00    +0.007 A 
ATOM      8 BR   UNL     1      -5.130  -4.158   1.397  0.00  0.00    -0.050 Br
ENDBRANCH   1   2
BRANCH   1   9
ATOM      9  N   UNL     1       1.467  -2.787   2.261  0.00  0.00    -0.265 N 
ATOM     10  C   UNL     1       1.050  -3.255   3.457  0.00  0.00    +0.124 A 
ATOM     11  C   UNL     1       2.095  -3.890   4.038  0.00  0.00    +0.055 A 
ATOM     12  C   UNL     1       3.187  -3.806   3.168  0.00  0.00    +0.149 A 
ATOM     13  N   UNL     1       2.810  -3.150   2.100  0.00  0.00    -0.178 NA
ATOM     14 BR   UNL     1       2.081  -4.738   5.728  0.00  0.00    -0.047 Br
ENDBRANCH   1   9
BRANCH   1  15
ATOM     15  C   UNL     1       0.661  -0.554   1.673  0.00  0.00    -0.046 C 
BRANCH  15  16
ATOM     16  N   UNL     1       2.041  -0.049   1.650  0.00  0.00    +0.382 N 
ATOM     17  H   UNL     1       2.044   0.930   1.897  0.00  0.00    -0.090 HD
ATOM     18  H   UNL     1       2.599  -0.565   2.312  0.00  0.00    -0.090 HD
ATOM     19  H   UNL     1       2.425  -0.163   0.724  0.00  0.00    -0.090 HD
ENDBRANCH  15  16
BRANCH  15  21
ATOM     20  C   UNL     1      -0.282   1.690   1.111  0.00  0.00    +0.002 C 
ATOM     21  C   UNL     1      -0.186   0.229   0.668  0.00  0.00    -0.017 C 
ENDBRANCH  15  21
ENDBRANCH   1  15
TORSDOF 5
