REMARK  Name = ZINC09130176
REMARK  6 active torsions:
REMARK  status: ('A' for Active; 'I' for Inactive)
REMARK    1  A    between atoms: C_3  and  C_8
REMARK    2  A    between atoms: C_5  and  O_7
REMARK    3  A    between atoms: C_10  and  C_22
REMARK    4  A    between atoms: C_12  and  C_17
REMARK    5  A    between atoms: C_12  and  O_21
REMARK    6  A    between atoms: C_22  and  C_24
REMARK                            x       y       z     vdW  Elec       q    Type
REMARK                         _______ _______ _______ _____ _____    ______ ____
ROOT
ATOM      1  C   UNL     1       3.323   2.245  -0.045  0.00  0.00    +0.120 C 
ATOM      2  C   UNL     1       3.878   2.315  -1.472  0.00  0.00    +0.144 C 
ATOM      3  C   UNL     1       3.088   3.373  -2.251  0.00  0.00    +0.243 C 
ATOM      4  N   UNL     1       3.151   4.646  -1.530  0.00  0.00    -0.264 N 
ATOM      5  C   UNL     1       3.280   4.687  -0.196  0.00  0.00    +0.302 C 
ATOM      6  O   UNL     1       3.316   5.770   0.354  0.00  0.00    -0.253 OA
ATOM      7  N   UNL     1       3.373   3.579   0.557  0.00  0.00    -0.292 N 
ATOM      8  H   UNL     1       3.097   5.477  -2.028  0.00  0.00    +0.153 HD
ATOM      9  H   UNL     1       3.475   3.663   1.518  0.00  0.00    +0.151 HD
ENDROOT
BRANCH   1  12
ATOM     10  C   UNL     1      -0.454   2.233  -0.056  0.00  0.00    +0.004 A 
ATOM     11  C   UNL     1       0.857   2.673  -0.021  0.00  0.00    +0.006 A 
ATOM     12  C   UNL     1       1.896   1.763  -0.083  0.00  0.00    -0.023 A 
ATOM     13  C   UNL     1       1.627   0.411  -0.178  0.00  0.00    +0.051 A 
ATOM     14  C   UNL     1       0.313  -0.033  -0.213  0.00  0.00    +0.117 A 
ATOM     15  C   UNL     1      -0.728   0.883  -0.151  0.00  0.00    +0.045 A 
BRANCH  14  16
ATOM     16  O   UNL     1       0.046  -1.362  -0.307  0.00  0.00    -0.507 OA
ATOM     17  H   UNL     1      -0.034  -1.809   0.547  0.00  0.00    +0.292 HD
ENDBRANCH  14  16
ENDBRANCH   1  12
BRANCH   3  18
ATOM     18  C   UNL     1       3.698   3.543  -3.644  0.00  0.00    +0.436 C 
ATOM     19  F   UNL     1       3.797   2.294  -4.265  0.00  0.00    -0.166 F 
ATOM     20  F   UNL     1       2.882   4.382  -4.410  0.00  0.00    -0.166 F 
ATOM     21  F   UNL     1       4.972   4.110  -3.529  0.00  0.00    -0.166 F 
ENDBRANCH   3  18
BRANCH   3  22
ATOM     22  O   UNL     1       1.726   2.959  -2.372  0.00  0.00    -0.364 OA
ATOM     23  H   UNL     1       1.167   3.583  -2.855  0.00  0.00    +0.212 HD
ENDBRANCH   3  22
BRANCH   2  24
ATOM     24  C   UNL     1       5.335   2.695  -1.430  0.00  0.00    +0.173 C 
ATOM     25  O   UNL     1       5.658   3.830  -1.151  0.00  0.00    -0.292 OA
BRANCH  24  26
ATOM     26  C   UNL     1       6.366   1.689  -1.728  0.00  0.00    +0.018 A 
ATOM     27  C   UNL     1       6.004   0.356  -1.950  0.00  0.00    +0.013 A 
ATOM     28  C   UNL     1       6.976  -0.581  -2.229  0.00  0.00    +0.020 A 
ATOM     29  C   UNL     1       8.308  -0.205  -2.289  0.00  0.00    +0.041 A 
ATOM     30  C   UNL     1       8.674   1.113  -2.070  0.00  0.00    +0.020 A 
ATOM     31  C   UNL     1       7.713   2.062  -1.796  0.00  0.00    +0.013 A 
ATOM     32 CL   UNL     1       9.525  -1.393  -2.640  0.00  0.00    -0.084 Cl
ENDBRANCH  24  26
ENDBRANCH   2  24
TORSDOF 6
