REMARK  Name = ZINC01049404
REMARK  9 active torsions:
REMARK  status: ('A' for Active; 'I' for Inactive)
REMARK    1  A    between atoms: C_1  and  C_2
REMARK    2  A    between atoms: C_5  and  O_32
REMARK    3  A    between atoms: C_6  and  N_8
REMARK    4  A    between atoms: N_8  and  S_9
REMARK    5  A    between atoms: S_9  and  C_12
REMARK    6  A    between atoms: C_15  and  N_18
REMARK    7  A    between atoms: N_18  and  S_19
REMARK    8  A    between atoms: S_19  and  C_22
REMARK    9  A    between atoms: O_32  and  C_33
REMARK                            x       y       z     vdW  Elec       q    Type
REMARK                         _______ _______ _______ _____ _____    ______ ____
ROOT
ATOM      1  C   UNL     1       0.849   5.271   3.614  0.00  0.00    +0.109 A 
ATOM      2  C   UNL     1      -0.533   5.260   3.667  0.00  0.00    +0.030 A 
ATOM      3  C   UNL     1      -1.252   4.466   2.795  0.00  0.00    +0.026 A 
ATOM      4  C   UNL     1      -0.586   3.678   1.865  0.00  0.00    +0.048 A 
ATOM      5  C   UNL     1       0.802   3.688   1.818  0.00  0.00    +0.026 A 
ATOM      6  C   UNL     1       1.515   4.488   2.689  0.00  0.00    +0.030 A 
ENDROOT
BRANCH   1   7
ATOM      7  S   UNL     1       1.763   6.286   4.727  0.00  0.00    +0.072 S 
ATOM      8  O   UNL     1       3.021   6.532   4.113  0.00  0.00    -0.150 OA
ATOM      9  O   UNL     1       0.893   7.335   5.128  0.00  0.00    -0.150 OA
BRANCH   7  10
ATOM     10  N   UNL     1       2.067   5.380   6.079  0.00  0.00    -0.213 N 
ATOM     11  H   UNL     1       1.735   5.671   6.943  0.00  0.00    +0.174 HD
BRANCH  10  17
ATOM     12  C   UNL     1       5.596   2.768   3.868  0.00  0.00    +0.044 C 
ATOM     13  C   UNL     1       4.519   2.899   4.914  0.00  0.00    -0.048 A 
ATOM     14  C   UNL     1       4.258   1.846   5.771  0.00  0.00    +0.007 A 
ATOM     15  C   UNL     1       3.271   1.960   6.733  0.00  0.00    +0.048 A 
ATOM     16  C   UNL     1       2.544   3.134   6.843  0.00  0.00    +0.142 A 
ATOM     17  C   UNL     1       2.802   4.194   5.976  0.00  0.00    +0.090 A 
ATOM     18  C   UNL     1       3.794   4.071   5.014  0.00  0.00    +0.031 A 
BRANCH  16  19
ATOM     19  O   UNL     1       1.577   3.250   7.793  0.00  0.00    -0.493 OA
ATOM     20  C   UNL     1       1.368   2.124   8.647  0.00  0.00    +0.277 C 
ENDBRANCH  16  19
ENDBRANCH  10  17
ENDBRANCH   7  10
ENDBRANCH   1   7
BRANCH   4  21
ATOM     21  N   UNL     1      -1.311   2.873   0.983  0.00  0.00    -0.216 N 
ATOM     22  H   UNL     1      -2.040   2.325   1.313  0.00  0.00    +0.174 HD
BRANCH  21  23
ATOM     23  S   UNL     1      -0.925   2.855  -0.628  0.00  0.00    +0.072 S 
ATOM     24  O   UNL     1      -1.891   2.031  -1.267  0.00  0.00    -0.150 OA
ATOM     25  O   UNL     1       0.470   2.597  -0.709  0.00  0.00    -0.150 OA
BRANCH  23  26
ATOM     26  C   UNL     1      -1.172   4.489  -1.241  0.00  0.00    +0.109 A 
ATOM     27  C   UNL     1      -2.383   4.819  -1.845  0.00  0.00    +0.029 A 
ATOM     28  C   UNL     1      -2.604   6.070  -2.334  0.00  0.00    +0.010 A 
ATOM     29  C   UNL     1      -1.597   7.045  -2.230  0.00  0.00    -0.018 A 
ATOM     30  C   UNL     1      -1.788   8.347  -2.724  0.00  0.00    +0.008 A 
ATOM     31  C   UNL     1      -0.790   9.265  -2.605  0.00  0.00    +0.001 A 
ATOM     32  C   UNL     1       0.421   8.934  -2.001  0.00  0.00    +0.001 A 
ATOM     33  C   UNL     1       0.642   7.684  -1.511  0.00  0.00    +0.008 A 
ATOM     34  C   UNL     1      -0.365   6.709  -1.615  0.00  0.00    -0.016 A 
ATOM     35  C   UNL     1      -0.174   5.407  -1.122  0.00  0.00    +0.037 A 
ENDBRANCH  23  26
ENDBRANCH  21  23
ENDBRANCH   4  21
TORSDOF 7
