REMARK  Name = ZINC45947336
REMARK  8 active torsions:
REMARK  status: ('A' for Active; 'I' for Inactive)
REMARK    1  A    between atoms: C_1  and  C_2
REMARK    2  A    between atoms: C_2  and  C_3
REMARK    3  A    between atoms: C_2  and  C_4
REMARK    4  A    between atoms: C_4  and  C_6
REMARK    5  A    between atoms: C_4  and  N_13
REMARK    6  A    between atoms: C_14  and  C_16
REMARK    7  A    between atoms: N_18  and  C_25
REMARK    8  A    between atoms: C_19  and  C_22
REMARK                            x       y       z     vdW  Elec       q    Type
REMARK                         _______ _______ _______ _____ _____    ______ ____
ROOT
ATOM      1  C   UNL     1      -1.272  -4.140   1.155  0.00  0.00    +0.123 C 
ATOM      2  N   UNL     1      -1.358  -4.883   0.099  0.00  0.00    -0.178 NA
ATOM      3  N   UNL     1      -1.314  -6.250   0.362  0.00  0.00    -0.212 N 
ATOM      4  C   UNL     1      -1.178  -6.452   1.814  0.00  0.00    +0.189 C 
ATOM      5  C   UNL     1      -1.141  -5.018   2.378  0.00  0.00    +0.096 C 
ENDROOT
BRANCH   3   6
ATOM      6  C   UNL     1      -1.387  -7.264  -0.594  0.00  0.00    +0.052 A 
ATOM      7  C   UNL     1      -1.339  -8.597  -0.202  0.00  0.00    +0.025 A 
ATOM      8  C   UNL     1      -1.411  -9.597  -1.151  0.00  0.00    +0.002 A 
ATOM      9  C   UNL     1      -1.533  -9.274  -2.491  0.00  0.00    +0.000 A 
ATOM     10  C   UNL     1      -1.581  -7.949  -2.885  0.00  0.00    +0.002 A 
ATOM     11  C   UNL     1      -1.515  -6.944  -1.940  0.00  0.00    +0.025 A 
ENDBRANCH   3   6
BRANCH   4  12
ATOM     12  C   UNL     1       0.104  -7.178   2.130  0.00  0.00    +0.233 C 
ATOM     13  O   UNL     1       1.000  -7.212   1.312  0.00  0.00    -0.274 OA
ATOM     14  N   UNL     1       0.257  -7.789   3.321  0.00  0.00    -0.328 N 
ATOM     15  H   UNL     1      -0.459  -7.762   3.975  0.00  0.00    +0.145 HD
ATOM     16  H   UNL     1       1.082  -8.256   3.525  0.00  0.00    +0.145 HD
ENDBRANCH   4  12
BRANCH   1  18
ATOM     17  N   UNL     1      -1.413  -1.998   0.005  0.00  0.00    -0.303 N 
ATOM     18  C   UNL     1      -1.292  -2.677   1.163  0.00  0.00    +0.260 C 
ATOM     19  O   UNL     1      -1.198  -2.073   2.215  0.00  0.00    -0.269 OA
ATOM     20  H   UNL     1      -1.488  -2.480  -0.834  0.00  0.00    +0.150 HD
BRANCH  17  21
ATOM     21  C   UNL     1      -1.433  -0.534   0.013  0.00  0.00    +0.106 C 
BRANCH  21  22
ATOM     22  C   UNL     1      -2.162  -0.034  -1.208  0.00  0.00    -0.027 A 
ATOM     23  C   UNL     1      -1.981  -0.663  -2.426  0.00  0.00    +0.008 A 
ATOM     24  C   UNL     1      -2.650  -0.207  -3.546  0.00  0.00    +0.038 A 
ATOM     25  C   UNL     1      -3.500   0.881  -3.448  0.00  0.00    +0.123 A 
ATOM     26  C   UNL     1      -3.681   1.510  -2.228  0.00  0.00    +0.038 A 
ATOM     27  C   UNL     1      -3.015   1.049  -1.108  0.00  0.00    +0.008 A 
ATOM     28  F   UNL     1      -4.154   1.329  -4.543  0.00  0.00    -0.205 F 
ENDBRANCH  21  22
BRANCH  21  30
ATOM     29  C   UNL     1      -0.019   1.526   0.010  0.00  0.00    +0.009 C 
ATOM     30  C   UNL     1       0.002  -0.004   0.002  0.00  0.00    +0.008 C 
ATOM     31  C   UNL     1       0.742  -0.511   1.242  0.00  0.00    +0.009 C 
ENDBRANCH  21  30
ENDBRANCH  17  21
ENDBRANCH   1  18
TORSDOF 6
