REMARK  Name = ZINC22708464
REMARK  5 active torsions:
REMARK  status: ('A' for Active; 'I' for Inactive)
REMARK    1  A    between atoms: C_1  and  C_2
REMARK    2  A    between atoms: C_2  and  C_3
REMARK    3  A    between atoms: C_2  and  C_4
REMARK    4  A    between atoms: C_7  and  C_10
REMARK    5  A    between atoms: C_15  and  C_27
REMARK                            x       y       z     vdW  Elec       q    Type
REMARK                         _______ _______ _______ _____ _____    ______ ____
ROOT
ATOM      1  C   UNL     1       4.178   1.978   0.373  0.00  0.00    +0.032 C 
ATOM      2  C   UNL     1       3.233   3.120   0.752  0.00  0.00    +0.060 C 
ATOM      3  C   UNL     1       1.813   2.607   0.806  0.00  0.00    +0.020 C 
ATOM      4  C   UNL     1       1.407   1.606  -0.003  0.00  0.00    +0.039 C 
ATOM      5  C   UNL     1      -0.013   1.086   0.008  0.00  0.00    +0.158 C 
ATOM      6  N   UNL     1      -0.712   1.554   1.201  0.00  0.00    -0.301 N 
ATOM      7  C   UNL     1      -1.889   1.133   1.750  0.00  0.00    +0.069 A 
ATOM      8  C   UNL     1      -2.800   0.146   1.392  0.00  0.00    +0.028 A 
ATOM      9  C   UNL     1      -3.915  -0.007   2.200  0.00  0.00    +0.002 A 
ATOM     10  C   UNL     1      -4.126   0.783   3.317  0.00  0.00    +0.002 A 
ATOM     11  C   UNL     1      -3.236   1.771   3.695  0.00  0.00    +0.028 A 
ATOM     12  C   UNL     1      -2.100   1.943   2.895  0.00  0.00    +0.066 A 
ATOM     13  N   UNL     1      -1.059   2.794   2.983  0.00  0.00    -0.327 N 
ATOM     14  C   UNL     1      -0.234   2.571   1.996  0.00  0.00    +0.179 A 
ATOM     15  N   UNL     1       0.962   3.204   1.705  0.00  0.00    -0.290 N 
ATOM     16  C   UNL     1       2.303   0.997  -0.901  0.00  0.00    +0.164 C 
ATOM     17  O   UNL     1       1.904   0.105  -1.624  0.00  0.00    -0.292 OA
ATOM     18  C   UNL     1       3.742   1.423  -0.987  0.00  0.00    +0.088 C 
ATOM     19  H   UNL     1       1.239   4.161   2.172  0.00  0.00    +0.155 HD
ATOM     20  H   UNL     1      -1.013   3.524   3.804  0.00  0.00    +0.169 HD
ENDROOT
BRANCH   5  21
ATOM     21  C   UNL     1      -0.736   1.582  -1.218  0.00  0.00    +0.005 A 
ATOM     22  C   UNL     1      -0.952   2.864  -1.553  0.00  0.00    +0.089 A 
ATOM     23  N   UNL     1      -1.641   2.927  -2.733  0.00  0.00    -0.360 N 
ATOM     24  H   UNL     1      -1.907   3.905  -3.163  0.00  0.00    +0.165 HD
ATOM     25  C   UNL     1      -1.891   1.656  -3.198  0.00  0.00    +0.047 A 
ATOM     26  C   UNL     1      -1.330   0.757  -2.272  0.00  0.00    +0.005 A 
ATOM     27  C   UNL     1      -1.436  -0.618  -2.484  0.00  0.00    +0.010 A 
ATOM     28  C   UNL     1      -2.077  -1.086  -3.597  0.00  0.00    +0.001 A 
ATOM     29  C   UNL     1      -2.627  -0.203  -4.517  0.00  0.00    +0.002 A 
ATOM     30  C   UNL     1      -2.538   1.158  -4.324  0.00  0.00    +0.026 A 
ENDBRANCH   5  21
BRANCH   1  34
ATOM     31  C   UNL     1       8.180   3.449   0.110  0.00  0.00    -0.045 A 
ATOM     32  C   UNL     1       7.869   2.449   1.013  0.00  0.00    +0.004 A 
ATOM     33  C   UNL     1       6.574   1.974   1.098  0.00  0.00    +0.004 A 
ATOM     34  C   UNL     1       5.590   2.497   0.281  0.00  0.00    -0.043 A 
ATOM     35  C   UNL     1       5.902   3.493  -0.626  0.00  0.00    +0.004 A 
ATOM     36  C   UNL     1       7.196   3.973  -0.708  0.00  0.00    +0.004 A 
BRANCH  31  38
ATOM     37  C   UNL     1      10.127   3.741  -1.398  0.00  0.00    +0.012 C 
ATOM     38  C   UNL     1       9.592   3.968   0.017  0.00  0.00    +0.013 C 
ATOM     39  C   UNL     1       9.607   5.465   0.333  0.00  0.00    +0.012 C 
ENDBRANCH  31  38
ENDBRANCH   1  34
TORSDOF 3
