REMARK  Name = ZINC39677012
REMARK  7 active torsions:
REMARK  status: ('A' for Active; 'I' for Inactive)
REMARK    1  A    between atoms: C_1  and  C_2
REMARK    2  A    between atoms: C_5  and  C_34
REMARK    3  A    between atoms: C_6  and  C_8
REMARK    4  A    between atoms: C_8  and  C_9
REMARK    5  A    between atoms: C_9  and  N_10
REMARK    6  A    between atoms: C_11  and  C_13
REMARK    7  A    between atoms: C_24  and  C_26
REMARK                            x       y       z     vdW  Elec       q    Type
REMARK                         _______ _______ _______ _____ _____    ______ ____
ROOT
ATOM      1  C   UNL     1       2.651  -5.696   6.064  0.00  0.00    +0.100 C 
ATOM      2  C   UNL     1       2.200  -4.617   7.074  0.00  0.00    +0.121 C 
ATOM      3  N   UNL     1       3.097  -4.798   8.240  0.00  0.00    -0.296 N 
ATOM      4  C   UNL     1       4.422  -5.093   7.644  0.00  0.00    +0.115 C 
ATOM      5  C   UNL     1       4.110  -6.005   6.441  0.00  0.00    -0.004 C 
ATOM      6  C   UNL     1       5.038  -5.675   5.275  0.00  0.00    -0.010 C 
ATOM      7  C   UNL     1       6.475  -6.046   5.653  0.00  0.00    -0.082 C 
ATOM      8  N   UNL     1       6.546  -7.477   5.972  0.00  0.00    +0.379 N 
ATOM      9  C   UNL     1       5.723  -7.768   7.152  0.00  0.00    -0.082 C 
ATOM     10  C   UNL     1       4.254  -7.471   6.838  0.00  0.00    -0.010 C 
ATOM     11  C   UNL     1       2.779  -4.714   9.547  0.00  0.00    +0.249 C 
ATOM     12  O   UNL     1       3.651  -4.796  10.391  0.00  0.00    -0.270 OA
ATOM     13  H   UNL     1       6.207  -8.012   5.186  0.00  0.00    -0.086 HD
ATOM     14  H   UNL     1       7.504  -7.731   6.161  0.00  0.00    -0.086 HD
ENDROOT
BRANCH  11  15
ATOM     15  C   UNL     1       1.373  -4.522   9.955  0.00  0.00    +0.073 A 
ATOM     16  C   UNL     1       0.517  -3.741   9.175  0.00  0.00    +0.036 A 
ATOM     17  C   UNL     1      -0.796  -3.567   9.561  0.00  0.00    +0.042 A 
ATOM     18  C   UNL     1      -1.267  -4.163  10.719  0.00  0.00    +0.023 A 
ATOM     19  C   UNL     1      -0.427  -4.937  11.497  0.00  0.00    +0.040 A 
ATOM     20  C   UNL     1       0.890  -5.126  11.120  0.00  0.00    +0.136 A 
ATOM     21  F   UNL     1       1.709  -5.887  11.878  0.00  0.00    -0.205 F 
ATOM     22 CL   UNL     1      -1.861  -2.596   8.592  0.00  0.00    -0.084 Cl
ENDBRANCH  11  15
BRANCH   1  24
ATOM     23  N   UNL     1       2.347  -6.002   3.628  0.00  0.00    -0.315 N 
ATOM     24  C   UNL     1       2.575  -5.161   4.657  0.00  0.00    +0.218 C 
ATOM     25  O   UNL     1       2.718  -3.975   4.450  0.00  0.00    -0.275 OA
ATOM     26  H   UNL     1       2.232  -6.951   3.794  0.00  0.00    +0.149 HD
BRANCH  23  27
ATOM     27  C   UNL     1       2.272  -5.483   2.260  0.00  0.00    +0.109 C 
BRANCH  27  28
ATOM     28  C   UNL     1       2.007  -6.636   1.291  0.00  0.00    +0.054 C 
BRANCH  28  34
ATOM     29  C   UNL     1      -0.704  -4.962  -2.568  0.00  0.00    +0.044 C 
ATOM     30  C   UNL     1       0.633  -5.302  -1.963  0.00  0.00    -0.050 A 
ATOM     31  C   UNL     1       1.790  -5.123  -2.698  0.00  0.00    +0.003 A 
ATOM     32  C   UNL     1       3.017  -5.435  -2.143  0.00  0.00    +0.004 A 
ATOM     33  C   UNL     1       3.087  -5.924  -0.852  0.00  0.00    -0.047 A 
ATOM     34  C   UNL     1       1.931  -6.102  -0.116  0.00  0.00    -0.043 A 
ATOM     35  C   UNL     1       0.704  -5.786  -0.670  0.00  0.00    +0.007 A 
ATOM     36  C   UNL     1       4.425  -6.265  -0.247  0.00  0.00    +0.044 C 
ENDBRANCH  28  34
ENDBRANCH  27  28
ENDBRANCH  23  27
ENDBRANCH   1  24
TORSDOF 5
