REMARK  Name = ZINC08446391
REMARK  17 active torsions:
REMARK  status: ('A' for Active; 'I' for Inactive)
REMARK    1  A    between atoms: C_1  and  C_2
REMARK    2  A    between atoms: C_2  and  O_3
REMARK    3  A    between atoms: O_3  and  C_4
REMARK    4  A    between atoms: C_4  and  O_6
REMARK    5  A    between atoms: O_6  and  C_7
REMARK    6  A    between atoms: C_11  and  C_42
REMARK    7  A    between atoms: C_16  and  C_41
REMARK    8  A    between atoms: C_22  and  O_27
REMARK    9  A    between atoms: C_24  and  O_26
REMARK   10  A    between atoms: C_30  and  C_32
REMARK   11  A    between atoms: C_32  and  C_34
REMARK   12  A    between atoms: C_32  and  C_35
REMARK   13  A    between atoms: C_35  and  C_36
REMARK   14  A    between atoms: C_36  and  C_37
REMARK   15  A    between atoms: C_37  and  C_38
REMARK   16  A    between atoms: C_38  and  C_39
REMARK   17  A    between atoms: C_38  and  C_40
REMARK                            x       y       z     vdW  Elec       q    Type
REMARK                         _______ _______ _______ _____ _____    ______ ____
ROOT
ATOM      1  C   UNL     1      -7.119   2.744   3.988  0.00  0.00    +0.183 C 
ATOM      2  C   UNL     1      -7.419   2.523   2.504  0.00  0.00    +0.045 C 
ATOM      3  C   UNL     1      -6.150   2.049   1.793  0.00  0.00    +0.013 C 
ATOM      4  C   UNL     1      -5.057   3.109   1.940  0.00  0.00    +0.002 C 
ATOM      5  C   UNL     1      -3.778   2.622   1.251  0.00  0.00    +0.001 C 
ATOM      6  C   UNL     1      -4.079   2.405  -0.236  0.00  0.00    +0.005 C 
ATOM      7  C   UNL     1      -2.839   1.919  -0.944  0.00  0.00    +0.007 C 
ATOM      8  C   UNL     1      -1.678   2.910  -0.831  0.00  0.00    -0.026 C 
ATOM      9  C   UNL     1      -1.437   3.301   0.637  0.00  0.00    -0.001 C 
ATOM     10  C   UNL     1      -2.694   3.692   1.374  0.00  0.00    -0.001 C 
ATOM     11  C   UNL     1      -2.396   3.920   2.858  0.00  0.00    +0.038 C 
ATOM     12  C   UNL     1      -3.666   4.395   3.567  0.00  0.00    +0.147 C 
ATOM     13  C   UNL     1      -4.757   3.332   3.423  0.00  0.00    +0.101 C 
ATOM     14  C   UNL     1      -6.026   3.805   4.135  0.00  0.00    +0.082 C 
ATOM     15  C   UNL     1      -0.778   2.046   1.241  0.00  0.00    +0.004 C 
ATOM     16  C   UNL     1       0.166   1.559   0.118  0.00  0.00    +0.004 C 
ATOM     17  C   UNL     1      -0.388   2.129  -1.201  0.00  0.00    -0.002 C 
ATOM     18  C   UNL     1      -1.872   4.141  -1.720  0.00  0.00    +0.012 C 
ATOM     19  C   UNL     1      -5.531   4.421   1.312  0.00  0.00    +0.014 C 
ENDROOT
BRANCH  13  20
ATOM     20  O   UNL     1      -4.310   2.108   4.009  0.00  0.00    -0.385 OA
ATOM     21  H   UNL     1      -4.101   2.176   4.950  0.00  0.00    +0.210 HD
ENDBRANCH  13  20
BRANCH  12  22
ATOM     22  O   UNL     1      -4.111   5.618   2.979  0.00  0.00    -0.389 OA
ATOM     23  H   UNL     1      -3.468   6.338   3.033  0.00  0.00    +0.210 HD
ENDBRANCH  12  22
BRANCH  17  24
ATOM     24  C   UNL     1       0.634   3.074  -1.835  0.00  0.00    -0.010 C 
ATOM     25  C   UNL     1       1.862   2.275  -2.276  0.00  0.00    +0.008 C 
BRANCH  24  26
ATOM     26  C   UNL     1       1.054   4.132  -0.813  0.00  0.00    +0.003 C 
BRANCH  26  27
ATOM     27  C   UNL     1       2.028   5.115  -1.466  0.00  0.00    +0.001 C 
BRANCH  27  28
ATOM     28  C   UNL     1       2.448   6.173  -0.443  0.00  0.00    +0.003 C 
BRANCH  28  29
ATOM     29  C   UNL     1       3.422   7.155  -1.096  0.00  0.00    -0.017 C 
ATOM     30  C   UNL     1       3.744   8.283  -0.114  0.00  0.00    +0.007 C 
ATOM     31  C   UNL     1       4.711   6.422  -1.472  0.00  0.00    +0.007 C 
ENDBRANCH  28  29
ENDBRANCH  27  28
ENDBRANCH  26  27
ENDBRANCH  24  26
ENDBRANCH  17  24
BRANCH   1  32
ATOM     32  O   UNL     1      -8.323   3.193   4.664  0.00  0.00    -0.430 OA
BRANCH  32  33
ATOM     33  C   UNL     1      -9.125   2.243   5.178  0.00  0.00    +0.510 C 
ATOM     34  O   UNL     1      -8.828   1.071   5.065  0.00  0.00    -0.203 OA
BRANCH  33  35
ATOM     35  O   UNL     1     -10.257   2.591   5.816  0.00  0.00    -0.434 OA
BRANCH  35  37
ATOM     36  C   UNL     1     -12.309   2.099   7.032  0.00  0.00    +0.048 C 
ATOM     37  C   UNL     1     -11.074   1.513   6.345  0.00  0.00    +0.232 C 
ENDBRANCH  35  37
ENDBRANCH  33  35
ENDBRANCH  32  33
ENDBRANCH   1  32
TORSDOF 11
