REMARK  Name = ZINC39710922
REMARK  9 active torsions:
REMARK  status: ('A' for Active; 'I' for Inactive)
REMARK    1  A    between atoms: C_1  and  C_2
REMARK    2  A    between atoms: C_8  and  C_14
REMARK    3  A    between atoms: C_14  and  C_16
REMARK    4  A    between atoms: C_14  and  N_27
REMARK    5  A    between atoms: N_21  and  C_22
REMARK    6  A    between atoms: N_27  and  C_28
REMARK    7  A    between atoms: N_27  and  C_34
REMARK    8  A    between atoms: C_28  and  C_29
REMARK    9  A    between atoms: C_34  and  C_35
REMARK                            x       y       z     vdW  Elec       q    Type
REMARK                         _______ _______ _______ _____ _____    ______ ____
ROOT
ATOM      1  C   UNL     1       7.854   7.070   8.817  0.00  0.00    -0.009 C 
ENDROOT
BRANCH   1   9
ATOM      2  C   UNL     1       7.391   1.081   7.554  0.00  0.00    +0.045 C 
ATOM      3  C   UNL     1       8.495   1.883   8.195  0.00  0.00    -0.029 A 
ATOM      4  C   UNL     1       9.480   1.247   8.880  0.00  0.00    +0.005 A 
ATOM      5  C   UNL     1      10.530   1.929   9.496  0.00  0.00    +0.001 A 
ATOM      6  C   UNL     1      10.623   3.282   9.441  0.00  0.00    +0.009 A 
ATOM      7  C   UNL     1       9.594   4.031   8.718  0.00  0.00    -0.007 A 
ATOM      8  C   UNL     1       9.646   5.391   8.637  0.00  0.00    -0.006 C 
ATOM      9  C   UNL     1       8.539   6.085   7.868  0.00  0.00    +0.088 C 
ATOM     10  C   UNL     1       7.467   5.212   7.255  0.00  0.00    +0.223 C 
ATOM     11  O   UNL     1       6.555   5.716   6.627  0.00  0.00    -0.275 OA
ATOM     12  N   UNL     1       7.526   3.899   7.403  0.00  0.00    -0.284 N 
ATOM     13  C   UNL     1       8.500   3.285   8.073  0.00  0.00    +0.043 A 
ATOM     14  H   UNL     1       6.828   3.357   7.001  0.00  0.00    +0.155 HD
ENDBRANCH   1   9
BRANCH   1  15
ATOM     15  C   UNL     1       7.016   6.297   9.837  0.00  0.00    +0.205 C 
ATOM     16  N   UNL     1       7.378   6.693  11.205  0.00  0.00    -0.152 NA
ATOM     17  N   UNL     1       7.806   5.706  11.806  0.00  0.00    -0.070 NA
ATOM     18  N   UNL     1       7.812   4.553  11.021  0.00  0.00    -0.179 N 
ATOM     19  N   UNL     1       7.326   4.854   9.772  0.00  0.00    -0.185 NA
ATOM     20  H   UNL     1       8.111   3.678  11.312  0.00  0.00    +0.191 HD
BRANCH  19  21
ATOM     21  C   UNL     1       6.122   4.069   9.471  0.00  0.00    +0.080 C 
ATOM     22  C   UNL     1       4.860   4.919   9.722  0.00  0.00    +0.021 C 
ATOM     23  C   UNL     1       3.836   3.916  10.309  0.00  0.00    +0.002 C 
ATOM     24  C   UNL     1       4.718   3.015  11.209  0.00  0.00    +0.002 C 
ATOM     25  C   UNL     1       6.031   2.858  10.416  0.00  0.00    +0.021 C 
ENDBRANCH  19  21
ENDBRANCH   1  15
BRANCH   1  26
ATOM     26  N   UNL     1       6.983   7.967   8.047  0.00  0.00    +0.391 N 
ATOM     27  H   UNL     1       6.180   7.454   7.716  0.00  0.00    -0.080 HD
BRANCH  26  28
ATOM     28  C   UNL     1       7.727   8.505   6.899  0.00  0.00    -0.002 C 
BRANCH  28  29
ATOM     29  C   UNL     1       6.768   8.809   5.777  0.00  0.00    +0.089 A 
ATOM     30  C   UNL     1       5.433   8.932   5.894  0.00  0.00    +0.042 A 
ATOM     31  C   UNL     1       4.933   9.217   4.603  0.00  0.00    +0.041 A 
ATOM     32  C   UNL     1       5.992   9.251   3.774  0.00  0.00    +0.195 A 
ATOM     33  O   UNL     1       7.101   9.009   4.492  0.00  0.00    -0.470 OA
ENDBRANCH  28  29
ENDBRANCH  26  28
BRANCH  26  34
ATOM     34  C   UNL     1       6.539   9.074   8.904  0.00  0.00    -0.046 C 
BRANCH  34  35
ATOM     35  C   UNL     1       6.623   8.648  10.371  0.00  0.00    +0.102 C 
ATOM     36  C   UNL     1       5.868   9.664  11.256  0.00  0.00    +0.032 C 
ATOM     37  C   UNL     1       6.788   9.762  12.503  0.00  0.00    +0.030 C 
ATOM     38  C   UNL     1       8.184   9.589  11.854  0.00  0.00    +0.160 C 
ATOM     39  O   UNL     1       7.991   8.634  10.796  0.00  0.00    -0.378 OA
ENDBRANCH  34  35
ENDBRANCH  26  34
ENDBRANCH   1  26
TORSDOF 8
