REMARK  Name = ZINC02667760
REMARK  10 active torsions:
REMARK  status: ('A' for Active; 'I' for Inactive)
REMARK    1  A    between atoms: C_1  and  C_2
REMARK    2  A    between atoms: C_2  and  O_3
REMARK    3  A    between atoms: O_3  and  C_4
REMARK    4  A    between atoms: C_4  and  C_6
REMARK    5  A    between atoms: C_7  and  C_34
REMARK    6  A    between atoms: C_11  and  C_20
REMARK    7  A    between atoms: C_12  and  O_19
REMARK    8  A    between atoms: C_20  and  C_22
REMARK    9  A    between atoms: C_20  and  N_65
REMARK   10  A    between atoms: C_25  and  C_28
REMARK                            x       y       z     vdW  Elec       q    Type
REMARK                         _______ _______ _______ _____ _____    ______ ____
ROOT
ATOM      1  C   UNL     1       4.077   2.695  -2.507  0.00  0.00    +0.108 A 
ATOM      2  C   UNL     1       5.183   3.289  -1.979  0.00  0.00    +0.117 A 
ATOM      3  O   UNL     1       5.054   3.376  -0.651  0.00  0.00    -0.459 OA
ATOM      4  C   UNL     1       3.882   2.855  -0.237  0.00  0.00    +0.144 A 
ATOM      5  C   UNL     1       3.196   2.397  -1.360  0.00  0.00    +0.040 A 
ATOM      6  C   UNL     1       1.933   1.800  -1.239  0.00  0.00    -0.003 A 
ATOM      7  C   UNL     1       1.348   1.653  -0.018  0.00  0.00    +0.127 A 
ATOM      8  C   UNL     1       2.010   2.110   1.143  0.00  0.00    +0.027 A 
ATOM      9  C   UNL     1       3.288   2.709   1.035  0.00  0.00    +0.029 A 
ATOM     10  C   UNL     1       3.942   3.155   2.195  0.00  0.00    +0.012 A 
ATOM     11  C   UNL     1       3.343   3.000   3.409  0.00  0.00    +0.001 A 
ATOM     12  C   UNL     1       2.089   2.405   3.516  0.00  0.00    +0.001 A 
ATOM     13  C   UNL     1       1.427   1.962   2.411  0.00  0.00    +0.012 A 
ATOM     14  C   UNL     1       6.370   3.775  -2.770  0.00  0.00    +0.087 C 
ENDROOT
BRANCH   1  15
ATOM     15  C   UNL     1       3.815   2.409  -3.925  0.00  0.00    +0.343 C 
ATOM     16  O   UNL     1       3.250   3.234  -4.617  0.00  0.00    -0.245 OA
BRANCH  15  17
ATOM     17  O   UNL     1       4.201   1.232  -4.458  0.00  0.00    -0.461 OA
BRANCH  17  19
ATOM     18  C   UNL     1       4.419  -0.361  -6.286  0.00  0.00    +0.048 C 
ATOM     19  C   UNL     1       3.910   1.018  -5.864  0.00  0.00    +0.229 C 
ENDBRANCH  17  19
ENDBRANCH  15  17
ENDBRANCH   1  15
BRANCH   7  20
ATOM     20  O   UNL     1       0.123   1.072   0.082  0.00  0.00    -0.506 OA
ATOM     21  H   UNL     1       0.152   0.128   0.290  0.00  0.00    +0.292 HD
ENDBRANCH   7  20
BRANCH   6  22
ATOM     22  C   UNL     1       1.216   1.315  -2.473  0.00  0.00    -0.002 C 
BRANCH  22  23
ATOM     23  C   UNL     1       1.228  -0.192  -2.501  0.00  0.00    -0.057 A 
ATOM     24  C   UNL     1       0.229  -0.903  -1.863  0.00  0.00    +0.002 A 
ATOM     25  C   UNL     1       0.238  -2.285  -1.893  0.00  0.00    +0.003 A 
ATOM     26  C   UNL     1       1.251  -2.956  -2.552  0.00  0.00    -0.050 A 
ATOM     27  C   UNL     1       2.252  -2.245  -3.186  0.00  0.00    +0.003 A 
ATOM     28  C   UNL     1       2.241  -0.863  -3.160  0.00  0.00    +0.002 A 
ATOM     29  C   UNL     1       1.263  -4.463  -2.580  0.00  0.00    +0.044 C 
ENDBRANCH  22  23
BRANCH  22  35
ATOM     30  C   UNL     1      -0.884   1.397  -3.674  0.00  0.00    -0.078 C 
ATOM     31  C   UNL     1      -2.360   1.783  -3.555  0.00  0.00    -0.019 C 
ATOM     32  C   UNL     1      -2.471   3.296  -3.345  0.00  0.00    -0.004 C 
ATOM     33  C   UNL     1      -1.682   3.689  -2.093  0.00  0.00    -0.019 C 
ATOM     34  C   UNL     1      -0.226   3.247  -2.255  0.00  0.00    -0.078 C 
ATOM     35  N   UNL     1      -0.186   1.780  -2.429  0.00  0.00    +0.387 N 
ATOM     36  H   UNL     1      -0.659   1.337  -1.632  0.00  0.00    -0.080 HD
ENDBRANCH  22  35
ENDBRANCH   6  22
TORSDOF 7
