REMARK  Name = ZINC02137370
REMARK  7 active torsions:
REMARK  status: ('A' for Active; 'I' for Inactive)
REMARK    1  A    between atoms: C_1  and  N_54
REMARK    2  A    between atoms: C_8  and  O_27
REMARK    3  A    between atoms: C_10  and  C_12
REMARK    4  A    between atoms: C_12  and  C_13
REMARK    5  A    between atoms: C_13  and  C_15
REMARK    6  A    between atoms: C_16  and  C_17
REMARK    7  A    between atoms: O_27  and  C_28
REMARK                            x       y       z     vdW  Elec       q    Type
REMARK                         _______ _______ _______ _____ _____    ______ ____
ROOT
ATOM      1  C   UNL     1      -4.411   4.311  -1.467  0.00  0.00    -0.095 C 
ATOM      2  C   UNL     1      -6.794   4.743  -1.542  0.00  0.00    -0.074 C 
ATOM      3  C   UNL     1      -8.131   4.027  -1.738  0.00  0.00    +0.017 C 
ATOM      4  C   UNL     1      -8.356   3.042  -0.620  0.00  0.00    -0.040 A 
ATOM      5  C   UNL     1      -9.639   2.557  -0.416  0.00  0.00    +0.053 A 
ATOM      6  C   UNL     1      -9.894   1.644   0.593  0.00  0.00    +0.170 A 
ATOM      7  C   UNL     1      -8.853   1.210   1.409  0.00  0.00    +0.208 A 
ATOM      8  C   UNL     1      -7.571   1.698   1.203  0.00  0.00    +0.167 A 
ATOM      9  C   UNL     1      -7.322   2.617   0.188  0.00  0.00    -0.012 A 
ATOM     10  C   UNL     1      -5.914   3.120   0.008  0.00  0.00    -0.027 C 
ATOM     11  O   UNL     1      -9.352   0.321   2.318  0.00  0.00    -0.449 OA
ATOM     12  C   UNL     1     -10.778   0.527   2.313  0.00  0.00    +0.467 C 
ATOM     13  O   UNL     1     -11.046   1.029   0.991  0.00  0.00    -0.452 OA
ATOM     14  N   UNL     1      -5.758   3.712  -1.331  0.00  0.00    +0.383 N 
ATOM     15  H   UNL     1      -5.869   2.976  -2.039  0.00  0.00    -0.081 HD
ENDROOT
BRANCH   8  16
ATOM     16  O   UNL     1      -6.551   1.276   1.998  0.00  0.00    -0.491 OA
ATOM     17  C   UNL     1      -6.299   2.031   3.185  0.00  0.00    +0.277 C 
ENDBRANCH   8  16
BRANCH  10  18
ATOM     18  C   UNL     1      -4.938   1.951   0.149  0.00  0.00    +0.068 C 
BRANCH  18  19
ATOM     19  C   UNL     1      -5.345   0.841  -0.786  0.00  0.00    +0.155 C 
ATOM     20  O   UNL     1      -6.258   1.011  -1.570  0.00  0.00    -0.293 OA
BRANCH  19  21
ATOM     21  C   UNL     1      -4.671  -0.388  -0.750  0.00  0.00    +0.047 C 
ATOM     22  C   UNL     1      -5.039  -1.390  -1.594  0.00  0.00    +0.013 C 
BRANCH  22  23
ATOM     23  C   UNL     1      -4.358  -2.633  -1.558  0.00  0.00    +0.000 A 
ATOM     24  C   UNL     1      -3.310  -2.979  -0.731  0.00  0.00    +0.091 A 
ATOM     25  N   UNL     1      -2.932  -4.253  -0.990  0.00  0.00    -0.360 N 
ATOM     26  H   UNL     1      -2.213  -4.719  -0.534  0.00  0.00    +0.165 HD
ATOM     27  C   UNL     1      -3.709  -4.796  -1.992  0.00  0.00    +0.047 A 
ATOM     28  C   UNL     1      -4.633  -3.818  -2.394  0.00  0.00    +0.007 A 
ATOM     29  C   UNL     1      -5.552  -4.097  -3.402  0.00  0.00    +0.010 A 
ATOM     30  C   UNL     1      -5.550  -5.337  -4.003  0.00  0.00    +0.001 A 
ATOM     31  C   UNL     1      -4.639  -6.305  -3.608  0.00  0.00    +0.002 A 
ATOM     32  C   UNL     1      -3.724  -6.042  -2.611  0.00  0.00    +0.026 A 
ENDBRANCH  22  23
ENDBRANCH  19  21
ENDBRANCH  18  19
ENDBRANCH  10  18
TORSDOF 5
