REMARK  Name = ZINC20036535
REMARK  4 active torsions:
REMARK  status: ('A' for Active; 'I' for Inactive)
REMARK    1  A    between atoms: C_4  and  C_7
REMARK    2  A    between atoms: C_7  and  N_8
REMARK    3  A    between atoms: C_19  and  C_22
REMARK    4  A    between atoms: C_25  and  O_28
REMARK                            x       y       z     vdW  Elec       q    Type
REMARK                         _______ _______ _______ _____ _____    ______ ____
ROOT
ATOM      1  N   UNL     1       1.157   4.075   1.397  0.00  0.00    +0.386 N 
ATOM      2  C   UNL     1       0.909   5.522   1.453  0.00  0.00    -0.073 C 
ATOM      3  C   UNL     1       0.548   5.941   2.880  0.00  0.00    +0.018 C 
ATOM      4  C   UNL     1       1.617   5.396   3.821  0.00  0.00    -0.027 A 
ATOM      5  C   UNL     1       2.440   4.404   3.408  0.00  0.00    -0.021 A 
ATOM      6  S   UNL     1       3.506   4.090   4.788  0.00  0.00    -0.080 S 
ATOM      7  C   UNL     1       2.874   5.245   5.883  0.00  0.00    +0.080 A 
ATOM      8  C   UNL     1       1.834   5.871   5.176  0.00  0.00    +0.068 A 
ATOM      9  C   UNL     1       1.083   6.942   5.871  0.00  0.00    +0.248 C 
ATOM     10  O   UNL     1       0.254   7.615   5.288  0.00  0.00    -0.270 OA
ATOM     11  N   UNL     1       1.357   7.141   7.178  0.00  0.00    -0.289 N 
ATOM     12  C   UNL     1       2.161   6.225   7.981  0.00  0.00    +0.190 C 
ATOM     13  N   UNL     1       3.211   5.583   7.168  0.00  0.00    -0.316 N 
ATOM     14  C   UNL     1       2.426   3.738   2.069  0.00  0.00    -0.035 C 
ATOM     15  H   UNL     1       0.938   8.050   7.634  0.00  0.00    +0.151 HD
ATOM     16  H   UNL     1       4.205   5.398   7.601  0.00  0.00    +0.149 HD
ATOM     17  H   UNL     1       0.338   3.569   1.930  0.00  0.00    -0.081 HD
ENDROOT
BRANCH  12  18
ATOM     18  C   UNL     1       1.266   5.161   8.561  0.00  0.00    -0.009 A 
ATOM     19  C   UNL     1       1.775   3.906   8.838  0.00  0.00    +0.010 A 
ATOM     20  C   UNL     1       0.958   2.930   9.375  0.00  0.00    +0.046 A 
ATOM     21  C   UNL     1      -0.378   3.208   9.627  0.00  0.00    +0.117 A 
ATOM     22  C   UNL     1      -0.888   4.466   9.343  0.00  0.00    +0.046 A 
ATOM     23  C   UNL     1      -0.065   5.440   8.811  0.00  0.00    +0.010 A 
BRANCH  21  24
ATOM     24  O   UNL     1      -1.185   2.248  10.151  0.00  0.00    -0.507 OA
ATOM     25  H   UNL     1      -2.244   2.469  10.350  0.00  0.00    +0.292 HD
ENDBRANCH  21  24
ENDBRANCH  12  18
BRANCH   1  26
ATOM     26  C   UNL     1       1.151   3.592   0.010  0.00  0.00    -0.043 C 
BRANCH  26  30
ATOM     27  C   UNL     1       1.208  -0.679  -0.014  0.00  0.00    +0.000 A 
ATOM     28  C   UNL     1       0.002  -0.004   0.002  0.00  0.00    +0.000 A 
ATOM     29  C   UNL     1      -0.017   1.378   0.010  0.00  0.00    +0.002 A 
ATOM     30  C   UNL     1       1.171   2.086   0.002  0.00  0.00    -0.064 A 
ATOM     31  C   UNL     1       2.377   1.411  -0.014  0.00  0.00    +0.002 A 
ATOM     32  C   UNL     1       2.396   0.029  -0.021  0.00  0.00    +0.000 A 
ENDBRANCH  26  30
ENDBRANCH   1  26
TORSDOF 4
