REMARK  Name = ZINC20806573
REMARK  5 active torsions:
REMARK  status: ('A' for Active; 'I' for Inactive)
REMARK    1  A    between atoms: C_9  and  O_28
REMARK    2  A    between atoms: C_10  and  C_11
REMARK    3  A    between atoms: N_12  and  N_13
REMARK    4  A    between atoms: C_14  and  C_16
REMARK    5  A    between atoms: C_19  and  N_22
REMARK                            x       y       z     vdW  Elec       q    Type
REMARK                         _______ _______ _______ _____ _____    ______ ____
ROOT
ATOM      1  N   UNL     1      -2.572   8.058   0.085  0.00  0.00    -0.203 N 
ATOM      2  C   UNL     1      -2.564   9.405   0.075  0.00  0.00    +0.263 C 
ATOM      3  O   UNL     1      -1.507  10.007   0.053  0.00  0.00    -0.268 OA
ATOM      4  H   UNL     1      -3.528   7.514   0.105  0.00  0.00    +0.178 HD
ENDROOT
BRANCH   2   5
ATOM      5  C   UNL     1      -3.837  10.152   0.091  0.00  0.00    +0.038 A 
ATOM      6  C   UNL     1      -5.052   9.462   0.111  0.00  0.00    +0.015 A 
ATOM      7  C   UNL     1      -6.238  10.161   0.132  0.00  0.00    +0.024 A 
ATOM      8  C   UNL     1      -6.227  11.553   0.121  0.00  0.00    +0.036 A 
ATOM      9  C   UNL     1      -5.019  12.242   0.096  0.00  0.00    +0.024 A 
ATOM     10  C   UNL     1      -3.830  11.549   0.081  0.00  0.00    +0.015 A 
BRANCH   8  11
ATOM     11  N   UNL     1      -7.430  12.258   0.137  0.00  0.00    -0.271 N 
ATOM     12  C   UNL     1      -7.533  13.717   0.252  0.00  0.00    +0.114 C 
ATOM     13  C   UNL     1      -8.996  13.996   0.661  0.00  0.00    +0.029 C 
ATOM     14  C   UNL     1      -9.722  12.748   0.108  0.00  0.00    +0.098 C 
ATOM     15  C   UNL     1      -8.645  11.688   0.044  0.00  0.00    +0.220 C 
ATOM     16  O   UNL     1      -8.847  10.498  -0.073  0.00  0.00    -0.275 OA
ENDBRANCH   8  11
ENDBRANCH   2   5
BRANCH   1  18
ATOM     17  C   UNL     1      -1.372   6.050   0.079  0.00  0.00    +0.142 C 
ATOM     18  N   UNL     1      -1.364   7.349   0.070  0.00  0.00    -0.187 NA
BRANCH  17  28
ATOM     19  C   UNL     1      -0.011   1.076   0.092  0.00  0.00    +0.001 A 
ATOM     20  C   UNL     1      -1.233   1.745   0.102  0.00  0.00    +0.001 A 
ATOM     21  C   UNL     1      -1.285   3.107   0.099  0.00  0.00    +0.009 A 
ATOM     22  C   UNL     1      -0.095   3.845   0.074  0.00  0.00    -0.006 A 
ATOM     23  C   UNL     1       1.149   3.168   0.058  0.00  0.00    -0.017 A 
ATOM     24  C   UNL     1       1.164   1.762   0.068  0.00  0.00    +0.008 A 
ATOM     25  C   UNL     1       2.342   3.910   0.033  0.00  0.00    +0.012 A 
ATOM     26  C   UNL     1       2.315   5.270   0.024  0.00  0.00    +0.046 A 
ATOM     27  C   UNL     1       1.117   5.981   0.038  0.00  0.00    +0.126 A 
ATOM     28  C   UNL     1      -0.104   5.306   0.063  0.00  0.00    +0.044 A 
BRANCH  27  29
ATOM     29  O   UNL     1       1.138   7.338   0.028  0.00  0.00    -0.506 OA
ATOM     30  H   UNL     1       0.194   7.903   0.039  0.00  0.00    +0.292 HD
ENDBRANCH  27  29
ENDBRANCH  17  28
ENDBRANCH   1  18
TORSDOF 5
