REMARK  Name = ZINC47534400
REMARK  6 active torsions:
REMARK  status: ('A' for Active; 'I' for Inactive)
REMARK    1  A    between atoms: C_1  and  C_2
REMARK    2  A    between atoms: C_2  and  C_4
REMARK    3  A    between atoms: C_2  and  N_16
REMARK    4  A    between atoms: C_17  and  C_19
REMARK    5  A    between atoms: C_19  and  O_20
REMARK    6  A    between atoms: O_20  and  C_21
REMARK                            x       y       z     vdW  Elec       q    Type
REMARK                         _______ _______ _______ _____ _____    ______ ____
ROOT
ATOM      1  C   UNL     1      -0.019   1.526   0.010  0.00  0.00    +0.033 C 
ATOM      2  C   UNL     1       0.002  -0.004   0.002  0.00  0.00    +0.100 C 
ENDROOT
BRANCH   2   3
ATOM      3  C   UNL     1       0.707  -0.490  -1.238  0.00  0.00    -0.025 A 
ATOM      4  C   UNL     1       0.034  -0.520  -2.447  0.00  0.00    +0.007 A 
ATOM      5  C   UNL     1       0.672  -0.964  -3.589  0.00  0.00    +0.028 A 
ATOM      6  C   UNL     1       1.993  -1.381  -3.523  0.00  0.00    +0.067 A 
ATOM      7  C   UNL     1       2.672  -1.350  -2.304  0.00  0.00    +0.067 A 
ATOM      8  C   UNL     1       2.025  -0.898  -1.164  0.00  0.00    +0.033 A 
ATOM      9  N   UNL     1       3.960  -1.820  -2.549  0.00  0.00    -0.306 N 
ATOM     10  H   UNL     1       4.665  -1.913  -1.890  0.00  0.00    +0.170 HD
ATOM     11  C   UNL     1       4.060  -2.122  -3.857  0.00  0.00    +0.325 A 
ATOM     12  O   UNL     1       5.057  -2.559  -4.402  0.00  0.00    -0.247 OA
ATOM     13  N   UNL     1       2.889  -1.868  -4.472  0.00  0.00    -0.306 N 
ATOM     14  H   UNL     1       2.702  -2.002  -5.414  0.00  0.00    +0.170 HD
ENDBRANCH   2   3
BRANCH   2  15
ATOM     15  N   UNL     1      -1.372  -0.511   0.012  0.00  0.00    -0.306 N 
ATOM     16  C   UNL     1      -2.029  -0.655   1.181  0.00  0.00    +0.251 C 
ATOM     17  O   UNL     1      -1.481  -0.365   2.224  0.00  0.00    -0.272 OA
ATOM     18  H   UNL     1      -1.810  -0.743  -0.822  0.00  0.00    +0.149 HD
BRANCH  16  19
ATOM     19  C   UNL     1      -3.442  -1.177   1.191  0.00  0.00    +0.324 C 
BRANCH  19  20
ATOM     20  O   UNL     1      -3.917  -1.239   2.538  0.00  0.00    -0.481 OA
BRANCH  20  21
ATOM     21  C   UNL     1      -5.185  -1.692   2.725  0.00  0.00    +0.140 A 
ATOM     22  C   UNL     1      -5.954  -2.074   1.636  0.00  0.00    +0.048 A 
ATOM     23  C   UNL     1      -7.242  -2.534   1.828  0.00  0.00    +0.023 A 
ATOM     24  C   UNL     1      -7.767  -2.614   3.106  0.00  0.00    +0.043 A 
ATOM     25  C   UNL     1      -7.002  -2.233   4.194  0.00  0.00    +0.043 A 
ATOM     26  C   UNL     1      -5.710  -1.778   4.007  0.00  0.00    +0.084 A 
ATOM     27 CL   UNL     1      -4.748  -1.307   5.373  0.00  0.00    -0.080 Cl
ATOM     28 CL   UNL     1      -9.386  -3.191   3.344  0.00  0.00    -0.083 Cl
ENDBRANCH  20  21
ENDBRANCH  19  20
ENDBRANCH  16  19
ENDBRANCH   2  15
TORSDOF 5
