REMARK  Name = ZINC63751601
REMARK  10 active torsions:
REMARK  status: ('A' for Active; 'I' for Inactive)
REMARK    1  A    between atoms: C_1  and  C_2
REMARK    2  A    between atoms: C_6  and  C_15
REMARK    3  A    between atoms: C_13  and  C_14
REMARK    4  A    between atoms: C_15  and  S_16
REMARK    5  A    between atoms: S_16  and  C_17
REMARK    6  A    between atoms: C_20  and  N_23
REMARK    7  A    between atoms: C_24  and  C_26
REMARK    8  A    between atoms: C_26  and  C_27
REMARK    9  A    between atoms: C_30  and  O_33
REMARK   10  A    between atoms: O_33  and  C_34
REMARK                            x       y       z     vdW  Elec       q    Type
REMARK                         _______ _______ _______ _____ _____    ______ ____
ROOT
ATOM      1  C   UNL     1       2.680  -4.790  -5.451  0.00  0.00    +0.008 A 
ATOM      2  C   UNL     1       3.656  -5.381  -4.659  0.00  0.00    +0.016 A 
ATOM      3  C   UNL     1       4.810  -5.872  -5.237  0.00  0.00    +0.024 A 
ATOM      4  C   UNL     1       4.994  -5.776  -6.610  0.00  0.00    +0.033 A 
ATOM      5  C   UNL     1       4.018  -5.186  -7.402  0.00  0.00    +0.024 A 
ATOM      6  C   UNL     1       2.862  -4.699  -6.826  0.00  0.00    +0.016 A 
ENDROOT
BRANCH   4   7
ATOM      7  N   UNL     1       6.165  -6.275  -7.197  0.00  0.00    -0.285 N 
ATOM      8  C   UNL     1       6.767  -7.363  -6.678  0.00  0.00    +0.222 C 
ATOM      9  O   UNL     1       6.246  -7.968  -5.765  0.00  0.00    -0.275 OA
ATOM     10  H   UNL     1       6.542  -5.837  -7.975  0.00  0.00    +0.155 HD
BRANCH   8  11
ATOM     11  C   UNL     1       8.089  -7.829  -7.233  0.00  0.00    +0.131 C 
BRANCH  11  12
ATOM     12  C   UNL     1       8.543  -9.056  -6.485  0.00  0.00    -0.038 A 
ATOM     13  C   UNL     1       9.323  -8.923  -5.351  0.00  0.00    +0.007 A 
ATOM     14  C   UNL     1       9.742 -10.046  -4.664  0.00  0.00    +0.046 A 
ATOM     15  C   UNL     1       9.379 -11.307  -5.112  0.00  0.00    +0.120 A 
ATOM     16  C   UNL     1       8.596 -11.438  -6.250  0.00  0.00    +0.046 A 
ATOM     17  C   UNL     1       8.176 -10.312  -6.931  0.00  0.00    +0.007 A 
BRANCH  15  18
ATOM     18  O   UNL     1       9.790 -12.414  -4.438  0.00  0.00    -0.495 OA
ATOM     19  C   UNL     1       9.378 -13.680  -4.957  0.00  0.00    +0.277 C 
ENDBRANCH  15  18
ENDBRANCH  11  12
ENDBRANCH   8  11
ENDBRANCH   4   7
BRANCH   1  20
ATOM     20  S   UNL     1       1.207  -4.163  -4.714  0.00  0.00    -0.123 S 
BRANCH  20  21
ATOM     21  C   UNL     1       1.424  -4.502  -2.945  0.00  0.00    +0.108 C 
BRANCH  21  27
ATOM     22  C   UNL     1      -0.109   1.988  -0.637  0.00  0.00    +0.044 C 
ATOM     23  C   UNL     1       0.005   0.496  -0.464  0.00  0.00    -0.045 A 
ATOM     24  C   UNL     1      -0.013  -0.297  -1.557  0.00  0.00    +0.030 A 
ATOM     25  C   UNL     1       0.098  -1.755  -1.380  0.00  0.00    +0.058 A 
ATOM     26  N   UNL     1       0.086  -2.552  -2.409  0.00  0.00    -0.372 N 
ATOM     27  C   UNL     1       0.200  -4.000  -2.176  0.00  0.00    +0.176 C 
ATOM     28  C   UNL     1       0.325  -4.480  -0.748  0.00  0.00    +0.240 C 
ATOM     29  O   UNL     1       0.422  -5.666  -0.503  0.00  0.00    -0.273 OA
ATOM     30  N   UNL     1       0.328  -3.583   0.240  0.00  0.00    -0.282 N 
ATOM     31  C   UNL     1       0.225  -2.286   0.001  0.00  0.00    +0.057 A 
ATOM     32  C   UNL     1       0.232  -1.364   1.071  0.00  0.00    +0.029 A 
ATOM     33  C   UNL     1       0.131  -0.035   0.831  0.00  0.00    -0.046 A 
ATOM     34  C   UNL     1       0.149   0.913   2.001  0.00  0.00    +0.044 C 
ATOM     35  H   UNL     1       0.003  -2.199  -3.309  0.00  0.00    +0.160 HD
ATOM     36  H   UNL     1       0.408  -3.889   1.157  0.00  0.00    +0.155 HD
ENDBRANCH  21  27
ENDBRANCH  20  21
ENDBRANCH   1  20
TORSDOF 7
