REMARK  Name = ZINC00856594
REMARK  6 active torsions:
REMARK  status: ('A' for Active; 'I' for Inactive)
REMARK    1  A    between atoms: C_1  and  C_2
REMARK    2  A    between atoms: C_5  and  C_7
REMARK    3  A    between atoms: C_12  and  C_16
REMARK    4  A    between atoms: C_12  and  C_17
REMARK    5  A    between atoms: C_21  and  C_27
REMARK    6  A    between atoms: C_22  and  C_26
REMARK                            x       y       z     vdW  Elec       q    Type
REMARK                         _______ _______ _______ _____ _____    ______ ____
ROOT
ATOM      1  C   UNL     1       0.623   3.267   1.845  0.00  0.00    +0.143 C 
ATOM      2  C   UNL     1       1.516   2.633   0.805  0.00  0.00    +0.037 C 
ATOM      3  C   UNL     1       1.184   1.611  -0.001  0.00  0.00    +0.017 C 
ATOM      4  C   UNL     1       2.185   1.072  -1.011  0.00  0.00    +0.058 C 
ATOM      5  C   UNL     1       3.087   2.201  -1.505  0.00  0.00    -0.023 C 
ATOM      6  C   UNL     1       3.819   2.780  -0.288  0.00  0.00    +0.086 C 
ATOM      7  C   UNL     1       2.797   3.227   0.714  0.00  0.00    +0.163 C 
ATOM      8  O   UNL     1       3.078   4.133   1.474  0.00  0.00    -0.292 OA
ATOM      9  C   UNL     1       2.239   3.290  -2.166  0.00  0.00    +0.011 C 
ATOM     10  C   UNL     1       4.103   1.652  -2.509  0.00  0.00    +0.011 C 
ATOM     11  N   UNL     1      -0.011   0.966   0.007  0.00  0.00    -0.316 N 
ATOM     12  C   UNL     1      -1.253   1.593   0.017  0.00  0.00    +0.053 A 
ATOM     13  C   UNL     1      -2.160   1.467  -1.014  0.00  0.00    +0.028 A 
ATOM     14  C   UNL     1      -3.403   2.066  -0.904  0.00  0.00    -0.046 A 
ATOM     15  C   UNL     1      -3.733   2.780   0.234  0.00  0.00    -0.046 A 
ATOM     16  C   UNL     1      -2.816   2.928   1.260  0.00  0.00    +0.028 A 
ATOM     17  C   UNL     1      -1.561   2.350   1.142  0.00  0.00    +0.050 A 
ATOM     18  N   UNL     1      -0.589   2.526   2.123  0.00  0.00    -0.331 N 
ATOM     19  C   UNL     1      -5.100   3.403   0.356  0.00  0.00    +0.044 C 
ATOM     20  C   UNL     1      -4.400   1.940  -2.027  0.00  0.00    +0.044 C 
ATOM     21  H   UNL     1       0.002  -0.004   0.002  0.00  0.00    +0.152 HD
ATOM     22  H   UNL     1      -0.726   2.146   3.005  0.00  0.00    +0.147 HD
ENDROOT
BRANCH   1  27
ATOM     23  C   UNL     1      -1.476   7.980  -0.495  0.00  0.00    +0.051 C 
ATOM     24  C   UNL     1      -0.757   6.890   0.257  0.00  0.00    -0.013 A 
ATOM     25  C   UNL     1       0.249   6.996   1.160  0.00  0.00    +0.011 A 
ATOM     26  C   UNL     1       0.757   5.846   1.735  0.00  0.00    +0.013 A 
ATOM     27  C   UNL     1       0.242   4.646   1.371  0.00  0.00    +0.015 A 
ATOM     28  S   UNL     1      -1.010   5.124   0.192  0.00  0.00    -0.096 S 
ENDBRANCH   1  27
TORSDOF 1
