REMARK  Name = ZINC21794169
REMARK  4 active torsions:
REMARK  status: ('A' for Active; 'I' for Inactive)
REMARK    1  A    between atoms: C_3  and  C_9
REMARK    2  A    between atoms: C_9  and  C_11
REMARK    3  A    between atoms: C_9  and  N_21
REMARK    4  A    between atoms: C_13  and  N_18
REMARK                            x       y       z     vdW  Elec       q    Type
REMARK                         _______ _______ _______ _____ _____    ______ ____
ROOT
ATOM      1  C   UNL     1       1.149   3.593   0.010  0.00  0.00    -0.012 C 
ENDROOT
BRANCH   1   4
ATOM      2  C   UNL     1       2.858   4.926  -3.082  0.00  0.00    +0.038 A 
ATOM      3  C   UNL     1       2.648   4.460  -1.797  0.00  0.00    +0.006 A 
ATOM      4  C   UNL     1       1.376   4.106  -1.389  0.00  0.00    -0.039 A 
ATOM      5  C   UNL     1       0.309   4.227  -2.262  0.00  0.00    +0.046 A 
ATOM      6  C   UNL     1       0.517   4.698  -3.546  0.00  0.00    +0.058 A 
ATOM      7  C   UNL     1       1.792   5.048  -3.957  0.00  0.00    +0.125 A 
ATOM      8  F   UNL     1       1.996   5.508  -5.210  0.00  0.00    -0.205 F 
ATOM      9 CL   UNL     1      -1.289   3.789  -1.746  0.00  0.00    -0.083 Cl
ENDBRANCH   1   4
BRANCH   1  10
ATOM     10  C   UNL     1       1.171   2.086   0.002  0.00  0.00    -0.054 A 
ATOM     11  C   UNL     1      -0.017   1.378   0.010  0.00  0.00    +0.035 A 
ATOM     12  C   UNL     1       0.002  -0.004   0.002  0.00  0.00    +0.128 A 
ATOM     13  C   UNL     1       1.208  -0.679  -0.013  0.00  0.00    +0.052 A 
ATOM     14  C   UNL     1       2.397   0.029  -0.021  0.00  0.00    +0.043 A 
ATOM     15  C   UNL     1       2.377   1.412  -0.013  0.00  0.00    +0.022 A 
ATOM     16 CL   UNL     1       3.912  -0.818  -0.039  0.00  0.00    -0.083 Cl
BRANCH  12  17
ATOM     17  N   UNL     1      -1.270  -0.761   0.011  0.00  0.00    +0.056 N 
ATOM     18  O   UNL     1      -2.332  -0.167   0.024  0.00  0.00    -0.126 OA
ATOM     19  O   UNL     1      -1.253  -1.979   0.004  0.00  0.00    -0.126 OA
ENDBRANCH  12  17
ENDBRANCH   1  10
BRANCH   1  20
ATOM     20  N   UNL     1       2.212   4.093   0.893  0.00  0.00    +0.385 N 
ATOM     21  H   UNL     1       2.046   3.719   1.914  0.00  0.00    -0.089 HD
ATOM     22  H   UNL     1       2.196   5.193   0.898  0.00  0.00    -0.089 HD
ATOM     23  H   UNL     1       3.188   3.742   0.527  0.00  0.00    -0.089 HD
ENDBRANCH   1  20
TORSDOF 4
