REMARK  Name = ZINC12559684
REMARK  9 active torsions:
REMARK  status: ('A' for Active; 'I' for Inactive)
REMARK    1  A    between atoms: C_1  and  C_2
REMARK    2  A    between atoms: C_5  and  C_8
REMARK    3  A    between atoms: C_17  and  N_20
REMARK    4  A    between atoms: N_23  and  N_24
REMARK    5  A    between atoms: C_25  and  C_26
REMARK    6  A    between atoms: C_29  and  C_32
REMARK    7  A    between atoms: C_35  and  O_38
REMARK    8  A    between atoms: O_38  and  C_39
REMARK    9  A    between atoms: C_39  and  C_41
REMARK                            x       y       z     vdW  Elec       q    Type
REMARK                         _______ _______ _______ _____ _____    ______ ____
ROOT
ATOM      1  N   UNL     1      -6.057   3.054  -0.276  0.00  0.00    -0.292 N 
ATOM      2  C   UNL     1      -6.056   1.709  -0.199  0.00  0.00    +0.320 C 
ATOM      3  O   UNL     1      -7.108   1.098  -0.204  0.00  0.00    -0.251 OA
ATOM      4  N   UNL     1      -4.889   1.039  -0.116  0.00  0.00    -0.191 N 
ATOM      5  H   UNL     1      -5.106   3.606  -0.272  0.00  0.00    +0.151 HD
ATOM      6  H   UNL     1      -4.888  -0.059  -0.053  0.00  0.00    +0.179 HD
ENDROOT
BRANCH   1  14
ATOM      7  C   UNL     1      -9.499   4.241   0.777  0.00  0.00    -0.002 C 
ATOM      8  C   UNL     1     -10.253   3.798  -0.478  0.00  0.00    +0.015 C 
ATOM      9  C   UNL     1      -9.405   4.098  -1.715  0.00  0.00    -0.008 C 
ATOM     10  C   UNL     1      -9.127   5.601  -1.791  0.00  0.00    +0.007 C 
ATOM     11  C   UNL     1      -8.372   6.044  -0.536  0.00  0.00    -0.008 C 
ATOM     12  C   UNL     1      -9.221   5.744   0.702  0.00  0.00    +0.015 C 
ATOM     13  C   UNL     1      -7.048   5.284  -0.442  0.00  0.00    +0.029 C 
ATOM     14  C   UNL     1      -7.326   3.782  -0.366  0.00  0.00    +0.037 C 
ATOM     15  C   UNL     1      -8.080   3.339  -1.621  0.00  0.00    +0.029 C 
ATOM     16  C   UNL     1      -8.175   3.482   0.871  0.00  0.00    +0.037 C 
BRANCH   7  21
ATOM     17  C   UNL     1     -12.706   3.107   5.449  0.00  0.00    +0.044 C 
ATOM     18  C   UNL     1     -11.869   3.403   4.231  0.00  0.00    -0.050 A 
ATOM     19  C   UNL     1     -12.350   4.253   3.252  0.00  0.00    +0.003 A 
ATOM     20  C   UNL     1     -11.583   4.524   2.134  0.00  0.00    +0.004 A 
ATOM     21  C   UNL     1     -10.335   3.946   1.996  0.00  0.00    -0.041 A 
ATOM     22  C   UNL     1      -9.857   3.092   2.972  0.00  0.00    +0.004 A 
ATOM     23  C   UNL     1     -10.621   2.825   4.092  0.00  0.00    +0.003 A 
ENDBRANCH   7  21
ENDBRANCH   1  14
BRANCH   4  24
ATOM     24  N   UNL     1      -3.677   1.742  -0.110  0.00  0.00    -0.186 NA
ATOM     25  C   UNL     1      -2.554   1.098  -0.031  0.00  0.00    +0.138 C 
BRANCH  25  26
ATOM     26  C   UNL     1      -1.279   1.837  -0.025  0.00  0.00    -0.005 A 
ATOM     27  C   UNL     1      -0.068   1.144   0.061  0.00  0.00    +0.010 A 
ATOM     28  C   UNL     1       1.122   1.836   0.060  0.00  0.00    +0.009 A 
ATOM     29  C   UNL     1       1.120   3.229  -0.020  0.00  0.00    -0.018 A 
ATOM     30  C   UNL     1      -0.088   3.922  -0.100  0.00  0.00    +0.009 A 
ATOM     31  C   UNL     1      -1.280   3.234  -0.100  0.00  0.00    +0.010 A 
BRANCH  29  32
ATOM     32  C   UNL     1       2.402   3.972  -0.021  0.00  0.00    -0.018 A 
ATOM     33  C   UNL     1       3.611   3.281   0.065  0.00  0.00    +0.012 A 
ATOM     34  C   UNL     1       4.802   3.975   0.058  0.00  0.00    +0.047 A 
ATOM     35  C   UNL     1       4.799   5.362  -0.022  0.00  0.00    +0.132 A 
ATOM     36  C   UNL     1       3.598   6.053  -0.101  0.00  0.00    +0.047 A 
ATOM     37  C   UNL     1       2.403   5.364  -0.101  0.00  0.00    +0.012 A 
BRANCH  35  38
ATOM     38  O   UNL     1       5.975   6.043  -0.023  0.00  0.00    -0.426 OA
BRANCH  38  39
ATOM     39  C   UNL     1       6.251   6.783   1.063  0.00  0.00    +0.309 C 
ATOM     40  O   UNL     1       5.521   6.739   2.025  0.00  0.00    -0.251 OA
ATOM     41  C   UNL     1       7.471   7.668   1.081  0.00  0.00    +0.136 C 
ENDBRANCH  38  39
ENDBRANCH  35  38
ENDBRANCH  29  32
ENDBRANCH  25  26
ENDBRANCH   4  24
TORSDOF 7
