REMARK  Name = ZINC39159078
REMARK  10 active torsions:
REMARK  status: ('A' for Active; 'I' for Inactive)
REMARK    1  A    between atoms: C_1  and  C_2
REMARK    2  A    between atoms: C_2  and  C_4
REMARK    3  A    between atoms: C_2  and  N_21
REMARK    4  A    between atoms: C_4  and  C_5
REMARK    5  A    between atoms: C_4  and  C_6
REMARK    6  A    between atoms: C_4  and  C_7
REMARK    7  A    between atoms: C_7  and  C_20
REMARK    8  A    between atoms: C_12  and  C_14
REMARK    9  A    between atoms: N_21  and  C_22
REMARK   10  A    between atoms: C_25  and  C_28
REMARK                            x       y       z     vdW  Elec       q    Type
REMARK                         _______ _______ _______ _____ _____    ______ ____
ROOT
ATOM      1  C   UNL     1       0.528  -0.075  -0.749  0.00  0.00    -0.011 C 
ATOM      2  C   UNL     1       1.740   0.857  -0.825  0.00  0.00    +0.015 C 
ATOM      3  C   UNL     1       0.999  -1.530  -0.803  0.00  0.00    +0.015 C 
ENDROOT
BRANCH   1   4
ATOM      4  C   UNL     1      -0.390   0.200  -1.913  0.00  0.00    -0.004 C 
ATOM      5  N   UNL     1      -1.566  -0.345  -1.954  0.00  0.00    -0.349 N 
ATOM      6  C   UNL     1      -1.907  -1.285  -1.047  0.00  0.00    +0.135 C 
ATOM      7  N   UNL     1      -1.138  -1.835  -0.141  0.00  0.00    -0.136 NA
ATOM      8  N   UNL     1      -1.724  -2.700   0.589  0.00  0.00    -0.152 NA
ATOM      9  C   UNL     1      -2.986  -2.883   0.303  0.00  0.00    +0.078 C 
ATOM     10  C   UNL     1      -3.267  -1.932  -0.849  0.00  0.00    +0.134 C 
ATOM     11  C   UNL     1       0.059   1.107  -3.029  0.00  0.00    +0.059 C 
ATOM     12  H   UNL     1      -2.202  -0.077  -2.636  0.00  0.00    +0.166 HD
BRANCH   9  13
ATOM     13  C   UNL     1      -3.929  -3.804   0.955  0.00  0.00    -0.002 A 
ATOM     14  C   UNL     1      -5.255  -3.881   0.516  0.00  0.00    +0.010 A 
ATOM     15  C   UNL     1      -6.133  -4.746   1.133  0.00  0.00    +0.001 A 
ATOM     16  C   UNL     1      -5.705  -5.539   2.184  0.00  0.00    +0.000 A 
ATOM     17  C   UNL     1      -4.395  -5.469   2.625  0.00  0.00    +0.001 A 
ATOM     18  C   UNL     1      -3.503  -4.613   2.014  0.00  0.00    +0.010 A 
ENDBRANCH   9  13
ENDBRANCH   1   4
BRANCH   1  20
ATOM     19  C   UNL     1      -0.331   1.675   0.813  0.00  0.00    -0.013 C 
ATOM     20  C   UNL     1      -0.223   0.170   0.561  0.00  0.00    -0.060 C 
BRANCH  20  21
ATOM     21  N   UNL     1       0.507  -0.461   1.669  0.00  0.00    +0.400 N 
ATOM     22  H   UNL     1       0.569  -1.455   1.508  0.00  0.00    -0.082 HD
ATOM     23  H   UNL     1       1.436  -0.071   1.725  0.00  0.00    -0.082 HD
BRANCH  21  24
ATOM     24  C   UNL     1      -0.205  -0.212   2.929  0.00  0.00    +0.098 C 
ATOM     25  C   UNL     1       0.503  -0.890   4.088  0.00  0.00    +0.012 C 
ATOM     26  C   UNL     1       0.852   0.130   4.895  0.00  0.00    +0.089 C 
ATOM     27  N   UNL     1       0.445   1.314   4.366  0.00  0.00    -0.156 NA
ATOM     28  N   UNL     1      -0.148   1.216   3.285  0.00  0.00    -0.199 NA
BRANCH  26  29
ATOM     29  C   UNL     1       1.579  -0.017   6.181  0.00  0.00    +0.002 A 
ATOM     30  C   UNL     1       1.956  -1.281   6.630  0.00  0.00    +0.010 A 
ATOM     31  C   UNL     1       2.631  -1.412   7.826  0.00  0.00    +0.001 A 
ATOM     32  C   UNL     1       2.934  -0.292   8.579  0.00  0.00    +0.000 A 
ATOM     33  C   UNL     1       2.563   0.966   8.137  0.00  0.00    +0.001 A 
ATOM     34  C   UNL     1       1.891   1.109   6.940  0.00  0.00    +0.010 A 
ENDBRANCH  26  29
ENDBRANCH  21  24
ENDBRANCH  20  21
ENDBRANCH   1  20
TORSDOF 6
