REMARK  Name = ZINC47533355
REMARK  8 active torsions:
REMARK  status: ('A' for Active; 'I' for Inactive)
REMARK    1  A    between atoms: C_1  and  C_2
REMARK    2  A    between atoms: C_2  and  C_3
REMARK    3  A    between atoms: C_2  and  C_4
REMARK    4  A    between atoms: C_2  and  O_5
REMARK    5  A    between atoms: O_5  and  C_6
REMARK    6  A    between atoms: N_8  and  C_9
REMARK    7  A    between atoms: C_15  and  C_17
REMARK    8  A    between atoms: C_17  and  C_22
REMARK                            x       y       z     vdW  Elec       q    Type
REMARK                         _______ _______ _______ _____ _____    ______ ____
ROOT
ATOM      1  C   UNL     1       3.700  -1.068  -3.220  0.00  0.00    +0.079 C 
ATOM      2  C   UNL     1       3.645   0.406  -3.629  0.00  0.00    +0.041 C 
ATOM      3  C   UNL     1       5.042   1.020  -3.498  0.00  0.00    +0.109 C 
ATOM      4  N   UNL     1       5.989   0.212  -4.278  0.00  0.00    -0.301 N 
ATOM      5  C   UNL     1       6.058  -1.234  -4.027  0.00  0.00    +0.109 C 
ATOM      6  C   UNL     1       4.649  -1.823  -4.153  0.00  0.00    +0.041 C 
ATOM      7  C   UNL     1       6.780   0.786  -5.206  0.00  0.00    +0.226 C 
ATOM      8  O   UNL     1       6.654   1.964  -5.466  0.00  0.00    -0.275 OA
ENDROOT
BRANCH   7   9
ATOM      9  C   UNL     1       7.822  -0.035  -5.921  0.00  0.00    +0.072 C 
ATOM     10  C   UNL     1       7.142  -1.131  -6.767  0.00  0.00    +0.021 C 
ATOM     11  C   UNL     1       7.047  -0.513  -8.184  0.00  0.00    +0.001 C 
ATOM     12  C   UNL     1       8.382   0.262  -8.309  0.00  0.00    +0.001 C 
ATOM     13  C   UNL     1       8.611   0.851  -6.901  0.00  0.00    +0.021 C 
BRANCH   9  14
ATOM     14  C   UNL     1       8.761  -0.661  -4.921  0.00  0.00    -0.032 A 
ATOM     15  C   UNL     1       9.705  -1.579  -5.341  0.00  0.00    +0.006 A 
ATOM     16  C   UNL     1      10.566  -2.153  -4.425  0.00  0.00    +0.020 A 
ATOM     17  C   UNL     1      10.482  -1.809  -3.087  0.00  0.00    +0.041 A 
ATOM     18  C   UNL     1       9.537  -0.890  -2.668  0.00  0.00    +0.020 A 
ATOM     19  C   UNL     1       8.680  -0.312  -3.586  0.00  0.00    +0.006 A 
ATOM     20 CL   UNL     1      11.563  -2.530  -1.936  0.00  0.00    -0.084 Cl
ENDBRANCH   9  14
ENDBRANCH   7   9
BRANCH   1  23
ATOM     21  C   UNL     1       1.498  -1.528  -2.283  0.00  0.00    +0.401 C 
ATOM     22  O   UNL     1       1.835  -0.935  -1.277  0.00  0.00    -0.226 OA
ATOM     23  N   UNL     1       2.359  -1.650  -3.313  0.00  0.00    -0.278 N 
ATOM     24  H   UNL     1       2.090  -2.124  -4.116  0.00  0.00    +0.152 HD
BRANCH  21  25
ATOM     25  O   UNL     1       0.266  -2.064  -2.368  0.00  0.00    -0.445 OA
BRANCH  25  27
ATOM     26  C   UNL     1      -0.810  -0.404  -0.979  0.00  0.00    +0.055 C 
ATOM     27  C   UNL     1      -0.594  -1.896  -1.238  0.00  0.00    +0.107 C 
ATOM     28  C   UNL     1       0.050  -2.539  -0.008  0.00  0.00    +0.055 C 
ATOM     29  C   UNL     1      -1.940  -2.566  -1.519  0.00  0.00    +0.055 C 
ENDBRANCH  25  27
ENDBRANCH  21  25
ENDBRANCH   1  23
TORSDOF 5
