REMARK  Name = ZINC39672814
REMARK  7 active torsions:
REMARK  status: ('A' for Active; 'I' for Inactive)
REMARK    1  A    between atoms: C_4  and  C_7
REMARK    2  A    between atoms: C_4  and  N_31
REMARK    3  A    between atoms: C_7  and  N_8
REMARK    4  A    between atoms: C_9  and  C_11
REMARK    5  A    between atoms: C_22  and  C_24
REMARK    6  A    between atoms: C_24  and  C_25
REMARK    7  A    between atoms: C_25  and  C_26
REMARK                            x       y       z     vdW  Elec       q    Type
REMARK                         _______ _______ _______ _____ _____    ______ ____
ROOT
ATOM      1  C   UNL     1       4.283  -4.205  -1.300  0.00  0.00    +0.100 C 
ATOM      2  C   UNL     1       2.935  -4.941  -1.463  0.00  0.00    +0.121 C 
ATOM      3  N   UNL     1       2.811  -5.180  -2.920  0.00  0.00    -0.300 N 
ATOM      4  C   UNL     1       4.183  -5.537  -3.352  0.00  0.00    +0.115 C 
ATOM      5  C   UNL     1       5.101  -4.602  -2.541  0.00  0.00    -0.004 C 
ATOM      6  C   UNL     1       5.450  -3.364  -3.362  0.00  0.00    -0.010 C 
ATOM      7  C   UNL     1       6.311  -3.777  -4.559  0.00  0.00    -0.082 C 
ATOM      8  N   UNL     1       7.534  -4.432  -4.081  0.00  0.00    +0.379 N 
ATOM      9  C   UNL     1       7.195  -5.671  -3.371  0.00  0.00    -0.082 C 
ATOM     10  C   UNL     1       6.371  -5.338  -2.124  0.00  0.00    -0.010 C 
ATOM     11  C   UNL     1       1.702  -5.092  -3.680  0.00  0.00    +0.216 C 
ATOM     12  O   UNL     1       1.763  -5.321  -4.870  0.00  0.00    -0.276 OA
ATOM     13  H   UNL     1       8.128  -4.649  -4.868  0.00  0.00    -0.086 HD
ATOM     14  H   UNL     1       8.024  -3.811  -3.455  0.00  0.00    -0.086 HD
ENDROOT
BRANCH   1  16
ATOM     15  N   UNL     1       4.922  -1.923  -0.591  0.00  0.00    -0.313 N 
ATOM     16  C   UNL     1       4.067  -2.714  -1.269  0.00  0.00    +0.218 C 
ATOM     17  O   UNL     1       3.124  -2.226  -1.855  0.00  0.00    -0.275 OA
ATOM     18  H   UNL     1       5.676  -2.314  -0.122  0.00  0.00    +0.149 HD
BRANCH  15  19
ATOM     19  C   UNL     1       4.711  -0.474  -0.560  0.00  0.00    +0.126 C 
BRANCH  19  23
ATOM     20  C   UNL     1       6.729   2.104  -1.891  0.00  0.00    +0.000 C 
ATOM     21  C   UNL     1       7.005   0.606  -2.029  0.00  0.00    +0.002 C 
ATOM     22  C   UNL     1       7.166  -0.013  -0.639  0.00  0.00    +0.024 C 
ATOM     23  C   UNL     1       5.881   0.196   0.164  0.00  0.00    +0.038 C 
ATOM     24  C   UNL     1       5.604   1.695   0.302  0.00  0.00    +0.024 C 
ATOM     25  C   UNL     1       5.443   2.314  -1.088  0.00  0.00    +0.002 C 
BRANCH  23  26
ATOM     26  N   UNL     1       6.035  -0.398   1.499  0.00  0.00    -0.291 NA
ATOM     27  C   UNL     1       4.792  -0.281   2.275  0.00  0.00    +0.113 C 
ATOM     28  C   UNL     1       4.978  -0.964   3.632  0.00  0.00    +0.175 C 
ATOM     29  O   UNL     1       6.094  -0.377   4.306  0.00  0.00    -0.377 OA
ATOM     30  C   UNL     1       7.322  -0.474   3.579  0.00  0.00    +0.175 C 
ATOM     31  C   UNL     1       7.160   0.214   2.221  0.00  0.00    +0.113 C 
ENDBRANCH  23  26
ENDBRANCH  19  23
ENDBRANCH  15  19
ENDBRANCH   1  16
BRANCH  11  32
ATOM     32  C   UNL     1       0.386  -4.710  -3.053  0.00  0.00    +0.096 C 
BRANCH  32  33
ATOM     33  C   UNL     1      -0.703  -4.684  -4.127  0.00  0.00    +0.013 C 
BRANCH  33  34
ATOM     34  C   UNL     1      -2.039  -4.296  -3.489  0.00  0.00    -0.011 C 
ATOM     35  C   UNL     1      -2.520  -5.418  -2.546  0.00  0.00    +0.003 C 
ATOM     36  C   UNL     1      -4.056  -5.443  -2.739  0.00  0.00    +0.000 C 
ATOM     37  C   UNL     1      -4.215  -5.178  -4.256  0.00  0.00    +0.000 C 
ATOM     38  C   UNL     1      -3.117  -4.143  -4.577  0.00  0.00    +0.003 C 
ENDBRANCH  33  34
ENDBRANCH  32  33
ENDBRANCH  11  32
TORSDOF 7
