REMARK  Name = ZINC26109485
REMARK  14 active torsions:
REMARK  status: ('A' for Active; 'I' for Inactive)
REMARK    1  A    between atoms: C_1  and  C_2
REMARK    2  A    between atoms: C_5  and  C_31
REMARK    3  A    between atoms: C_6  and  O_8
REMARK    4  A    between atoms: O_8  and  C_9
REMARK    5  A    between atoms: C_9  and  C_10
REMARK    6  A    between atoms: C_13  and  S_16
REMARK    7  A    between atoms: N_14  and  N_15
REMARK    8  A    between atoms: S_16  and  C_17
REMARK    9  A    between atoms: C_17  and  C_19
REMARK   10  A    between atoms: C_17  and  C_20
REMARK   11  A    between atoms: N_22  and  C_23
REMARK   12  A    between atoms: C_23  and  C_29
REMARK   13  A    between atoms: C_31  and  C_32
REMARK   14  A    between atoms: C_31  and  C_33
REMARK                            x       y       z     vdW  Elec       q    Type
REMARK                         _______ _______ _______ _____ _____    ______ ____
ROOT
ATOM      1  C   UNL     1       0.063  -2.932   4.751  0.00  0.00    +0.189 A 
ATOM      2  N   UNL     1      -0.977  -3.425   5.361  0.00  0.00    -0.128 NA
ATOM      3  N   UNL     1      -0.603  -4.177   6.334  0.00  0.00    -0.121 NA
ATOM      4  C   UNL     1       0.708  -4.205   6.397  0.00  0.00    +0.209 A 
ATOM      5  N   UNL     1       1.174  -3.415   5.385  0.00  0.00    -0.225 N 
ENDROOT
BRANCH   5   6
ATOM      6  N   UNL     1       2.479  -3.158   5.074  0.00  0.00    -0.295 N 
ATOM      7  H   UNL     1       2.817  -2.348   5.570  0.00  0.00    +0.163 HD
ATOM      8  H   UNL     1       3.059  -3.963   5.257  0.00  0.00    +0.163 HD
ENDBRANCH   5   6
BRANCH   1   9
ATOM      9  C   UNL     1       0.045  -2.006   3.562  0.00  0.00    +0.306 C 
BRANCH   9  10
ATOM     10  O   UNL     1       0.050  -2.776   2.358  0.00  0.00    -0.484 OA
BRANCH  10  16
ATOM     11  C   UNL     1      -0.018   1.503   0.010  0.00  0.00    +0.044 C 
ATOM     12  C   UNL     1       0.002  -0.004   0.002  0.00  0.00    -0.047 A 
ATOM     13  C   UNL     1       0.006  -0.688  -1.200  0.00  0.00    +0.004 A 
ATOM     14  C   UNL     1       0.024  -2.071  -1.211  0.00  0.00    +0.008 A 
ATOM     15  C   UNL     1       0.039  -2.772  -0.020  0.00  0.00    -0.003 A 
ATOM     16  C   UNL     1       0.035  -2.088   1.186  0.00  0.00    +0.125 A 
ATOM     17  C   UNL     1       0.023  -0.700   1.195  0.00  0.00    +0.049 A 
BRANCH  15  18
ATOM     18  C   UNL     1       0.059  -4.279  -0.033  0.00  0.00    +0.016 C 
ATOM     19  C   UNL     1      -1.188  -4.799  -0.753  0.00  0.00    +0.012 C 
ATOM     20  C   UNL     1       1.311  -4.766  -0.764  0.00  0.00    +0.012 C 
ENDBRANCH  15  18
ENDBRANCH  10  16
ENDBRANCH   9  10
ENDBRANCH   1   9
BRANCH   4  21
ATOM     21  S   UNL     1       1.682  -5.098   7.562  0.00  0.00    -0.072 S 
BRANCH  21  22
ATOM     22  C   UNL     1       0.458  -5.935   8.607  0.00  0.00    +0.137 C 
ATOM     23  C   UNL     1      -0.319  -6.952   7.769  0.00  0.00    +0.029 C 
BRANCH  22  24
ATOM     24  C   UNL     1       1.162  -6.646   9.734  0.00  0.00    +0.227 C 
ATOM     25  O   UNL     1       2.342  -6.909   9.642  0.00  0.00    -0.275 OA
ATOM     26  N   UNL     1       0.480  -6.990  10.845  0.00  0.00    -0.296 N 
ATOM     27  H   UNL     1      -0.464  -6.779  10.918  0.00  0.00    +0.150 HD
BRANCH  26  28
ATOM     28  C   UNL     1       1.164  -7.681  11.940  0.00  0.00    +0.121 C 
ATOM     29  C   UNL     1       1.733  -9.006  11.431  0.00  0.00    +0.041 C 
ATOM     30  C   UNL     1       2.448  -9.728  12.575  0.00  0.00    +0.003 C 
ATOM     31  C   UNL     1       1.454 -10.001  13.706  0.00  0.00    +0.000 C 
ATOM     32  C   UNL     1       0.885  -8.675  14.215  0.00  0.00    +0.003 C 
ATOM     33  C   UNL     1       0.171  -7.953  13.071  0.00  0.00    +0.041 C 
BRANCH  28  34
ATOM     34  C   UNL     1       2.261  -6.837  12.443  0.00  0.00    +0.088 C 
ATOM     35  N   UNL     1       3.107  -6.186  12.832  0.00  0.00    -0.194 NA
ENDBRANCH  28  34
ENDBRANCH  26  28
ENDBRANCH  22  24
ENDBRANCH  21  22
ENDBRANCH   4  21
TORSDOF 10
