REMARK  Name = ZINC59888274
REMARK  16 active torsions:
REMARK  status: ('A' for Active; 'I' for Inactive)
REMARK    1  A    between atoms: C_1  and  C_2
REMARK    2  A    between atoms: C_2  and  C_3
REMARK    3  A    between atoms: C_3  and  C_5
REMARK    4  A    between atoms: C_3  and  C_6
REMARK    5  A    between atoms: C_9  and  N_12
REMARK    6  A    between atoms: C_13  and  C_15
REMARK    7  A    between atoms: C_15  and  C_16
REMARK    8  A    between atoms: C_16  and  S_17
REMARK    9  A    between atoms: S_17  and  C_18
REMARK   10  A    between atoms: N_23  and  N_24
REMARK   11  A    between atoms: C_25  and  C_26
REMARK   12  A    between atoms: C_27  and  C_35
REMARK   13  A    between atoms: N_29  and  C_32
REMARK   14  A    between atoms: C_30  and  C_31
REMARK   15  A    between atoms: C_32  and  C_33
REMARK   16  A    between atoms: C_33  and  O_34
REMARK                            x       y       z     vdW  Elec       q    Type
REMARK                         _______ _______ _______ _____ _____    ______ ____
ROOT
ATOM      1  C   UNL     1      -3.055 -10.819   4.768  0.00  0.00    +0.210 A 
ATOM      2  N   UNL     1      -3.188 -12.022   5.338  0.00  0.00    -0.186 NA
ATOM      3  C   UNL     1      -3.830 -11.902   6.481  0.00  0.00    +0.232 A 
ATOM      4  N   UNL     1      -4.120 -10.595   6.661  0.00  0.00    -0.245 N 
ATOM      5  N   UNL     1      -3.605  -9.916   5.545  0.00  0.00    -0.144 NA
ATOM      6  N   UNL     1      -4.150 -12.931   7.346  0.00  0.00    -0.205 N 
ATOM      7  H   UNL     1      -4.627 -12.743   8.169  0.00  0.00    +0.177 HD
ATOM      8  H   UNL     1      -4.589 -10.203   7.414  0.00  0.00    +0.192 HD
ENDROOT
BRANCH   6   9
ATOM      9  N   UNL     1      -3.785 -14.248   7.033  0.00  0.00    -0.187 NA
ATOM     10  C   UNL     1      -4.085 -15.214   7.844  0.00  0.00    +0.141 C 
BRANCH  10  11
ATOM     11  C   UNL     1      -3.701 -16.601   7.514  0.00  0.00    +0.038 A 
ATOM     12  C   UNL     1      -3.003 -17.024   6.363  0.00  0.00    +0.069 A 
ATOM     13  N   UNL     1      -2.852 -18.320   6.433  0.00  0.00    -0.176 NA
ATOM     14  N   UNL     1      -3.438 -18.780   7.617  0.00  0.00    -0.266 N 
ATOM     15  C   UNL     1      -3.951 -17.721   8.277  0.00  0.00    +0.045 A 
ATOM     16  C   UNL     1      -4.669 -17.757   9.601  0.00  0.00    +0.066 C 
ATOM     17  C   UNL     1      -2.517 -16.136   5.247  0.00  0.00    +0.068 C 
BRANCH  14  18
ATOM     18  C   UNL     1      -3.483 -20.173   8.067  0.00  0.00    +0.171 C 
BRANCH  18  19
ATOM     19  C   UNL     1      -2.246 -20.476   8.915  0.00  0.00    +0.179 C 
BRANCH  19  20
ATOM     20  O   UNL     1      -2.290 -21.835   9.354  0.00  0.00    -0.393 OA
ATOM     21  H   UNL     1      -1.535 -22.097   9.898  0.00  0.00    +0.209 HD
ENDBRANCH  19  20
ENDBRANCH  18  19
ENDBRANCH  14  18
ENDBRANCH  10  11
ENDBRANCH   6   9
BRANCH   1  22
ATOM     22  S   UNL     1      -2.262 -10.498   3.228  0.00  0.00    -0.084 S 
BRANCH  22  23
ATOM     23  C   UNL     1      -2.407  -8.701   3.026  0.00  0.00    +0.086 C 
BRANCH  23  24
ATOM     24  C   UNL     1      -1.750  -8.281   1.710  0.00  0.00    +0.107 C 
BRANCH  24  26
ATOM     25  N   UNL     1      -1.359  -6.190   0.448  0.00  0.00    -0.285 N 
ATOM     26  C   UNL     1      -1.870  -6.788   1.542  0.00  0.00    +0.218 C 
ATOM     27  O   UNL     1      -2.426  -6.125   2.392  0.00  0.00    -0.275 OA
ATOM     28  H   UNL     1      -0.983  -6.726  -0.267  0.00  0.00    +0.155 HD
BRANCH  25  32
ATOM     29  C   UNL     1      -1.395  -2.035   0.137  0.00  0.00    -0.044 A 
ATOM     30  C   UNL     1      -1.244  -2.633   1.374  0.00  0.00    +0.006 A 
ATOM     31  C   UNL     1      -1.232  -4.010   1.481  0.00  0.00    +0.023 A 
ATOM     32  C   UNL     1      -1.372  -4.794   0.344  0.00  0.00    +0.033 A 
ATOM     33  C   UNL     1      -1.524  -4.191  -0.898  0.00  0.00    +0.023 A 
ATOM     34  C   UNL     1      -1.541  -2.813  -0.997  0.00  0.00    +0.006 A 
BRANCH  29  35
ATOM     35  C   UNL     1      -1.409  -0.532   0.024  0.00  0.00    +0.016 C 
ATOM     36  C   UNL     1      -0.083   0.029   0.541  0.00  0.00    +0.012 C 
BRANCH  35  38
ATOM     37  C   UNL     1      -2.652   1.544   0.645  0.00  0.00    +0.004 C 
ATOM     38  C   UNL     1      -2.562   0.031   0.857  0.00  0.00    +0.004 C 
ENDBRANCH  35  38
ENDBRANCH  29  35
ENDBRANCH  25  32
ENDBRANCH  24  26
ENDBRANCH  23  24
ENDBRANCH  22  23
ENDBRANCH   1  22
TORSDOF 12
