REMARK  Name = ZINC66978186
REMARK  7 active torsions:
REMARK  status: ('A' for Active; 'I' for Inactive)
REMARK    1  A    between atoms: C_4  and  C_7
REMARK    2  A    between atoms: C_9  and  C_12
REMARK    3  A    between atoms: C_12  and  C_13
REMARK    4  A    between atoms: C_13  and  N_14
REMARK    5  A    between atoms: N_17  and  C_18
REMARK    6  A    between atoms: C_18  and  C_19
REMARK    7  A    between atoms: C_19  and  O_29
REMARK                            x       y       z     vdW  Elec       q    Type
REMARK                         _______ _______ _______ _____ _____    ______ ____
ROOT
ATOM      1  N   UNL     1       6.255  -5.662   1.391  0.00  0.00    -0.299 N 
ATOM      2  C   UNL     1       5.814  -6.595   2.258  0.00  0.00    +0.300 C 
ATOM      3  O   UNL     1       5.088  -6.274   3.179  0.00  0.00    -0.253 OA
ATOM      4  N   UNL     1       6.177  -7.883   2.103  0.00  0.00    -0.296 N 
ATOM      5  H   UNL     1       6.834  -5.918   0.656  0.00  0.00    +0.150 HD
ATOM      6  H   UNL     1       6.756  -8.139   1.369  0.00  0.00    +0.150 HD
ENDROOT
BRANCH   1   7
ATOM      7  C   UNL     1       5.861  -4.261   1.559  0.00  0.00    +0.112 C 
BRANCH   7   8
ATOM      8  C   UNL     1       6.493  -3.417   0.451  0.00  0.00    +0.077 C 
BRANCH   8  11
ATOM      9  C   UNL     1       4.872  -0.210   0.853  0.00  0.00    +0.227 A 
ATOM     10  N   UNL     1       4.831  -1.513   0.706  0.00  0.00    -0.214 NA
ATOM     11  C   UNL     1       6.087  -1.975   0.624  0.00  0.00    +0.081 A 
ATOM     12  C   UNL     1       6.921  -0.924   0.724  0.00  0.00    +0.221 A 
ATOM     13  O   UNL     1       6.159   0.179   0.862  0.00  0.00    -0.443 OA
BRANCH   9  17
ATOM     14  C   UNL     1       1.505   2.353   1.221  0.00  0.00    +0.000 A 
ATOM     15  C   UNL     1       2.781   2.885   1.247  0.00  0.00    +0.001 A 
ATOM     16  C   UNL     1       3.880   2.059   1.128  0.00  0.00    +0.013 A 
ATOM     17  C   UNL     1       3.700   0.682   0.982  0.00  0.00    +0.037 A 
ATOM     18  C   UNL     1       2.410   0.151   0.957  0.00  0.00    +0.013 A 
ATOM     19  C   UNL     1       1.320   0.989   1.076  0.00  0.00    +0.001 A 
ENDBRANCH   9  17
ENDBRANCH   8  11
ENDBRANCH   7   8
ENDBRANCH   1   7
BRANCH   4  20
ATOM     20  C   UNL     1       5.697  -8.898   3.046  0.00  0.00    +0.145 C 
BRANCH  20  21
ATOM     21  C   UNL     1       6.357 -10.241   2.729  0.00  0.00    +0.107 C 
ATOM     22  C   UNL     1       7.875 -10.083   2.793  0.00  0.00    +0.041 C 
ATOM     23  C   UNL     1       8.511 -11.475   2.690  0.00  0.00    +0.008 C 
ATOM     24  C   UNL     1       8.213 -12.236   3.980  0.00  0.00    +0.035 C 
ATOM     25  C   UNL     1       6.741 -12.190   4.295  0.00  0.00    -0.041 A 
ATOM     26  C   UNL     1       5.889 -11.271   3.723  0.00  0.00    -0.011 A 
ATOM     27  C   UNL     1       4.542 -11.278   4.062  0.00  0.00    +0.007 A 
ATOM     28  C   UNL     1       4.051 -12.200   4.963  0.00  0.00    +0.000 A 
ATOM     29  C   UNL     1       4.904 -13.125   5.534  0.00  0.00    +0.000 A 
ATOM     30  C   UNL     1       6.243 -13.118   5.200  0.00  0.00    +0.004 A 
BRANCH  21  31
ATOM     31  O   UNL     1       5.982 -10.652   1.413  0.00  0.00    -0.382 OA
ATOM     32  H   UNL     1       5.029 -10.765   1.293  0.00  0.00    +0.211 HD
ENDBRANCH  21  31
ENDBRANCH  20  21
ENDBRANCH   4  20
TORSDOF 7
