REMARK  Name = ZINC06408735
REMARK  8 active torsions:
REMARK  status: ('A' for Active; 'I' for Inactive)
REMARK    1  A    between atoms: C_1  and  C_2
REMARK    2  A    between atoms: C_9  and  C_14
REMARK    3  A    between atoms: C_14  and  C_16
REMARK    4  A    between atoms: C_14  and  N_65
REMARK    5  A    between atoms: N_20  and  C_21
REMARK    6  A    between atoms: C_21  and  C_22
REMARK    7  A    between atoms: C_22  and  O_23
REMARK    8  A    between atoms: O_23  and  C_24
REMARK                            x       y       z     vdW  Elec       q    Type
REMARK                         _______ _______ _______ _____ _____    ______ ____
ROOT
ATOM      1  C   UNL     1       3.512   0.638  -0.029  0.00  0.00    +0.039 C 
ENDROOT
BRANCH   1  16
ATOM      2  C   UNL     1       3.587  -1.680   0.668  0.00  0.00    -0.058 C 
ATOM      3  C   UNL     1       4.161  -2.636   1.716  0.00  0.00    +0.088 C 
ATOM      4  N   UNL     1       3.668  -2.254   3.047  0.00  0.00    -0.313 N 
ATOM      5  C   UNL     1       4.063  -0.877   3.376  0.00  0.00    +0.088 C 
ATOM      6  C   UNL     1       3.488   0.079   2.328  0.00  0.00    -0.058 C 
ATOM      7  C   UNL     1       4.109  -3.138   4.010  0.00  0.00    +0.162 A 
ATOM      8  N   UNL     1       3.953  -4.441   4.066  0.00  0.00    -0.225 NA
ATOM      9  C   UNL     1       4.444  -5.188   5.080  0.00  0.00    +0.080 A 
ATOM     10  C   UNL     1       4.347  -6.587   5.259  0.00  0.00    +0.029 A 
ATOM     11  C   UNL     1       4.908  -7.193   6.353  0.00  0.00    +0.002 A 
ATOM     12  C   UNL     1       5.586  -6.463   7.318  0.00  0.00    +0.001 A 
ATOM     13  C   UNL     1       5.699  -5.092   7.175  0.00  0.00    +0.017 A 
ATOM     14  C   UNL     1       5.141  -4.477   6.082  0.00  0.00    +0.041 A 
ATOM     15  S   UNL     1       5.045  -2.803   5.495  0.00  0.00    -0.052 S 
ATOM     16  N   UNL     1       4.009  -0.302   0.998  0.00  0.00    +0.391 N 
ATOM     17  H   UNL     1       5.035  -0.264   1.017  0.00  0.00    -0.080 HD
ENDBRANCH   1  16
BRANCH   1  26
ATOM     18  C   UNL     1       2.441  -1.531  -7.083  0.00  0.00    +0.044 C 
ATOM     19  C   UNL     1       3.360  -1.194  -5.937  0.00  0.00    -0.050 A 
ATOM     20  C   UNL     1       4.735  -1.279  -6.109  0.00  0.00    +0.005 A 
ATOM     21  C   UNL     1       5.593  -0.975  -5.074  0.00  0.00    +0.026 A 
ATOM     22  C   UNL     1       5.078  -0.581  -3.844  0.00  0.00    +0.049 A 
ATOM     23  C   UNL     1       3.684  -0.497  -3.673  0.00  0.00    -0.001 A 
ATOM     24  C   UNL     1       2.832  -0.809  -4.737  0.00  0.00    +0.013 A 
ATOM     25  C   UNL     1       3.152  -0.086  -2.372  0.00  0.00    +0.017 A 
ATOM     26  C   UNL     1       4.026   0.208  -1.378  0.00  0.00    +0.011 A 
ATOM     27  C   UNL     1       5.416   0.108  -1.601  0.00  0.00    +0.251 A 
ATOM     28  O   UNL     1       6.184   0.373  -0.693  0.00  0.00    -0.268 OA
ATOM     29  N   UNL     1       5.914  -0.273  -2.791  0.00  0.00    -0.322 N 
ATOM     30  H   UNL     1       6.875  -0.331  -2.911  0.00  0.00    +0.169 HD
ENDBRANCH   1  26
BRANCH   1  31
ATOM     31  C   UNL     1       2.005   0.651  -0.046  0.00  0.00    +0.143 A 
ATOM     32  N   UNL     1       1.212  -0.392  -0.011  0.00  0.00    -0.115 NA
ATOM     33  N   UNL     1      -0.004   0.031  -0.043  0.00  0.00    -0.023 NA
ATOM     34  N   UNL     1      -0.009   1.317  -0.098  0.00  0.00    -0.044 NA
ATOM     35  N   UNL     1       1.211   1.737  -0.101  0.00  0.00    -0.228 N 
BRANCH  35  36
ATOM     36  C   UNL     1       1.650   3.134  -0.156  0.00  0.00    +0.175 C 
BRANCH  36  37
ATOM     37  C   UNL     1       1.786   3.681   1.267  0.00  0.00    +0.183 C 
BRANCH  37  38
ATOM     38  O   UNL     1       2.215   5.044   1.214  0.00  0.00    -0.381 OA
ATOM     39  C   UNL     1       2.374   5.653   2.496  0.00  0.00    +0.194 C 
ENDBRANCH  37  38
ENDBRANCH  36  37
ENDBRANCH  35  36
ENDBRANCH   1  31
TORSDOF 6
