REMARK  Name = ZINC08983877
REMARK  10 active torsions:
REMARK  status: ('A' for Active; 'I' for Inactive)
REMARK    1  A    between atoms: C_1  and  C_2
REMARK    2  A    between atoms: C_2  and  C_3
REMARK    3  A    between atoms: C_2  and  C_4
REMARK    4  A    between atoms: C_2  and  C_5
REMARK    5  A    between atoms: C_5  and  C_7
REMARK    6  A    between atoms: C_5  and  N_17
REMARK    7  A    between atoms: C_8  and  C_9
REMARK    8  A    between atoms: N_25  and  C_29
REMARK    9  A    between atoms: C_32  and  O_35
REMARK   10  A    between atoms: O_35  and  C_36
REMARK                            x       y       z     vdW  Elec       q    Type
REMARK                         _______ _______ _______ _____ _____    ______ ____
ROOT
ATOM      1  N   UNL     1      -0.060   0.043  -2.377  0.00  0.00    -0.368 N 
ATOM      2  C   UNL     1      -1.033  -0.646  -2.877  0.00  0.00    +0.098 C 
ATOM      3  C   UNL     1      -1.907  -0.280  -4.055  0.00  0.00    +0.094 C 
ATOM      4  C   UNL     1      -2.671   1.008  -3.768  0.00  0.00    +0.034 C 
ATOM      5  C   UNL     1      -3.571   1.346  -4.959  0.00  0.00    +0.003 C 
ATOM      6  C   UNL     1      -2.712   1.512  -6.215  0.00  0.00    +0.000 C 
ATOM      7  C   UNL     1      -1.970   0.205  -6.503  0.00  0.00    +0.003 C 
ATOM      8  C   UNL     1      -1.064  -0.137  -5.317  0.00  0.00    +0.034 C 
ATOM      9  N   UNL     1      -2.834  -1.411  -4.180  0.00  0.00    -0.269 N 
ATOM     10  C   UNL     1      -2.520  -2.287  -3.207  0.00  0.00    +0.143 C 
ATOM     11  S   UNL     1      -3.341  -3.769  -2.963  0.00  0.00    -0.018 S 
ATOM     12  N   UNL     1      -1.492  -1.874  -2.455  0.00  0.00    -0.285 N 
ATOM     13  H   UNL     1      -1.122  -2.373  -1.709  0.00  0.00    +0.155 HD
ATOM     14  H   UNL     1       0.174   0.901  -2.763  0.00  0.00    +0.161 HD
ENDROOT
BRANCH   9  15
ATOM     15  C   UNL     1      -3.853  -1.552  -5.131  0.00  0.00    +0.037 A 
ATOM     16  C   UNL     1      -4.660  -2.683  -5.122  0.00  0.00    +0.027 A 
ATOM     17  C   UNL     1      -5.663  -2.821  -6.060  0.00  0.00    +0.047 A 
ATOM     18  C   UNL     1      -5.866  -1.832  -7.011  0.00  0.00    +0.120 A 
ATOM     19  C   UNL     1      -5.060  -0.703  -7.021  0.00  0.00    +0.047 A 
ATOM     20  C   UNL     1      -4.059  -0.560  -6.080  0.00  0.00    +0.027 A 
BRANCH  18  21
ATOM     21  O   UNL     1      -6.854  -1.969  -7.935  0.00  0.00    -0.495 OA
ATOM     22  C   UNL     1      -7.006  -0.912  -8.885  0.00  0.00    +0.277 C 
ENDBRANCH  18  21
ENDBRANCH   9  15
BRANCH   1  23
ATOM     23  C   UNL     1       0.689  -0.474  -1.229  0.00  0.00    +0.109 C 
BRANCH  23  25
ATOM     24  C   UNL     1      -0.153   1.417   0.171  0.00  0.00    +0.013 C 
ATOM     25  C   UNL     1      -0.042  -0.105   0.064  0.00  0.00    -0.014 C 
ATOM     26  C   UNL     1       0.741  -0.645   1.263  0.00  0.00    +0.013 C 
ATOM     27  C   UNL     1      -1.443  -0.720   0.051  0.00  0.00    +0.013 C 
ENDBRANCH  23  25
BRANCH  23  28
ATOM     28  C   UNL     1       2.069   0.131  -1.216  0.00  0.00    -0.002 C 
ATOM     29  C   UNL     1       3.133  -0.641  -1.391  0.00  0.00    +0.007 C 
BRANCH  29  30
ATOM     30  C   UNL     1       4.486  -0.047  -1.379  0.00  0.00    -0.007 A 
ATOM     31  C   UNL     1       4.648   1.324  -1.177  0.00  0.00    +0.011 A 
ATOM     32  C   UNL     1       5.914   1.872  -1.166  0.00  0.00    +0.020 A 
ATOM     33  C   UNL     1       7.023   1.065  -1.355  0.00  0.00    +0.042 A 
ATOM     34  C   UNL     1       6.870  -0.295  -1.556  0.00  0.00    +0.040 A 
ATOM     35  C   UNL     1       5.609  -0.857  -1.563  0.00  0.00    +0.049 A 
ATOM     36 CL   UNL     1       5.418  -2.565  -1.808  0.00  0.00    -0.083 Cl
ATOM     37 CL   UNL     1       8.613   1.764  -1.340  0.00  0.00    -0.083 Cl
ENDBRANCH  29  30
ENDBRANCH  23  28
ENDBRANCH   1  23
TORSDOF 6
