REMARK  Name = ZINC39345579
REMARK  4 active torsions:
REMARK  status: ('A' for Active; 'I' for Inactive)
REMARK    1  A    between atoms: C_1  and  C_2
REMARK    2  A    between atoms: C_4  and  C_19
REMARK    3  A    between atoms: C_8  and  C_10
REMARK    4  A    between atoms: C_13  and  C_15
REMARK                            x       y       z     vdW  Elec       q    Type
REMARK                         _______ _______ _______ _____ _____    ______ ____
ROOT
ATOM      1  C   UNL     1      -0.018   1.503   0.010  0.00  0.00    +0.040 C 
ATOM      2  C   UNL     1       0.002  -0.004   0.002  0.00  0.00    -0.054 C 
ATOM      3  C   UNL     1       0.006  -0.695  -1.148  0.00  0.00    +0.020 C 
ATOM      4  C   UNL     1       0.025  -2.103  -1.149  0.00  0.00    +0.031 C 
ATOM      5  N   UNL     1       0.040  -2.837  -0.070  0.00  0.00    -0.185 NA
ATOM      6  C   UNL     1       0.039  -2.309   1.161  0.00  0.00    +0.249 C 
ATOM      7  O   UNL     1       0.054  -3.021   2.144  0.00  0.00    -0.273 OA
ATOM      8  C   UNL     1       0.025  -0.799   1.293  0.00  0.00    +0.149 C 
ATOM      9  C   UNL     1       0.028  -2.807  -2.482  0.00  0.00    +0.063 C 
ENDROOT
BRANCH   8  10
ATOM     10  C   UNL     1      -1.191  -0.418   2.097  0.00  0.00    +0.063 C 
ATOM     11  N   UNL     1      -2.155   0.360   1.730  0.00  0.00    -0.157 NA
ATOM     12  N   UNL     1      -3.127   0.503   2.714  0.00  0.00    -0.149 NA
ATOM     13  C   UNL     1      -2.853  -0.174   3.780  0.00  0.00    +0.149 C 
ATOM     14  C   UNL     1      -1.537  -0.874   3.501  0.00  0.00    +0.115 C 
BRANCH  13  15
ATOM     15  C   UNL     1      -3.675  -0.256   5.040  0.00  0.00    +0.432 C 
ATOM     16  F   UNL     1      -4.824   0.530   4.899  0.00  0.00    -0.165 F 
ATOM     17  F   UNL     1      -4.045  -1.585   5.271  0.00  0.00    -0.165 F 
ATOM     18  F   UNL     1      -2.920   0.212   6.121  0.00  0.00    -0.165 F 
ENDBRANCH  13  15
ENDBRANCH   8  10
TORSDOF 2
