REMARK  Name = ZINC08788925
REMARK  5 active torsions:
REMARK  status: ('A' for Active; 'I' for Inactive)
REMARK    1  A    between atoms: C_1  and  C_2
REMARK    2  A    between atoms: C_8  and  C_9
REMARK    3  A    between atoms: C_8  and  N_54
REMARK    4  A    between atoms: C_10  and  O_32
REMARK    5  A    between atoms: C_19  and  C_20
REMARK                            x       y       z     vdW  Elec       q    Type
REMARK                         _______ _______ _______ _____ _____    ______ ____
ROOT
ATOM      1  C   UNL     1       5.517   0.625   2.117  0.00  0.00    +0.020 A 
ATOM      2  C   UNL     1       5.183   1.384   3.227  0.00  0.00    +0.122 A 
ATOM      3  C   UNL     1       3.964   2.055   3.284  0.00  0.00    +0.046 A 
ATOM      4  C   UNL     1       3.081   1.972   2.245  0.00  0.00    +0.016 A 
ATOM      5  C   UNL     1       3.403   1.212   1.119  0.00  0.00    +0.026 A 
ATOM      6  C   UNL     1       4.631   0.532   1.054  0.00  0.00    +0.144 A 
ATOM      7  O   UNL     1       4.939  -0.203  -0.037  0.00  0.00    -0.422 OA
ATOM      8  C   UNL     1       4.102  -0.312  -1.080  0.00  0.00    +0.338 A 
ATOM      9  O   UNL     1       4.433  -0.989  -2.038  0.00  0.00    -0.245 OA
ATOM     10  C   UNL     1       2.853   0.327  -1.097  0.00  0.00    +0.101 A 
ATOM     11  C   UNL     1       2.470   1.104  -0.016  0.00  0.00    +0.006 A 
ENDROOT
BRANCH  11  12
ATOM     12  C   UNL     1       1.167   1.796   0.001  0.00  0.00    +0.068 A 
ATOM     13  C   UNL     1      -0.013   1.076   0.008  0.00  0.00    +0.027 A 
ATOM     14  C   UNL     1      -1.243   1.782   0.018  0.00  0.00    +0.020 A 
ATOM     15  C   UNL     1      -2.458   1.081   0.032  0.00  0.00    +0.031 A 
ATOM     16  C   UNL     1      -3.646   1.774   0.046  0.00  0.00    +0.042 A 
ATOM     17  C   UNL     1      -3.647   3.163   0.054  0.00  0.00    +0.023 A 
ATOM     18  C   UNL     1      -2.462   3.866   0.046  0.00  0.00    +0.048 A 
ATOM     19  C   UNL     1      -1.248   3.188   0.031  0.00  0.00    +0.139 A 
ATOM     20  O   UNL     1      -0.090   3.884   0.024  0.00  0.00    -0.422 OA
ATOM     21  C   UNL     1       1.101   3.263   0.009  0.00  0.00    +0.345 A 
ATOM     22  O   UNL     1       2.127   3.917   0.003  0.00  0.00    -0.245 OA
ATOM     23 CL   UNL     1      -5.151   0.909   0.057  0.00  0.00    -0.084 Cl
ENDBRANCH  11  12
BRANCH   2  24
ATOM     24  O   UNL     1       6.051   1.474   4.267  0.00  0.00    -0.506 OA
ATOM     25  H   UNL     1       5.930   0.792   4.941  0.00  0.00    +0.292 HD
ENDBRANCH   2  24
BRANCH   1  26
ATOM     26  C   UNL     1       6.839  -0.098   2.064  0.00  0.00    -0.036 C 
BRANCH  26  33
ATOM     27  C   UNL     1       8.980  -4.457   2.838  0.00  0.00    +0.005 C 
ATOM     28  C   UNL     1       7.744  -3.599   3.113  0.00  0.00    -0.031 C 
ATOM     29  C   UNL     1       6.495  -4.325   2.606  0.00  0.00    -0.001 C 
ATOM     30  C   UNL     1       5.270  -3.434   2.830  0.00  0.00    -0.018 C 
ATOM     31  C   UNL     1       5.478  -2.099   2.111  0.00  0.00    -0.078 C 
ATOM     32  C   UNL     1       7.880  -2.259   2.386  0.00  0.00    -0.075 C 
ATOM     33  N   UNL     1       6.681  -1.440   2.662  0.00  0.00    +0.383 N 
ATOM     34  H   UNL     1       6.571  -1.341   3.678  0.00  0.00    -0.081 HD
ENDBRANCH  26  33
ENDBRANCH   1  26
TORSDOF 4
