REMARK  Name = ZINC36603179
REMARK  12 active torsions:
REMARK  status: ('A' for Active; 'I' for Inactive)
REMARK    1  A    between atoms: C_1  and  C_2
REMARK    2  A    between atoms: C_5  and  C_7
REMARK    3  A    between atoms: C_7  and  N_8
REMARK    4  A    between atoms: N_8  and  C_9
REMARK    5  A    between atoms: C_9  and  C_11
REMARK    6  A    between atoms: C_9  and  C_20
REMARK    7  A    between atoms: C_14  and  O_19
REMARK    8  A    between atoms: C_15  and  O_17
REMARK    9  A    between atoms: O_17  and  C_18
REMARK   10  A    between atoms: N_22  and  C_23
REMARK   11  A    between atoms: C_29  and  C_31
REMARK   12  A    between atoms: C_34  and  N_37
REMARK                            x       y       z     vdW  Elec       q    Type
REMARK                         _______ _______ _______ _____ _____    ______ ____
ROOT
ATOM      1  C   UNL     1       2.682  -2.267  -2.250  0.00  0.00    +0.193 C 
ENDROOT
BRANCH   1   2
ATOM      2  C   UNL     1       2.626  -0.976  -3.024  0.00  0.00    -0.015 A 
ATOM      3  C   UNL     1       2.075   0.152  -2.445  0.00  0.00    +0.010 A 
ATOM      4  C   UNL     1       2.021   1.339  -3.152  0.00  0.00    +0.049 A 
ATOM      5  C   UNL     1       2.521   1.401  -4.442  0.00  0.00    +0.158 A 
ATOM      6  C   UNL     1       3.077   0.266  -5.025  0.00  0.00    +0.162 A 
ATOM      7  C   UNL     1       3.131  -0.920  -4.310  0.00  0.00    +0.055 A 
BRANCH   6   8
ATOM      8  O   UNL     1       3.569   0.321  -6.292  0.00  0.00    -0.491 OA
ATOM      9  C   UNL     1       4.018  -0.908  -6.867  0.00  0.00    +0.277 C 
ENDBRANCH   6   8
BRANCH   5  10
ATOM     10  O   UNL     1       2.469   2.568  -5.139  0.00  0.00    -0.503 OA
ATOM     11  H   UNL     1       3.247   3.130  -5.022  0.00  0.00    +0.292 HD
ENDBRANCH   5  10
ENDBRANCH   1   2
BRANCH   1  12
ATOM     12  C   UNL     1       4.053  -2.433  -1.647  0.00  0.00    +0.238 C 
ATOM     13  O   UNL     1       4.178  -2.959  -0.561  0.00  0.00    -0.273 OA
ATOM     14  N   UNL     1       5.139  -1.995  -2.313  0.00  0.00    -0.311 N 
ATOM     15  H   UNL     1       5.039  -1.574  -3.181  0.00  0.00    +0.149 HD
BRANCH  14  16
ATOM     16  C   UNL     1       6.472  -2.156  -1.726  0.00  0.00    +0.073 C 
ATOM     17  C   UNL     1       6.760  -0.985  -0.785  0.00  0.00    +0.022 C 
ATOM     18  C   UNL     1       8.152  -1.153  -0.172  0.00  0.00    +0.002 C 
ATOM     19  C   UNL     1       9.199  -1.180  -1.287  0.00  0.00    +0.000 C 
ATOM     20  C   UNL     1       8.912  -2.351  -2.228  0.00  0.00    +0.002 C 
ATOM     21  C   UNL     1       7.520  -2.183  -2.841  0.00  0.00    +0.022 C 
ENDBRANCH  14  16
ENDBRANCH   1  12
BRANCH   1  22
ATOM     22  N   UNL     1       1.678  -2.240  -1.183  0.00  0.00    -0.275 N 
ATOM     23  C   UNL     1       0.482  -1.658  -1.397  0.00  0.00    +0.248 C 
ATOM     24  O   UNL     1      -0.297  -1.512  -0.475  0.00  0.00    -0.270 OA
BRANCH  23  25
ATOM     25  C   UNL     1       0.117  -1.196  -2.753  0.00  0.00    +0.037 A 
ATOM     26  C   UNL     1       0.785  -1.702  -3.869  0.00  0.00    +0.015 A 
ATOM     27  C   UNL     1       0.439  -1.267  -5.132  0.00  0.00    +0.033 A 
ATOM     28  C   UNL     1      -0.567  -0.330  -5.293  0.00  0.00    +0.126 A 
ATOM     29  C   UNL     1      -1.232   0.176  -4.190  0.00  0.00    +0.033 A 
ATOM     30  C   UNL     1      -0.900  -0.255  -2.923  0.00  0.00    +0.015 A 
BRANCH  28  31
ATOM     31  N   UNL     1      -0.932   0.133  -6.651  0.00  0.00    +0.056 N 
ATOM     32  O   UNL     1      -0.352  -0.308  -7.616  0.00  0.00    -0.126 OA
ATOM     33  O   UNL     1      -1.810   0.951  -6.794  0.00  0.00    -0.126 OA
ENDBRANCH  28  31
ENDBRANCH  23  25
BRANCH  22  34
ATOM     34  C   UNL     1       1.976  -2.847   0.117  0.00  0.00    +0.183 C 
BRANCH  34  39
ATOM     35  C   UNL     1       0.829  -7.713  -0.556  0.00  0.00    +0.086 C 
ATOM     36  C   UNL     1       1.628  -6.453  -0.339  0.00  0.00    +0.102 A 
ATOM     37  C   UNL     1       2.965  -6.381  -0.216  0.00  0.00    +0.045 A 
ATOM     38  C   UNL     1       3.287  -5.018  -0.027  0.00  0.00    +0.046 A 
ATOM     39  C   UNL     1       2.126  -4.338  -0.046  0.00  0.00    +0.122 A 
ATOM     40  O   UNL     1       1.125  -5.212  -0.241  0.00  0.00    -0.463 OA
ENDBRANCH  34  39
ENDBRANCH  22  34
ENDBRANCH   1  22
TORSDOF 10
