REMARK  Name = ZINC14928085
REMARK  12 active torsions:
REMARK  status: ('A' for Active; 'I' for Inactive)
REMARK    1  A    between atoms: C_1  and  C_2
REMARK    2  A    between atoms: C_3  and  C_32
REMARK    3  A    between atoms: N_4  and  C_25
REMARK    4  A    between atoms: C_5  and  N_9
REMARK    5  A    between atoms: C_6  and  C_7
REMARK    6  A    between atoms: C_10  and  C_12
REMARK    7  A    between atoms: C_12  and  N_59
REMARK    8  A    between atoms: C_13  and  C_14
REMARK    9  A    between atoms: C_13  and  N_59
REMARK   10  A    between atoms: C_19  and  C_20
REMARK   11  A    between atoms: C_19  and  N_59
REMARK   12  A    between atoms: C_25  and  C_26
REMARK                            x       y       z     vdW  Elec       q    Type
REMARK                         _______ _______ _______ _____ _____    ______ ____
ROOT
ATOM      1  N   UNL     1      -0.322  -0.025  -2.659  0.00  0.00    -0.272 N 
ATOM      2  C   UNL     1       0.530   0.684  -1.892  0.00  0.00    +0.202 C 
ATOM      3  O   UNL     1       0.174   1.735  -1.402  0.00  0.00    -0.278 OA
ATOM      4  H   UNL     1      -0.073  -0.909  -2.972  0.00  0.00    +0.156 HD
ENDROOT
BRANCH   1   9
ATOM      5  C   UNL     1      -4.035   3.154  -3.942  0.00  0.00    +0.047 C 
ATOM      6  C   UNL     1      -3.254   1.917  -3.581  0.00  0.00    -0.011 A 
ATOM      7  C   UNL     1      -3.734   0.667  -3.480  0.00  0.00    +0.022 A 
ATOM      8  N   UNL     1      -2.716  -0.183  -3.137  0.00  0.00    -0.327 N 
ATOM      9  C   UNL     1      -1.556   0.509  -3.001  0.00  0.00    +0.124 A 
ATOM     10  C   UNL     1      -1.821   1.844  -3.271  0.00  0.00    +0.095 A 
ATOM     11  C   UNL     1      -5.167   0.261  -3.713  0.00  0.00    +0.064 C 
BRANCH  10  12
ATOM     12  C   UNL     1      -0.887   2.930  -3.251  0.00  0.00    +0.103 C 
ATOM     13  N   UNL     1      -0.147   3.791  -3.235  0.00  0.00    -0.191 NA
ENDBRANCH  10  12
BRANCH   8  14
ATOM     14  C   UNL     1      -2.859  -1.628  -2.942  0.00  0.00    +0.158 C 
BRANCH  14  15
ATOM     15  C   UNL     1      -3.216  -1.908  -1.505  0.00  0.00    -0.028 A 
ATOM     16  C   UNL     1      -2.216  -2.062  -0.562  0.00  0.00    +0.005 A 
ATOM     17  C   UNL     1      -2.544  -2.314   0.757  0.00  0.00    +0.000 A 
ATOM     18  C   UNL     1      -3.870  -2.422   1.132  0.00  0.00    +0.000 A 
ATOM     19  C   UNL     1      -4.869  -2.273   0.188  0.00  0.00    +0.000 A 
ATOM     20  C   UNL     1      -4.542  -2.016  -1.130  0.00  0.00    +0.005 A 
ENDBRANCH  14  15
ENDBRANCH   8  14
ENDBRANCH   1   9
BRANCH   2  21
ATOM     21  C   UNL     1       1.925   0.171  -1.643  0.00  0.00    +0.020 C 
BRANCH  21  22
ATOM     22  N   UNL     1       2.592   1.067  -0.676  0.00  0.00    +0.393 N 
ATOM     23  H   UNL     1       2.317   2.036  -0.874  0.00  0.00    -0.080 HD
BRANCH  22  24
ATOM     24  C   UNL     1       4.060   0.949  -0.807  0.00  0.00    -0.002 C 
BRANCH  24  25
ATOM     25  C   UNL     1       4.710   2.023   0.025  0.00  0.00    +0.089 A 
ATOM     26  C   UNL     1       5.087   1.902   1.311  0.00  0.00    +0.042 A 
ATOM     27  C   UNL     1       5.649   3.142   1.692  0.00  0.00    +0.041 A 
ATOM     28  C   UNL     1       5.582   3.947   0.616  0.00  0.00    +0.195 A 
ATOM     29  O   UNL     1       5.018   3.262  -0.392  0.00  0.00    -0.470 OA
ENDBRANCH  24  25
ENDBRANCH  22  24
BRANCH  22  30
ATOM     30  C   UNL     1       2.179   0.723   0.701  0.00  0.00    -0.034 C 
BRANCH  30  31
ATOM     31  C   UNL     1       0.774   1.221   0.923  0.00  0.00    -0.027 A 
ATOM     32  C   UNL     1      -0.397   0.545   0.824  0.00  0.00    +0.009 A 
ATOM     33  C   UNL     1      -1.580   1.215   1.071  0.00  0.00    +0.008 A 
ATOM     34  C   UNL     1      -1.534   2.526   1.415  0.00  0.00    +0.045 A 
ATOM     35  S   UNL     1       0.220   2.854   1.385  0.00  0.00    -0.103 S 
ENDBRANCH  30  31
ENDBRANCH  22  30
ENDBRANCH  21  22
ENDBRANCH   2  21
TORSDOF 10
