REMARK  Name = ZINC10653626
REMARK  4 active torsions:
REMARK  status: ('A' for Active; 'I' for Inactive)
REMARK    1  A    between atoms: C_1  and  C_2
REMARK    2  A    between atoms: C_15  and  C_17
REMARK    3  A    between atoms: C_17  and  S_18
REMARK    4  A    between atoms: S_18  and  C_19
REMARK                            x       y       z     vdW  Elec       q    Type
REMARK                         _______ _______ _______ _____ _____    ______ ____
ROOT
ATOM      1  C   UNL     1      -0.761   2.031  -1.228  0.00  0.00    +0.029 C 
ATOM      2  C   UNL     1      -0.019   1.526   0.010  0.00  0.00    +0.087 C 
ATOM      3  C   UNL     1       0.002  -0.004   0.002  0.00  0.00    +0.118 C 
ATOM      4  C   UNL     1       1.040  -0.514   0.967  0.00  0.00    +0.219 C 
ATOM      5  O   UNL     1       0.694  -0.981   2.031  0.00  0.00    -0.275 OA
ATOM      6  N   UNL     1       2.354  -0.453   0.655  0.00  0.00    -0.284 N 
ATOM      7  C   UNL     1       2.777   0.163  -0.528  0.00  0.00    +0.055 A 
ATOM      8  C   UNL     1       3.669  -0.467  -1.379  0.00  0.00    +0.025 A 
ATOM      9  C   UNL     1       4.092   0.175  -2.529  0.00  0.00    +0.002 A 
ATOM     10  C   UNL     1       3.628   1.443  -2.830  0.00  0.00    +0.002 A 
ATOM     11  C   UNL     1       2.730   2.074  -1.989  0.00  0.00    +0.025 A 
ATOM     12  C   UNL     1       2.292   1.433  -0.842  0.00  0.00    +0.058 A 
ATOM     13  N   UNL     1       1.351   2.041   0.000  0.00  0.00    -0.266 N 
ATOM     14  C   UNL     1       1.701   3.079   0.784  0.00  0.00    +0.230 C 
ATOM     15  O   UNL     1       0.876   3.597   1.508  0.00  0.00    -0.274 OA
ATOM     16  H   UNL     1       3.009  -0.840   1.257  0.00  0.00    +0.155 HD
ENDROOT
BRANCH  14  17
ATOM     17  C   UNL     1       3.115   3.598   0.762  0.00  0.00    +0.172 C 
BRANCH  17  18
ATOM     18  S   UNL     1       3.268   4.988   1.917  0.00  0.00    -0.095 S 
BRANCH  18  19
ATOM     19  C   UNL     1       4.956   5.476   1.777  0.00  0.00    +0.120 A 
ATOM     20  C   UNL     1       5.444   6.540   2.537  0.00  0.00    +0.039 A 
ATOM     21  C   UNL     1       6.777   6.883   2.391  0.00  0.00    +0.044 A 
ATOM     22  C   UNL     1       7.547   6.148   1.497  0.00  0.00    +0.152 A 
ATOM     23  N   UNL     1       7.003   5.157   0.819  0.00  0.00    -0.137 NA
ATOM     24  N   UNL     1       5.769   4.830   0.953  0.00  0.00    -0.142 NA
ATOM     25 CL   UNL     1       9.224   6.535   1.273  0.00  0.00    -0.060 Cl
ENDBRANCH  18  19
ENDBRANCH  17  18
ENDBRANCH  14  17
TORSDOF 3
