REMARK  Name = ZINC12504772
REMARK  3 active torsions:
REMARK  status: ('A' for Active; 'I' for Inactive)
REMARK    1  A    between atoms: C_8  and  C_25
REMARK    2  A    between atoms: C_15  and  N_17
REMARK    3  A    between atoms: C_20  and  C_23
REMARK                            x       y       z     vdW  Elec       q    Type
REMARK                         _______ _______ _______ _____ _____    ______ ____
ROOT
ATOM      1  C   UNL     1       0.580   2.379   1.119  0.00  0.00    +0.003 C 
ATOM      2  C   UNL     1       1.261   2.207   2.478  0.00  0.00    +0.019 C 
ATOM      3  C   UNL     1       1.397   0.713   2.791  0.00  0.00    +0.106 C 
ATOM      4  N   UNL     1       2.097   0.058   1.678  0.00  0.00    -0.314 N 
ATOM      5  C   UNL     1       1.578   0.235   0.315  0.00  0.00    +0.106 C 
ATOM      6  C   UNL     1       1.440   1.734   0.030  0.00  0.00    +0.019 C 
ATOM      7  C   UNL     1       3.223  -0.708   1.908  0.00  0.00    +0.142 A 
ATOM      8  C   UNL     1       3.083  -2.084   2.153  0.00  0.00    +0.100 A 
ATOM      9  C   UNL     1       4.300  -2.858   2.391  0.00  0.00    +0.018 A 
ATOM     10  C   UNL     1       4.301  -4.226   2.643  0.00  0.00    +0.027 A 
ATOM     11  C   UNL     1       5.498  -4.883   2.865  0.00  0.00    +0.221 A 
ATOM     12  N   UNL     1       6.651  -4.205   2.824  0.00  0.00    -0.197 NA
ATOM     13  C   UNL     1       6.718  -2.909   2.585  0.00  0.00    +0.131 A 
ATOM     14  C   UNL     1       5.543  -2.171   2.359  0.00  0.00    +0.063 A 
ATOM     15  C   UNL     1       5.547  -0.786   2.103  0.00  0.00    +0.129 A 
ATOM     16  N   UNL     1       4.419  -0.133   1.889  0.00  0.00    -0.216 NA
ATOM     17  N   UNL     1       7.946  -2.276   2.558  0.00  0.00    -0.342 N 
ATOM     18  O   UNL     1       5.291  -6.204   3.120  0.00  0.00    -0.471 OA
ATOM     19  C   UNL     1       3.990  -6.583   2.639  0.00  0.00    +0.194 C 
ATOM     20  C   UNL     1       3.196  -5.259   2.734  0.00  0.00    +0.087 C 
ATOM     21  H   UNL     1       8.111  -1.566   1.918  0.00  0.00    +0.144 HD
ATOM     22  H   UNL     1       8.643  -2.542   3.178  0.00  0.00    +0.144 HD
ENDROOT
BRANCH  15  23
ATOM     23  N   UNL     1       6.745  -0.105   2.070  0.00  0.00    -0.343 N 
ATOM     24  H   UNL     1       6.885   0.598   1.416  0.00  0.00    +0.144 HD
ATOM     25  H   UNL     1       7.447  -0.327   2.701  0.00  0.00    +0.144 HD
ENDBRANCH  15  23
BRANCH  19  26
ATOM     26  C   UNL     1       3.372  -7.657   3.535  0.00  0.00    +0.153 C 
ATOM     27 CL   UNL     1       4.331  -9.178   3.400  0.00  0.00    -0.122 Cl
ENDBRANCH  19  26
BRANCH   8  28
ATOM     28  C   UNL     1       1.794  -2.707   2.168  0.00  0.00    +0.103 C 
ATOM     29  N   UNL     1       0.771  -3.200   2.181  0.00  0.00    -0.191 NA
ENDBRANCH   8  28
TORSDOF 3
