REMARK  Name = ZINC39675422
REMARK  14 active torsions:
REMARK  status: ('A' for Active; 'I' for Inactive)
REMARK    1  A    between atoms: C_1  and  C_2
REMARK    2  A    between atoms: C_2  and  C_3
REMARK    3  A    between atoms: C_3  and  C_4
REMARK    4  A    between atoms: C_4  and  C_5
REMARK    5  A    between atoms: C_5  and  C_7
REMARK    6  A    between atoms: C_5  and  C_8
REMARK    7  A    between atoms: C_12  and  C_21
REMARK    8  A    between atoms: N_23  and  C_24
REMARK    9  A    between atoms: C_24  and  C_26
REMARK   10  A    between atoms: C_24  and  C_27
REMARK   11  A    between atoms: C_27  and  C_28
REMARK   12  A    between atoms: C_28  and  C_29
REMARK   13  A    between atoms: C_32  and  O_35
REMARK   14  A    between atoms: O_35  and  C_36
REMARK                            x       y       z     vdW  Elec       q    Type
REMARK                         _______ _______ _______ _____ _____    ______ ____
ROOT
ATOM      1  C   UNL     1      -2.988  -4.314   0.307  0.00  0.00    +0.218 C 
ATOM      2  O   UNL     1      -1.993  -4.970   0.532  0.00  0.00    -0.275 OA
ATOM      3  N   UNL     1      -4.176  -4.928   0.137  0.00  0.00    -0.300 N 
ATOM      4  C   UNL     1      -5.468  -4.315  -0.249  0.00  0.00    +0.121 C 
ATOM      5  C   UNL     1      -6.111  -5.335  -1.215  0.00  0.00    +0.100 C 
ATOM      6  C   UNL     1      -5.463  -6.681  -0.852  0.00  0.00    -0.004 C 
ATOM      7  C   UNL     1      -4.483  -6.371   0.288  0.00  0.00    +0.115 C 
ATOM      8  C   UNL     1      -4.706  -7.244  -2.052  0.00  0.00    -0.010 C 
ATOM      9  C   UNL     1      -4.118  -8.609  -1.684  0.00  0.00    -0.082 C 
ATOM     10  N   UNL     1      -5.201  -9.520  -1.292  0.00  0.00    +0.379 N 
ATOM     11  C   UNL     1      -5.864  -9.018  -0.083  0.00  0.00    -0.082 C 
ATOM     12  C   UNL     1      -6.526  -7.670  -0.383  0.00  0.00    -0.010 C 
ATOM     13  H   UNL     1      -5.873  -9.583  -2.042  0.00  0.00    -0.086 HD
ATOM     14  H   UNL     1      -4.818 -10.435  -1.109  0.00  0.00    -0.086 HD
ENDROOT
BRANCH   5  15
ATOM     15  C   UNL     1      -7.602  -5.393  -1.001  0.00  0.00    +0.218 C 
ATOM     16  O   UNL     1      -8.066  -5.163   0.096  0.00  0.00    -0.275 OA
ATOM     17  N   UNL     1      -8.419  -5.700  -2.028  0.00  0.00    -0.312 N 
ATOM     18  H   UNL     1      -8.047  -5.883  -2.905  0.00  0.00    +0.149 HD
BRANCH  17  19
ATOM     19  C   UNL     1      -9.868  -5.756  -1.820  0.00  0.00    +0.070 C 
ATOM     20  C   UNL     1     -10.458  -4.352  -1.962  0.00  0.00    +0.028 C 
BRANCH  19  21
ATOM     21  C   UNL     1     -10.497  -6.682  -2.863  0.00  0.00    +0.026 C 
BRANCH  21  22
ATOM     22  C   UNL     1     -10.001  -8.112  -2.641  0.00  0.00    +0.037 C 
BRANCH  22  23
ATOM     23  C   UNL     1     -10.621  -9.024  -3.669  0.00  0.00    -0.047 A 
ATOM     24  C   UNL     1     -11.828  -9.642  -3.403  0.00  0.00    +0.007 A 
ATOM     25  C   UNL     1     -12.399 -10.479  -4.343  0.00  0.00    +0.046 A 
ATOM     26  C   UNL     1     -11.758 -10.698  -5.554  0.00  0.00    +0.120 A 
ATOM     27  C   UNL     1     -10.547 -10.076  -5.818  0.00  0.00    +0.046 A 
ATOM     28  C   UNL     1      -9.984  -9.236  -4.877  0.00  0.00    +0.007 A 
BRANCH  26  29
ATOM     29  O   UNL     1     -12.317 -11.521  -6.480  0.00  0.00    -0.495 OA
ATOM     30  C   UNL     1     -11.602 -11.700  -7.705  0.00  0.00    +0.277 C 
ENDBRANCH  26  29
ENDBRANCH  22  23
ENDBRANCH  21  22
ENDBRANCH  19  21
ENDBRANCH  17  19
ENDBRANCH   5  15
BRANCH   1  31
ATOM     31  C   UNL     1      -2.896  -2.813   0.219  0.00  0.00    +0.072 C 
ATOM     32  C   UNL     1      -2.596  -2.404  -1.224  0.00  0.00    +0.017 C 
BRANCH  31  33
ATOM     33  C   UNL     1      -1.776  -2.315   1.134  0.00  0.00    +0.012 C 
BRANCH  33  34
ATOM     34  C   UNL     1      -1.763  -0.785   1.141  0.00  0.00    +0.000 C 
BRANCH  34  36
ATOM     35  C   UNL     1      -0.630   1.242   2.062  0.00  0.00    +0.004 C 
ATOM     36  C   UNL     1      -0.642  -0.288   2.055  0.00  0.00    -0.003 C 
ENDBRANCH  34  36
ENDBRANCH  33  34
ENDBRANCH  31  33
ENDBRANCH   1  31
TORSDOF 10
