REMARK  Name = ZINC39856892
REMARK  6 active torsions:
REMARK  status: ('A' for Active; 'I' for Inactive)
REMARK    1  A    between atoms: C_4  and  C_7
REMARK    2  A    between atoms: C_10  and  N_13
REMARK    3  A    between atoms: N_13  and  C_14
REMARK    4  A    between atoms: C_26  and  N_28
REMARK    5  A    between atoms: N_28  and  S_29
REMARK    6  A    between atoms: S_29  and  C_32
REMARK                            x       y       z     vdW  Elec       q    Type
REMARK                         _______ _______ _______ _____ _____    ______ ____
ROOT
ATOM      1  C   UNL     1       7.362  -4.179  -0.100  0.00  0.00    +0.124 C 
ATOM      2  C   UNL     1       7.302  -4.689  -1.520  0.00  0.00    -0.017 A 
ATOM      3  C   UNL     1       6.403  -4.585  -2.537  0.00  0.00    +0.006 A 
ATOM      4  C   UNL     1       6.656  -5.194  -3.768  0.00  0.00    +0.001 A 
ATOM      5  C   UNL     1       7.794  -5.909  -4.008  0.00  0.00    +0.008 A 
ATOM      6  C   UNL     1       8.743  -6.037  -2.981  0.00  0.00    -0.017 A 
ATOM      7  C   UNL     1       8.466  -5.415  -1.750  0.00  0.00    -0.008 A 
ATOM      8  C   UNL     1       9.334  -5.477  -0.664  0.00  0.00    -0.019 A 
ATOM      9  C   UNL     1      10.495  -6.171  -0.815  0.00  0.00    +0.006 A 
ATOM     10  C   UNL     1      10.792  -6.797  -2.028  0.00  0.00    +0.001 A 
ATOM     11  C   UNL     1       9.950  -6.745  -3.101  0.00  0.00    +0.008 A 
ATOM     12  C   UNL     1       8.701  -4.699   0.466  0.00  0.00    +0.131 C 
ENDROOT
BRANCH   1  13
ATOM     13  N   UNL     1       7.339  -2.714  -0.086  0.00  0.00    -0.335 N 
ATOM     14  H   UNL     1       8.171  -2.216  -0.087  0.00  0.00    +0.147 HD
BRANCH  13  18
ATOM     15  C   UNL     1       3.699  -0.689  -0.037  0.00  0.00    -0.018 A 
ATOM     16  C   UNL     1       4.895   0.026  -0.040  0.00  0.00    +0.010 A 
ATOM     17  C   UNL     1       6.099  -0.646  -0.055  0.00  0.00    +0.023 A 
ATOM     18  C   UNL     1       6.119  -2.036  -0.069  0.00  0.00    +0.028 A 
ATOM     19  C   UNL     1       4.927  -2.751  -0.068  0.00  0.00    +0.023 A 
ATOM     20  C   UNL     1       3.721  -2.082  -0.045  0.00  0.00    +0.010 A 
BRANCH  15  24
ATOM     21  C   UNL     1      -0.017   1.379   0.010  0.00  0.00    +0.000 A 
ATOM     22  C   UNL     1       1.169   2.092   0.002  0.00  0.00    +0.001 A 
ATOM     23  C   UNL     1       2.377   1.426  -0.013  0.00  0.00    +0.008 A 
ATOM     24  C   UNL     1       2.402   0.033  -0.021  0.00  0.00    -0.018 A 
ATOM     25  C   UNL     1       1.205  -0.680  -0.013  0.00  0.00    +0.008 A 
ATOM     26  C   UNL     1       0.002  -0.004   0.002  0.00  0.00    +0.001 A 
ENDBRANCH  15  24
ENDBRANCH  13  18
ENDBRANCH   1  13
BRANCH  12  27
ATOM     27  N   UNL     1       8.460  -5.575   1.615  0.00  0.00    -0.180 NA
ATOM     28  H   UNL     1       7.680  -6.151   1.631  0.00  0.00    +0.149 HD
BRANCH  27  29
ATOM     29  S   UNL     1       9.521  -5.583   2.887  0.00  0.00    +0.059 S 
ATOM     30  O   UNL     1       9.005  -6.502   3.840  0.00  0.00    -0.153 OA
ATOM     31  O   UNL     1      10.822  -5.713   2.330  0.00  0.00    -0.153 OA
BRANCH  29  32
ATOM     32  C   UNL     1       9.450  -3.989   3.634  0.00  0.00    +0.105 A 
ATOM     33  C   UNL     1      10.291  -2.983   3.198  0.00  0.00    +0.028 A 
ATOM     34  C   UNL     1      10.236  -1.732   3.784  0.00  0.00    +0.002 A 
ATOM     35  C   UNL     1       9.338  -1.488   4.807  0.00  0.00    +0.000 A 
ATOM     36  C   UNL     1       8.496  -2.494   5.243  0.00  0.00    +0.002 A 
ATOM     37  C   UNL     1       8.549  -3.743   4.653  0.00  0.00    +0.028 A 
ENDBRANCH  29  32
ENDBRANCH  27  29
ENDBRANCH  12  27
TORSDOF 6
