REMARK  Name = ZINC57049736
REMARK  6 active torsions:
REMARK  status: ('A' for Active; 'I' for Inactive)
REMARK    1  A    between atoms: C_6  and  C_7
REMARK    2  A    between atoms: N_18  and  C_24
REMARK    3  A    between atoms: C_24  and  C_25
REMARK    4  A    between atoms: C_25  and  C_27
REMARK    5  A    between atoms: C_25  and  O_35
REMARK    6  A    between atoms: C_27  and  N_28
REMARK                            x       y       z     vdW  Elec       q    Type
REMARK                         _______ _______ _______ _____ _____    ______ ____
ROOT
ATOM      1  C   UNL     1      -0.031   1.207   0.368  0.00  0.00    +0.006 A 
ATOM      2  C   UNL     1       1.089   2.006   0.218  0.00  0.00    +0.027 A 
ATOM      3  C   UNL     1       2.326   1.370   0.182  0.00  0.00    +0.050 A 
ATOM      4  C   UNL     1       2.412  -0.051   0.295  0.00  0.00    +0.004 A 
ATOM      5  C   UNL     1       1.260  -0.829   0.447  0.00  0.00    +0.014 A 
ATOM      6  C   UNL     1       0.057  -0.171   0.479  0.00  0.00    -0.044 A 
ATOM      7  C   UNL     1       3.811  -0.373   0.215  0.00  0.00    -0.017 A 
ATOM      8  C   UNL     1       4.463   0.794   0.046  0.00  0.00    +0.040 A 
ATOM      9  N   UNL     1       3.595   1.850   0.055  0.00  0.00    -0.341 N 
ATOM     10  C   UNL     1       4.079   3.236  -0.045  0.00  0.00    +0.137 C 
ATOM     11  C   UNL     1       5.526   3.200  -0.551  0.00  0.00    +0.106 C 
ATOM     12  N   UNL     1       6.339   2.253   0.225  0.00  0.00    -0.290 NA
ATOM     13  C   UNL     1       5.968   0.859  -0.092  0.00  0.00    +0.104 C 
ATOM     14  C   UNL     1       6.578  -0.099   0.918  0.00  0.00    +0.025 C 
ATOM     15  C   UNL     1       5.859  -1.410   1.119  0.00  0.00    +0.007 C 
ATOM     16  C   UNL     1       4.606  -1.647   0.288  0.00  0.00    +0.037 C 
ENDROOT
BRANCH   6  17
ATOM     17  C   UNL     1      -1.210  -0.972   0.641  0.00  0.00    +0.019 C 
ATOM     18  C   UNL     1      -2.117  -0.741  -0.569  0.00  0.00    +0.008 C 
ATOM     19  C   UNL     1      -3.403  -1.554  -0.404  0.00  0.00    +0.001 C 
ATOM     20  C   UNL     1      -4.127  -1.111   0.869  0.00  0.00    +0.000 C 
ATOM     21  C   UNL     1      -3.219  -1.342   2.078  0.00  0.00    +0.001 C 
ATOM     22  C   UNL     1      -1.934  -0.529   1.914  0.00  0.00    +0.008 C 
ENDBRANCH   6  17
BRANCH  12  23
ATOM     23  C   UNL     1       7.772   2.481  -0.002  0.00  0.00    +0.114 C 
BRANCH  23  24
ATOM     24  C   UNL     1       8.229   3.699   0.803  0.00  0.00    +0.112 C 
BRANCH  24  25
ATOM     25  O   UNL     1       7.606   4.875   0.282  0.00  0.00    -0.392 OA
ATOM     26  H   UNL     1       7.813   5.052  -0.645  0.00  0.00    +0.210 HD
ENDBRANCH  24  25
BRANCH  24  27
ATOM     27  C   UNL     1       9.749   3.839   0.699  0.00  0.00    -0.046 C 
BRANCH  27  28
ATOM     28  N   UNL     1      10.198   4.952   1.547  0.00  0.00    +0.381 N 
ATOM     29  C   UNL     1      11.615   5.234   1.247  0.00  0.00    -0.079 C 
ATOM     30  C   UNL     1      11.901   6.668   1.615  0.00  0.00    -0.019 C 
ATOM     31  C   UNL     1      12.508   6.778   3.025  0.00  0.00    -0.002 C 
ATOM     32  C   UNL     1      11.824   5.818   4.019  0.00  0.00    -0.002 C 
ATOM     33  C   UNL     1      10.328   5.774   3.838  0.00  0.00    -0.019 C 
ATOM     34  C   UNL     1       9.971   4.616   2.883  0.00  0.00    -0.079 C 
ATOM     35  H   UNL     1       9.652   5.770   1.321  0.00  0.00    -0.082 HD
ENDBRANCH  27  28
ENDBRANCH  24  27
ENDBRANCH  23  24
ENDBRANCH  12  23
TORSDOF 6
