REMARK  Name = ZINC30595242
REMARK  9 active torsions:
REMARK  status: ('A' for Active; 'I' for Inactive)
REMARK    1  A    between atoms: C_1  and  C_2
REMARK    2  A    between atoms: C_2  and  C_4
REMARK    3  A    between atoms: C_2  and  N_19
REMARK    4  A    between atoms: N_6  and  C_7
REMARK    5  A    between atoms: C_7  and  C_8
REMARK    6  A    between atoms: C_8  and  C_9
REMARK    7  A    between atoms: N_22  and  S_25
REMARK    8  A    between atoms: S_25  and  C_28
REMARK    9  A    between atoms: C_29  and  C_30
REMARK                            x       y       z     vdW  Elec       q    Type
REMARK                         _______ _______ _______ _____ _____    ______ ____
ROOT
ATOM      1  C   UNL     1       0.721  -0.752   1.126  0.00  0.00    -0.004 C 
ATOM      2  C   UNL     1       0.002  -0.004   0.002  0.00  0.00    +0.016 C 
ENDROOT
BRANCH   2   3
ATOM      3  N   UNL     1      -1.411  -0.404  -0.026  0.00  0.00    +0.389 N 
ATOM      4  C   UNL     1      -2.163   0.244   1.057  0.00  0.00    -0.060 C 
ATOM      5  C   UNL     1      -3.657  -0.052   0.885  0.00  0.00    +0.091 C 
ATOM      6  N   UNL     1      -3.836  -1.509   0.788  0.00  0.00    -0.181 NA
ATOM      7  C   UNL     1      -3.015  -2.248  -0.182  0.00  0.00    +0.091 C 
ATOM      8  C   UNL     1      -1.546  -1.865   0.031  0.00  0.00    -0.060 C 
ATOM      9  H   UNL     1      -1.841  -0.065  -0.981  0.00  0.00    -0.081 HD
BRANCH   6  10
ATOM     10  S   UNL     1      -4.934  -2.296   1.746  0.00  0.00    +0.054 S 
ATOM     11  O   UNL     1      -5.908  -1.332   2.124  0.00  0.00    -0.153 OA
ATOM     12  O   UNL     1      -5.275  -3.498   1.070  0.00  0.00    -0.153 OA
BRANCH  10  13
ATOM     13  C   UNL     1      -4.094  -2.768   3.222  0.00  0.00    +0.153 C 
ATOM     14  C   UNL     1      -4.451  -2.241   4.385  0.00  0.00    +0.028 C 
BRANCH  14  15
ATOM     15  C   UNL     1      -3.747  -2.638   5.622  0.00  0.00    -0.024 A 
ATOM     16  C   UNL     1      -2.709  -3.569   5.571  0.00  0.00    +0.008 A 
ATOM     17  C   UNL     1      -2.052  -3.930   6.729  0.00  0.00    +0.001 A 
ATOM     18  C   UNL     1      -2.427  -3.380   7.941  0.00  0.00    +0.000 A 
ATOM     19  C   UNL     1      -3.458  -2.459   8.000  0.00  0.00    +0.001 A 
ATOM     20  C   UNL     1      -4.120  -2.086   6.848  0.00  0.00    +0.008 A 
ENDBRANCH  14  15
ENDBRANCH  10  13
ENDBRANCH   6  10
ENDBRANCH   2   3
BRANCH   2  21
ATOM     21  C   UNL     1       0.646  -0.342  -1.318  0.00  0.00    +0.199 C 
ATOM     22  O   UNL     1       0.088  -1.091  -2.091  0.00  0.00    -0.278 OA
ATOM     23  N   UNL     1       1.845   0.186  -1.637  0.00  0.00    -0.316 N 
ATOM     24  H   UNL     1       2.353   0.862  -0.935  0.00  0.00    +0.149 HD
BRANCH  23  25
ATOM     25  C   UNL     1       2.470  -0.142  -2.921  0.00  0.00    +0.109 C 
BRANCH  25  26
ATOM     26  C   UNL     1       3.814   0.582  -3.033  0.00  0.00    +0.056 C 
BRANCH  26  27
ATOM     27  C   UNL     1       4.458   0.244  -4.353  0.00  0.00    -0.021 A 
ATOM     28  C   UNL     1       5.368  -0.717  -4.575  0.00  0.00    +0.087 A 
ATOM     29  N   UNL     1       5.721  -0.730  -5.897  0.00  0.00    -0.360 N 
ATOM     30  H   UNL     1       6.456  -1.461  -6.263  0.00  0.00    +0.165 HD
ATOM     31  C   UNL     1       5.035   0.254  -6.573  0.00  0.00    +0.047 A 
ATOM     32  C   UNL     1       4.214   0.907  -5.636  0.00  0.00    +0.003 A 
ATOM     33  C   UNL     1       3.394   1.962  -6.043  0.00  0.00    +0.010 A 
ATOM     34  C   UNL     1       3.394   2.354  -7.352  0.00  0.00    +0.001 A 
ATOM     35  C   UNL     1       4.203   1.714  -8.281  0.00  0.00    +0.002 A 
ATOM     36  C   UNL     1       5.019   0.671  -7.900  0.00  0.00    +0.026 A 
ENDBRANCH  26  27
ENDBRANCH  25  26
ENDBRANCH  23  25
ENDBRANCH   2  21
TORSDOF 8
