REMARK  Name = ZINC06149340
REMARK  10 active torsions:
REMARK  status: ('A' for Active; 'I' for Inactive)
REMARK    1  A    between atoms: C_1  and  C_2
REMARK    2  A    between atoms: C_2  and  C_3
REMARK    3  A    between atoms: C_3  and  C_4
REMARK    4  A    between atoms: C_3  and  C_5
REMARK    5  A    between atoms: C_3  and  N_6
REMARK    6  A    between atoms: C_7  and  C_11
REMARK    7  A    between atoms: C_11  and  C_13
REMARK    8  A    between atoms: C_11  and  N_66
REMARK    9  A    between atoms: C_16  and  C_26
REMARK   10  A    between atoms: C_18  and  C_25
REMARK                            x       y       z     vdW  Elec       q    Type
REMARK                         _______ _______ _______ _____ _____    ______ ____
ROOT
ATOM      1  C   UNL     1      -2.175   1.070   0.178  0.00  0.00    +0.039 C 
ENDROOT
BRANCH   1   2
ATOM      2  C   UNL     1      -0.884   1.824   0.370  0.00  0.00    +0.011 A 
ATOM      3  C   UNL     1       0.283   1.146   0.496  0.00  0.00    +0.018 A 
ATOM      4  C   UNL     1       1.520   1.909   0.675  0.00  0.00    +0.002 A 
ATOM      5  C   UNL     1       2.755   1.264   0.804  0.00  0.00    -0.041 A 
ATOM      6  C   UNL     1       3.890   2.005   0.970  0.00  0.00    +0.007 A 
ATOM      7  C   UNL     1       3.830   3.391   1.012  0.00  0.00    -0.048 A 
ATOM      8  C   UNL     1       2.624   4.047   0.887  0.00  0.00    +0.029 A 
ATOM      9  C   UNL     1       1.454   3.314   0.717  0.00  0.00    +0.050 A 
ATOM     10  N   UNL     1       0.235   3.944   0.589  0.00  0.00    -0.322 N 
ATOM     11  H   UNL     1       0.190   4.942   0.619  0.00  0.00    +0.169 HD
ATOM     12  C   UNL     1      -0.896   3.235   0.424  0.00  0.00    +0.251 A 
ATOM     13  O   UNL     1      -1.956   3.825   0.314  0.00  0.00    -0.268 OA
ATOM     14  C   UNL     1       5.096   4.187   1.197  0.00  0.00    +0.044 C 
ATOM     15  C   UNL     1       2.832  -0.240   0.761  0.00  0.00    +0.044 C 
ENDBRANCH   1   2
BRANCH   1  25
ATOM     16  C   UNL     1      -4.053   0.757  -1.321  0.00  0.00    -0.072 C 
ATOM     17  C   UNL     1      -4.899   1.510  -2.348  0.00  0.00    +0.017 C 
ATOM     18  C   UNL     1      -4.043   1.917  -3.520  0.00  0.00    -0.048 A 
ATOM     19  C   UNL     1      -4.670   2.287  -4.700  0.00  0.00    +0.004 A 
ATOM     20  C   UNL     1      -3.923   2.671  -5.796  0.00  0.00    +0.000 A 
ATOM     21  C   UNL     1      -2.543   2.688  -5.716  0.00  0.00    +0.000 A 
ATOM     22  C   UNL     1      -1.918   2.318  -4.543  0.00  0.00    +0.002 A 
ATOM     23  C   UNL     1      -2.667   1.930  -3.441  0.00  0.00    -0.061 A 
ATOM     24  C   UNL     1      -1.939   1.527  -2.186  0.00  0.00    -0.041 C 
ATOM     25  N   UNL     1      -2.857   1.575  -1.035  0.00  0.00    +0.392 N 
ATOM     26  H   UNL     1      -3.145   2.547  -0.876  0.00  0.00    -0.080 HD
ENDBRANCH   1  25
BRANCH   1  28
ATOM     27  N   UNL     1      -3.409   0.381   2.301  0.00  0.00    -0.225 N 
ATOM     28  C   UNL     1      -3.069   1.292   1.371  0.00  0.00    +0.143 A 
ATOM     29  N   UNL     1      -3.670   2.409   1.701  0.00  0.00    -0.115 NA
ATOM     30  N   UNL     1      -4.341   2.196   2.780  0.00  0.00    -0.023 NA
ATOM     31  N   UNL     1      -4.183   0.973   3.147  0.00  0.00    -0.043 NA
BRANCH  27  32
ATOM     32  C   UNL     1      -2.980  -1.019   2.346  0.00  0.00    +0.061 C 
ATOM     33  C   UNL     1      -3.496  -1.751   1.106  0.00  0.00    +0.036 C 
ATOM     34  C   UNL     1      -1.451  -1.082   2.377  0.00  0.00    +0.036 C 
BRANCH  32  36
ATOM     35  C   UNL     1      -3.094  -3.147   3.650  0.00  0.00    +0.006 C 
ATOM     36  C   UNL     1      -3.543  -1.685   3.603  0.00  0.00    +0.026 C 
ENDBRANCH  32  36
ENDBRANCH  27  32
ENDBRANCH   1  28
TORSDOF 5
