REMARK  Name = ZINC67184526
REMARK  6 active torsions:
REMARK  status: ('A' for Active; 'I' for Inactive)
REMARK    1  A    between atoms: C_8  and  C_10
REMARK    2  A    between atoms: C_11  and  C_16
REMARK    3  A    between atoms: C_16  and  N_17
REMARK    4  A    between atoms: N_17  and  C_18
REMARK    5  A    between atoms: C_18  and  C_19
REMARK    6  A    between atoms: C_19  and  C_20
REMARK                            x       y       z     vdW  Elec       q    Type
REMARK                         _______ _______ _______ _____ _____    ______ ____
ROOT
ATOM      1  C   UNL     1       5.737  -2.438  -1.534  0.00  0.00    -0.043 C 
ENDROOT
BRANCH   1   3
ATOM      2  C   UNL     1       3.796  -3.333  -0.053  0.00  0.00    +0.129 A 
ATOM      3  C   UNL     1       5.032  -3.488  -0.715  0.00  0.00    -0.016 A 
ATOM      4  C   UNL     1       5.470  -4.744  -0.485  0.00  0.00    +0.107 A 
ATOM      5  N   UNL     1       4.557  -5.370   0.291  0.00  0.00    -0.284 N 
ATOM      6  H   UNL     1       4.614  -6.283   0.612  0.00  0.00    +0.188 HD
ATOM      7  N   UNL     1       3.518  -4.469   0.556  0.00  0.00    -0.171 NA
BRANCH   2  15
ATOM      8  C   UNL     1      -0.017   1.363   0.009  0.00  0.00    +0.001 A 
ATOM      9  C   UNL     1       1.170   2.082   0.002  0.00  0.00    +0.004 A 
ATOM     10  C   UNL     1       2.387   1.432  -0.013  0.00  0.00    +0.047 A 
ATOM     11  C   UNL     1       2.429   0.044  -0.021  0.00  0.00    +0.136 A 
ATOM     12  C   UNL     1       1.223  -0.679  -0.013  0.00  0.00    +0.021 A 
ATOM     13  C   UNL     1       0.002  -0.004   0.002  0.00  0.00    +0.011 A 
ATOM     14  C   UNL     1       1.610  -2.092  -0.025  0.00  0.00    +0.060 A 
ATOM     15  C   UNL     1       2.964  -2.111  -0.038  0.00  0.00    +0.156 A 
ATOM     16  O   UNL     1       3.439  -0.850  -0.036  0.00  0.00    -0.453 OA
ENDBRANCH   2  15
ENDBRANCH   1   3
BRANCH   1  17
ATOM     17  N   UNL     1       6.441  -1.510  -0.639  0.00  0.00    +0.382 N 
ATOM     18  H   UNL     1       5.776  -1.066  -0.024  0.00  0.00    -0.085 HD
ATOM     19  H   UNL     1       7.117  -2.020  -0.090  0.00  0.00    -0.085 HD
BRANCH  17  20
ATOM     20  C   UNL     1       7.129  -0.487  -1.437  0.00  0.00    -0.081 C 
BRANCH  20  21
ATOM     21  C   UNL     1       7.862   0.480  -0.505  0.00  0.00    -0.002 C 
BRANCH  21  22
ATOM     22  C   UNL     1       8.579   1.546  -1.337  0.00  0.00    +0.105 C 
ATOM     23  C   UNL     1       9.248   2.558  -0.436  0.00  0.00    -0.014 A 
ATOM     24  C   UNL     1       8.765   3.438   0.505  0.00  0.00    +0.006 A 
ATOM     25  C   UNL     1       9.639   4.264   1.191  0.00  0.00    +0.000 A 
ATOM     26  C   UNL     1      10.995   4.202   0.927  0.00  0.00    +0.002 A 
ATOM     27  C   UNL     1      11.482   3.320  -0.016  0.00  0.00    +0.023 A 
ATOM     28  C   UNL     1      10.608   2.486  -0.711  0.00  0.00    +0.037 A 
ATOM     29  N   UNL     1      10.852   1.527  -1.694  0.00  0.00    -0.285 N 
ATOM     30  C   UNL     1       9.721   0.930  -2.117  0.00  0.00    +0.225 C 
ATOM     31  O   UNL     1       9.632   0.064  -2.962  0.00  0.00    -0.275 OA
ATOM     32  H   UNL     1      11.734   1.314  -2.036  0.00  0.00    +0.155 HD
ENDBRANCH  21  22
ENDBRANCH  20  21
ENDBRANCH  17  20
ENDBRANCH   1  17
TORSDOF 6
