REMARK  Name = ZINC25402770
REMARK  10 active torsions:
REMARK  status: ('A' for Active; 'I' for Inactive)
REMARK    1  A    between atoms: C_1  and  C_2
REMARK    2  A    between atoms: C_3  and  C_29
REMARK    3  A    between atoms: C_4  and  C_28
REMARK    4  A    between atoms: C_5  and  S_10
REMARK    5  A    between atoms: C_6  and  C_9
REMARK    6  A    between atoms: C_7  and  C_8
REMARK    7  A    between atoms: S_10  and  N_13
REMARK    8  A    between atoms: N_16  and  C_19
REMARK    9  A    between atoms: C_19  and  C_20
REMARK   10  A    between atoms: N_22  and  C_23
REMARK                            x       y       z     vdW  Elec       q    Type
REMARK                         _______ _______ _______ _____ _____    ______ ____
ROOT
ATOM      1  N   UNL     1      -1.303   1.003   1.492  0.00  0.00    -0.180 NA
ATOM      2  C   UNL     1      -0.765   0.439   0.245  0.00  0.00    +0.091 C 
ATOM      3  C   UNL     1      -1.749   0.736  -0.893  0.00  0.00    -0.061 C 
ATOM      4  N   UNL     1      -2.025   2.178  -0.933  0.00  0.00    +0.387 N 
ATOM      5  C   UNL     1      -2.681   2.629   0.302  0.00  0.00    -0.061 C 
ATOM      6  C   UNL     1      -1.736   2.410   1.488  0.00  0.00    +0.091 C 
ATOM      7  H   UNL     1      -1.060   2.701  -1.009  0.00  0.00    -0.081 HD
ENDROOT
BRANCH   1   8
ATOM      8  S   UNL     1      -1.423   0.079   2.861  0.00  0.00    +0.061 S 
ATOM      9  O   UNL     1      -2.437   0.671   3.662  0.00  0.00    -0.153 OA
ATOM     10  O   UNL     1      -1.484  -1.274   2.433  0.00  0.00    -0.153 OA
BRANCH   8  15
ATOM     11  C   UNL     1       3.756   0.699   5.893  0.00  0.00    +0.044 C 
ATOM     12  C   UNL     1       2.462   0.544   5.136  0.00  0.00    -0.044 A 
ATOM     13  C   UNL     1       1.367   1.317   5.474  0.00  0.00    -0.043 A 
ATOM     14  C   UNL     1       0.180   1.174   4.779  0.00  0.00    -0.021 A 
ATOM     15  C   UNL     1       0.089   0.261   3.746  0.00  0.00    +0.112 A 
ATOM     16  C   UNL     1       1.183  -0.515   3.411  0.00  0.00    -0.021 A 
ATOM     17  C   UNL     1       2.371  -0.370   4.103  0.00  0.00    -0.043 A 
ATOM     18  C   UNL     1       3.566  -1.212   3.734  0.00  0.00    +0.044 C 
ATOM     19  C   UNL     1       1.082  -1.516   2.289  0.00  0.00    +0.046 C 
ATOM     20  C   UNL     1      -1.015   2.016   5.148  0.00  0.00    +0.046 C 
ATOM     21  C   UNL     1       1.466   2.313   6.600  0.00  0.00    +0.044 C 
ENDBRANCH   8  15
ENDBRANCH   1   8
BRANCH   4  22
ATOM     22  C   UNL     1      -2.826   2.528  -2.113  0.00  0.00    +0.019 C 
BRANCH  22  23
ATOM     23  C   UNL     1      -2.882   4.027  -2.256  0.00  0.00    +0.197 C 
ATOM     24  O   UNL     1      -2.311   4.734  -1.453  0.00  0.00    -0.278 OA
ATOM     25  N   UNL     1      -3.568   4.582  -3.275  0.00  0.00    -0.314 N 
ATOM     26  H   UNL     1      -4.086   3.940  -4.003  0.00  0.00    +0.149 HD
BRANCH  25  27
ATOM     27  C   UNL     1      -3.622   6.039  -3.414  0.00  0.00    +0.073 C 
ATOM     28  C   UNL     1      -4.804   6.604  -2.599  0.00  0.00    +0.022 C 
ATOM     29  C   UNL     1      -5.348   7.762  -3.471  0.00  0.00    +0.002 C 
ATOM     30  C   UNL     1      -5.209   7.202  -4.908  0.00  0.00    +0.002 C 
ATOM     31  C   UNL     1      -3.879   6.420  -4.882  0.00  0.00    +0.022 C 
ENDBRANCH  25  27
ENDBRANCH  22  23
ENDBRANCH   4  22
TORSDOF 5
