REMARK  Name = ZINC32866139
REMARK  7 active torsions:
REMARK  status: ('A' for Active; 'I' for Inactive)
REMARK    1  A    between atoms: C_6  and  O_7
REMARK    2  A    between atoms: O_7  and  C_8
REMARK    3  A    between atoms: C_8  and  C_9
REMARK    4  A    between atoms: C_12  and  S_15
REMARK    5  A    between atoms: S_15  and  C_16
REMARK    6  A    between atoms: C_16  and  C_17
REMARK    7  A    between atoms: C_22  and  C_25
REMARK                            x       y       z     vdW  Elec       q    Type
REMARK                         _______ _______ _______ _____ _____    ______ ____
ROOT
ATOM      1  C   UNL     1      -7.097   5.577   0.066  0.00  0.00    +0.173 C 
ENDROOT
BRANCH   1   2
ATOM      2  C   UNL     1      -8.604   5.533   0.072  0.00  0.00    +0.229 C 
ATOM      3  O   UNL     1      -9.179   4.465   0.069  0.00  0.00    -0.275 OA
ATOM      4  N   UNL     1      -9.311   6.680   0.082  0.00  0.00    -0.264 N 
ATOM      5  C   UNL     1     -10.700   6.639   0.088  0.00  0.00    +0.165 A 
ATOM      6  N   UNL     1     -11.565   7.636   0.097  0.00  0.00    -0.225 NA
ATOM      7  C   UNL     1     -12.871   7.414   0.102  0.00  0.00    +0.080 A 
ATOM      8  C   UNL     1     -13.332   6.127   0.096  0.00  0.00    +0.076 A 
ATOM      9  S   UNL     1     -11.790   5.223   0.077  0.00  0.00    -0.060 S 
ATOM     10  H   UNL     1      -8.790   7.648   0.085  0.00  0.00    +0.157 HD
BRANCH   7  11
ATOM     11  C   UNL     1     -13.824   8.551   0.113  0.00  0.00    +0.004 A 
ATOM     12  C   UNL     1     -13.348   9.861   0.118  0.00  0.00    +0.013 A 
ATOM     13  C   UNL     1     -14.237  10.917   0.129  0.00  0.00    +0.042 A 
ATOM     14  C   UNL     1     -15.601  10.677   0.133  0.00  0.00    +0.158 A 
ATOM     15  C   UNL     1     -16.080   9.374   0.127  0.00  0.00    +0.159 A 
ATOM     16  C   UNL     1     -15.197   8.312   0.112  0.00  0.00    +0.051 A 
ATOM     17  F   UNL     1     -17.412   9.145   0.131  0.00  0.00    -0.202 F 
ATOM     18  F   UNL     1     -16.468  11.713   0.143  0.00  0.00    -0.202 F 
ENDBRANCH   7  11
ENDBRANCH   1   2
BRANCH   1  19
ATOM     19  S   UNL     1      -6.444   3.889   0.053  0.00  0.00    -0.077 S 
BRANCH  19  23
ATOM     20  C   UNL     1      -2.546   4.033   0.036  0.00  0.00    +0.189 A 
ATOM     21  N   UNL     1      -3.707   3.310   0.038  0.00  0.00    -0.202 NA
ATOM     22  H   UNL     1      -4.610   6.418   0.055  0.00  0.00    +0.191 HD
ATOM     23  C   UNL     1      -4.715   4.230   0.047  0.00  0.00    +0.185 A 
ATOM     24  N   UNL     1      -4.154   5.417   0.051  0.00  0.00    -0.253 N 
ATOM     25  N   UNL     1      -2.874   5.294   0.051  0.00  0.00    -0.153 NA
BRANCH  20  26
ATOM     26  C   UNL     1      -1.146   3.475   0.020  0.00  0.00    +0.306 C 
BRANCH  26  27
ATOM     27  O   UNL     1      -1.202   2.047   0.015  0.00  0.00    -0.484 OA
BRANCH  27  33
ATOM     28  C   UNL     1       1.176   2.091  -0.014  0.00  0.00    +0.047 A 
ATOM     29  C   UNL     1       2.380   1.414  -0.033  0.00  0.00    +0.023 A 
ATOM     30  C   UNL     1       2.397   0.031  -0.040  0.00  0.00    +0.041 A 
ATOM     31  C   UNL     1       1.208  -0.677  -0.026  0.00  0.00    +0.023 A 
ATOM     32  C   UNL     1       0.002  -0.004  -0.005  0.00  0.00    +0.047 A 
ATOM     33  C   UNL     1      -0.017   1.383   0.000  0.00  0.00    +0.121 A 
ATOM     34 CL   UNL     1       3.911  -0.818  -0.065  0.00  0.00    -0.084 Cl
ENDBRANCH  27  33
ENDBRANCH  26  27
ENDBRANCH  20  26
ENDBRANCH  19  23
ENDBRANCH   1  19
TORSDOF 7
