REMARK  Name = ZINC20751432
REMARK  7 active torsions:
REMARK  status: ('A' for Active; 'I' for Inactive)
REMARK    1  A    between atoms: C_1  and  N_2
REMARK    2  A    between atoms: N_2  and  C_3
REMARK    3  A    between atoms: N_2  and  S_10
REMARK    4  A    between atoms: C_3  and  C_4
REMARK    5  A    between atoms: S_10  and  C_13
REMARK    6  A    between atoms: C_26  and  C_29
REMARK    7  A    between atoms: C_38  and  O_39
REMARK                            x       y       z     vdW  Elec       q    Type
REMARK                         _______ _______ _______ _____ _____    ______ ____
ROOT
ATOM      1  C   UNL     1       1.171   3.505   2.160  0.00  0.00    +0.106 A 
ATOM      2  C   UNL     1       2.350   3.991   1.624  0.00  0.00    +0.030 A 
ATOM      3  C   UNL     1       2.628   5.342   1.693  0.00  0.00    +0.025 A 
ATOM      4  C   UNL     1       1.728   6.205   2.308  0.00  0.00    +0.031 A 
ATOM      5  C   UNL     1       0.552   5.722   2.852  0.00  0.00    -0.018 A 
ATOM      6  C   UNL     1       0.279   4.363   2.771  0.00  0.00    +0.034 A 
ATOM      7  C   UNL     1      -0.455   6.605   3.539  0.00  0.00    +0.049 C 
ATOM      8  C   UNL     1      -0.604   6.098   4.967  0.00  0.00    -0.023 C 
ATOM      9  C   UNL     1       0.159   6.788   5.778  0.00  0.00    -0.030 C 
ATOM     10  C   UNL     1       0.922   7.853   5.011  0.00  0.00    +0.033 C 
ATOM     11  C   UNL     1       0.065   8.040   3.737  0.00  0.00    +0.029 C 
ATOM     12  C   UNL     1       0.916   8.507   2.571  0.00  0.00    +0.109 C 
ATOM     13  N   UNL     1       2.028   7.571   2.369  0.00  0.00    -0.336 N 
ATOM     14  H   UNL     1       3.056   7.950   2.271  0.00  0.00    +0.147 HD
ENDROOT
BRANCH  12  15
ATOM     15  C   UNL     1       0.072   8.560   1.323  0.00  0.00    +0.022 A 
ATOM     16  C   UNL     1       0.682   8.610   0.059  0.00  0.00    -0.009 A 
ATOM     17  C   UNL     1       2.082   8.611  -0.075  0.00  0.00    +0.009 A 
ATOM     18  C   UNL     1       2.639   8.660  -1.316  0.00  0.00    +0.001 A 
ATOM     19  C   UNL     1       1.843   8.709  -2.458  0.00  0.00    +0.001 A 
ATOM     20  C   UNL     1       0.485   8.698  -2.367  0.00  0.00    +0.008 A 
ATOM     21  C   UNL     1      -0.128   8.654  -1.103  0.00  0.00    -0.017 A 
ATOM     22  C   UNL     1      -1.527   8.660  -0.971  0.00  0.00    +0.012 A 
ATOM     23  C   UNL     1      -2.087   8.616   0.268  0.00  0.00    +0.046 A 
ATOM     24  C   UNL     1      -1.290   8.566   1.416  0.00  0.00    +0.122 A 
BRANCH  24  25
ATOM     25  O   UNL     1      -1.880   8.523   2.640  0.00  0.00    -0.506 OA
ATOM     26  H   UNL     1      -2.977   8.528   2.722  0.00  0.00    +0.292 HD
ENDBRANCH  24  25
ENDBRANCH  12  15
BRANCH   1  27
ATOM     27  S   UNL     1       0.810   1.783   2.068  0.00  0.00    +0.061 S 
ATOM     28  O   UNL     1      -0.094   1.500   3.127  0.00  0.00    -0.153 OA
ATOM     29  O   UNL     1       2.056   1.113   1.930  0.00  0.00    -0.153 OA
BRANCH  27  31
ATOM     30  C   UNL     1       0.707   1.224  -0.576  0.00  0.00    +0.132 C 
ATOM     31  N   UNL     1      -0.021   1.532   0.657  0.00  0.00    -0.175 NA
BRANCH  31  32
ATOM     32  C   UNL     1      -1.483   1.618   0.643  0.00  0.00    +0.144 C 
BRANCH  32  33
ATOM     33  C   UNL     1      -2.069   0.240   0.813  0.00  0.00    -0.032 A 
ATOM     34  C   UNL     1      -2.340  -0.538  -0.297  0.00  0.00    +0.005 A 
ATOM     35  C   UNL     1      -2.873  -1.804  -0.141  0.00  0.00    +0.000 A 
ATOM     36  C   UNL     1      -3.145  -2.288   1.124  0.00  0.00    +0.000 A 
ATOM     37  C   UNL     1      -2.878  -1.509   2.235  0.00  0.00    +0.000 A 
ATOM     38  C   UNL     1      -2.341  -0.245   2.079  0.00  0.00    +0.005 A 
ENDBRANCH  32  33
ENDBRANCH  31  32
ENDBRANCH  27  31
ENDBRANCH   1  27
TORSDOF 6
