REMARK  Name = ZINC32944895
REMARK  12 active torsions:
REMARK  status: ('A' for Active; 'I' for Inactive)
REMARK    1  A    between atoms: C_1  and  C_2
REMARK    2  A    between atoms: C_2  and  N_3
REMARK    3  A    between atoms: N_3  and  C_4
REMARK    4  A    between atoms: C_5  and  N_20
REMARK    5  A    between atoms: N_6  and  C_13
REMARK    6  A    between atoms: C_13  and  C_14
REMARK    7  A    between atoms: C_21  and  C_23
REMARK    8  A    between atoms: C_23  and  S_24
REMARK    9  A    between atoms: S_24  and  C_25
REMARK   10  A    between atoms: C_28  and  C_31
REMARK   11  A    between atoms: N_29  and  C_30
REMARK   12  A    between atoms: C_36  and  C_37
REMARK                            x       y       z     vdW  Elec       q    Type
REMARK                         _______ _______ _______ _____ _____    ______ ____
ROOT
ATOM      1  N   UNL     1       0.691  -0.458  -1.167  0.00  0.00    -0.264 N 
ATOM      2  C   UNL     1      -0.020  -0.899  -2.226  0.00  0.00    +0.230 C 
ATOM      3  O   UNL     1       0.528  -1.536  -3.101  0.00  0.00    -0.274 OA
ENDROOT
BRANCH   1   4
ATOM      4  C   UNL     1       2.089  -0.645  -1.128  0.00  0.00    +0.140 A 
ATOM      5  C   UNL     1       2.660  -1.480  -0.189  0.00  0.00    +0.128 A 
ATOM      6  N   UNL     1       4.026  -1.642  -0.177  0.00  0.00    -0.276 N 
ATOM      7  C   UNL     1       4.796  -0.994  -1.069  0.00  0.00    +0.331 A 
ATOM      8  O   UNL     1       6.002  -1.150  -1.041  0.00  0.00    -0.246 OA
ATOM      9  N   UNL     1       4.258  -0.176  -1.991  0.00  0.00    -0.273 N 
ATOM     10  H   UNL     1       4.835   0.280  -2.623  0.00  0.00    +0.173 HD
ATOM     11  C   UNL     1       2.925   0.013  -2.050  0.00  0.00    +0.277 A 
ATOM     12  O   UNL     1       2.446   0.752  -2.893  0.00  0.00    -0.266 OA
BRANCH   5  13
ATOM     13  N   UNL     1       1.873  -2.142   0.722  0.00  0.00    -0.343 N 
ATOM     14  H   UNL     1       0.917  -1.976   0.749  0.00  0.00    +0.144 HD
ATOM     15  H   UNL     1       2.273  -2.775   1.339  0.00  0.00    +0.144 HD
ENDBRANCH   5  13
BRANCH   6  16
ATOM     16  C   UNL     1       4.645  -2.526   0.814  0.00  0.00    +0.163 C 
BRANCH  16  17
ATOM     17  C   UNL     1       4.736  -3.922   0.255  0.00  0.00    -0.028 A 
ATOM     18  C   UNL     1       3.696  -4.812   0.445  0.00  0.00    +0.005 A 
ATOM     19  C   UNL     1       3.779  -6.093  -0.069  0.00  0.00    +0.000 A 
ATOM     20  C   UNL     1       4.903  -6.484  -0.772  0.00  0.00    +0.000 A 
ATOM     21  C   UNL     1       5.944  -5.593  -0.962  0.00  0.00    +0.000 A 
ATOM     22  C   UNL     1       5.858  -4.311  -0.453  0.00  0.00    +0.005 A 
ENDBRANCH  16  17
ENDBRANCH   6  16
ENDBRANCH   1   4
BRANCH   1  24
ATOM     23  C   UNL     1       0.060   1.728  -0.271  0.00  0.00    +0.025 C 
ATOM     24  C   UNL     1       0.011   0.214  -0.057  0.00  0.00    +0.110 C 
ENDBRANCH   1  24
BRANCH   2  25
ATOM     25  C   UNL     1      -1.494  -0.600  -2.321  0.00  0.00    +0.173 C 
BRANCH  25  26
ATOM     26  S   UNL     1      -2.159  -1.321  -3.847  0.00  0.00    -0.077 S 
BRANCH  26  27
ATOM     27  C   UNL     1      -3.867  -0.890  -3.812  0.00  0.00    +0.192 A 
ATOM     28  N   UNL     1      -4.478  -0.197  -2.877  0.00  0.00    -0.122 NA
ATOM     29  N   UNL     1      -5.723  -0.067  -3.166  0.00  0.00    -0.128 NA
ATOM     30  C   UNL     1      -5.984  -0.668  -4.303  0.00  0.00    +0.165 A 
ATOM     31  N   UNL     1      -4.803  -1.210  -4.754  0.00  0.00    -0.305 N 
ATOM     32  C   UNL     1      -4.592  -1.972  -5.987  0.00  0.00    +0.153 C 
BRANCH  30  33
ATOM     33  C   UNL     1      -7.299  -0.745  -4.974  0.00  0.00    +0.022 A 
ATOM     34  C   UNL     1      -7.411  -0.445  -6.333  0.00  0.00    +0.012 A 
ATOM     35  C   UNL     1      -8.641  -0.519  -6.954  0.00  0.00    +0.001 A 
ATOM     36  C   UNL     1      -9.762  -0.890  -6.232  0.00  0.00    +0.000 A 
ATOM     37  C   UNL     1      -9.658  -1.189  -4.886  0.00  0.00    +0.004 A 
ATOM     38  C   UNL     1      -8.433  -1.125  -4.254  0.00  0.00    -0.040 A 
ATOM     39  C   UNL     1      -8.320  -1.457  -2.789  0.00  0.00    +0.044 C 
ENDBRANCH  30  33
ENDBRANCH  26  27
ENDBRANCH  25  26
ENDBRANCH   2  25
TORSDOF 9
