REMARK  Name = ZINC20132058
REMARK  10 active torsions:
REMARK  status: ('A' for Active; 'I' for Inactive)
REMARK    1  A    between atoms: C_1  and  C_2
REMARK    2  A    between atoms: C_6  and  C_20
REMARK    3  A    between atoms: N_8  and  C_9
REMARK    4  A    between atoms: C_12  and  O_17
REMARK    5  A    between atoms: C_13  and  O_15
REMARK    6  A    between atoms: O_15  and  C_16
REMARK    7  A    between atoms: O_17  and  C_18
REMARK    8  A    between atoms: C_20  and  N_22
REMARK    9  A    between atoms: C_23  and  C_26
REMARK   10  A    between atoms: C_26  and  O_27
REMARK                            x       y       z     vdW  Elec       q    Type
REMARK                         _______ _______ _______ _____ _____    ______ ____
ROOT
ATOM      1  C   UNL     1       0.566   7.262   0.078  0.00  0.00    +0.069 C 
ATOM      2  C   UNL     1       0.794   5.773   0.063  0.00  0.00    +0.081 A 
ATOM      3  C   UNL     1       2.088   5.274   0.034  0.00  0.00    +0.159 A 
ATOM      4  C   UNL     1       2.276   3.878   0.029  0.00  0.00    +0.027 A 
ATOM      5  C   UNL     1       3.634   3.331   0.012  0.00  0.00    +0.027 A 
ATOM      6  C   UNL     1       4.670   4.201   0.273  0.00  0.00    +0.064 A 
ATOM      7  C   UNL     1       4.317   5.609   0.550  0.00  0.00    +0.209 A 
ATOM      8  N   UNL     1       5.098   6.369   1.284  0.00  0.00    -0.325 N 
ATOM      9  O   UNL     1       3.163   6.097   0.013  0.00  0.00    -0.437 OA
ATOM     10  C   UNL     1       1.147   3.050   0.038  0.00  0.00    +0.007 A 
ATOM     11  C   UNL     1      -0.100   3.638   0.066  0.00  0.00    +0.117 A 
ATOM     12  N   UNL     1      -0.237   4.952   0.078  0.00  0.00    -0.256 NA
ATOM     13  H   UNL     1       5.983   5.936   1.775  0.00  0.00    +0.169 HD
ENDROOT
BRANCH   8  14
ATOM     14  C   UNL     1       4.811   7.697   1.440  0.00  0.00    +0.046 A 
ATOM     15  C   UNL     1       4.078   8.131   2.547  0.00  0.00    +0.029 A 
ATOM     16  C   UNL     1       3.790   9.471   2.702  0.00  0.00    +0.051 A 
ATOM     17  C   UNL     1       4.225  10.390   1.759  0.00  0.00    +0.162 A 
ATOM     18  C   UNL     1       4.956   9.966   0.653  0.00  0.00    +0.163 A 
ATOM     19  C   UNL     1       5.254   8.625   0.494  0.00  0.00    +0.075 A 
BRANCH  18  20
ATOM     20  O   UNL     1       5.381  10.871  -0.269  0.00  0.00    -0.491 OA
ATOM     21  C   UNL     1       6.126  10.365  -1.379  0.00  0.00    +0.277 C 
ENDBRANCH  18  20
BRANCH  17  22
ATOM     22  O   UNL     1       3.938  11.711   1.917  0.00  0.00    -0.491 OA
ATOM     23  C   UNL     1       3.185  12.078   3.075  0.00  0.00    +0.277 C 
ENDBRANCH  17  22
ENDBRANCH   8  14
BRANCH   6  24
ATOM     24  C   UNL     1       6.070   3.747   0.276  0.00  0.00    +0.082 C 
ATOM     25  S   UNL     1       6.439   2.107  -0.050  0.00  0.00    -0.035 S 
BRANCH  24  26
ATOM     26  N   UNL     1       7.062   4.622   0.535  0.00  0.00    -0.352 N 
ATOM     27  H   UNL     1       8.108   4.282   0.537  0.00  0.00    +0.143 HD
ATOM     28  H   UNL     1       6.825   5.675   0.745  0.00  0.00    +0.143 HD
ENDBRANCH  24  26
ENDBRANCH   6  24
BRANCH  10  29
ATOM     29  C   UNL     1       1.292   1.550   0.025  0.00  0.00    +0.193 C 
BRANCH  29  30
ATOM     30  O   UNL     1      -0.003   0.946   0.045  0.00  0.00    -0.390 OA
ATOM     31  H   UNL     1      -0.099  -0.149   0.040  0.00  0.00    +0.210 HD
ENDBRANCH  29  30
ENDBRANCH  10  29
TORSDOF 7
