REMARK  Name = ZINC03765032
REMARK  8 active torsions:
REMARK  status: ('A' for Active; 'I' for Inactive)
REMARK    1  A    between atoms: C_1  and  C_2
REMARK    2  A    between atoms: C_2  and  O_3
REMARK    3  A    between atoms: O_3  and  C_4
REMARK    4  A    between atoms: C_6  and  C_23
REMARK    5  A    between atoms: C_9  and  O_10
REMARK    6  A    between atoms: O_10  and  C_11
REMARK    7  A    between atoms: C_11  and  C_12
REMARK    8  A    between atoms: N_24  and  N_25
REMARK                            x       y       z     vdW  Elec       q    Type
REMARK                         _______ _______ _______ _____ _____    ______ ____
ROOT
ATOM      1  C   UNL     1      -4.523   3.155  -0.658  0.00  0.00    +0.164 A 
ATOM      2  C   UNL     1      -5.750   3.616  -0.218  0.00  0.00    +0.059 A 
ATOM      3  C   UNL     1      -6.729   3.982  -1.146  0.00  0.00    -0.001 A 
ATOM      4  C   UNL     1      -6.462   3.884  -2.514  0.00  0.00    +0.028 A 
ATOM      5  C   UNL     1      -5.233   3.427  -2.945  0.00  0.00    +0.064 A 
ATOM      6  C   UNL     1      -4.261   3.065  -2.023  0.00  0.00    +0.176 A 
ATOM      7 BR   UNL     1      -4.872   3.295  -4.796  0.00  0.00    -0.046 Br
ENDROOT
BRANCH   3   8
ATOM      8  C   UNL     1      -8.041   4.469  -0.682  0.00  0.00    +0.140 C 
ATOM      9  N   UNL     1      -8.949   4.807  -1.545  0.00  0.00    -0.179 NA
BRANCH   9  10
ATOM     10  N   UNL     1     -10.196   5.270  -1.105  0.00  0.00    -0.249 N 
ATOM     11  C   UNL     1     -11.159   5.629  -2.020  0.00  0.00    +0.187 C 
ATOM     12  H   UNL     1     -11.526   5.767  -4.019  0.00  0.00    +0.159 HD
ATOM     13  N   UNL     1     -12.384   6.083  -1.588  0.00  0.00    -0.370 N 
ATOM     14  H   UNL     1     -10.381   5.337  -0.155  0.00  0.00    +0.192 HD
ATOM     15  H   UNL     1     -12.568   6.151  -0.638  0.00  0.00    +0.159 HD
ATOM     16  H   UNL     1     -13.063   6.336  -2.233  0.00  0.00    +0.159 HD
ATOM     17  N   UNL     1     -10.845   5.513  -3.303  0.00  0.00    -0.370 N 
ATOM     18  H   UNL     1      -9.917   5.169  -3.575  0.00  0.00    +0.159 HD
ENDBRANCH   9  10
ENDBRANCH   3   8
BRANCH   1  19
ATOM     19  O   UNL     1      -3.570   2.794   0.243  0.00  0.00    -0.489 OA
BRANCH  19  21
ATOM     20  C   UNL     1      -2.720   2.463   2.481  0.00  0.00    +0.048 C 
ATOM     21  C   UNL     1      -3.908   2.911   1.627  0.00  0.00    +0.226 C 
ENDBRANCH  19  21
ENDBRANCH   1  19
BRANCH   6  22
ATOM     22  O   UNL     1      -3.052   2.616  -2.453  0.00  0.00    -0.483 OA
BRANCH  22  23
ATOM     23  C   UNL     1      -2.031   3.596  -2.656  0.00  0.00    +0.265 C 
BRANCH  23  24
ATOM     24  C   UNL     1      -0.771   2.917  -3.129  0.00  0.00    -0.003 A 
ATOM     25  C   UNL     1      -0.745   1.567  -3.303  0.00  0.00    +0.007 A 
ATOM     26  C   UNL     1       0.412   0.922  -3.734  0.00  0.00    +0.001 A 
ATOM     27  C   UNL     1       1.547   1.624  -4.006  0.00  0.00    +0.008 A 
ATOM     28  C   UNL     1       1.556   3.020  -3.844  0.00  0.00    -0.018 A 
ATOM     29  C   UNL     1       0.380   3.676  -3.400  0.00  0.00    -0.011 A 
ATOM     30  C   UNL     1       0.389   5.072  -3.239  0.00  0.00    +0.009 A 
ATOM     31  C   UNL     1       1.523   5.774  -3.510  0.00  0.00    +0.001 A 
ATOM     32  C   UNL     1       2.679   5.129  -3.947  0.00  0.00    +0.001 A 
ATOM     33  C   UNL     1       2.707   3.779  -4.115  0.00  0.00    +0.008 A 
ENDBRANCH  23  24
ENDBRANCH  22  23
ENDBRANCH   6  22
TORSDOF 7
