REMARK  Name = ZINC05551257
REMARK  8 active torsions:
REMARK  status: ('A' for Active; 'I' for Inactive)
REMARK    1  A    between atoms: C_1  and  C_2
REMARK    2  A    between atoms: C_2  and  C_3
REMARK    3  A    between atoms: C_8  and  N_9
REMARK    4  A    between atoms: C_15  and  C_16
REMARK    5  A    between atoms: C_19  and  O_25
REMARK    6  A    between atoms: C_20  and  O_22
REMARK    7  A    between atoms: O_22  and  C_23
REMARK    8  A    between atoms: C_23  and  C_24
REMARK                            x       y       z     vdW  Elec       q    Type
REMARK                         _______ _______ _______ _____ _____    ______ ____
ROOT
ATOM      1  N   UNL     1      -1.542  -4.215  -0.370  0.00  0.00    -0.225 NA
ATOM      2  C   UNL     1      -2.021  -3.005  -0.186  0.00  0.00    +0.166 C 
ATOM      3  N   UNL     1      -3.326  -2.575  -0.289  0.00  0.00    -0.260 N 
ATOM      4  C   UNL     1      -3.639  -1.311  -0.062  0.00  0.00    +0.256 C 
ATOM      5  O   UNL     1      -4.787  -0.915  -0.142  0.00  0.00    -0.269 OA
ATOM      6  C   UNL     1      -2.532  -0.400   0.288  0.00  0.00    +0.078 C 
ATOM      7  C   UNL     1      -2.564   0.929   0.564  0.00  0.00    +0.028 C 
ATOM      8  S   UNL     1      -1.138  -1.518   0.259  0.00  0.00    -0.049 S 
ATOM      9  H   UNL     1      -4.022  -3.207  -0.526  0.00  0.00    +0.157 HD
ENDROOT
BRANCH   1  15
ATOM     10  C   UNL     1       0.250  -5.503   0.564  0.00  0.00    -0.022 A 
ATOM     11  C   UNL     1       1.604  -5.733   0.697  0.00  0.00    +0.006 A 
ATOM     12  C   UNL     1       2.514  -4.922   0.042  0.00  0.00    +0.000 A 
ATOM     13  C   UNL     1       2.074  -3.876  -0.750  0.00  0.00    +0.002 A 
ATOM     14  C   UNL     1       0.723  -3.637  -0.896  0.00  0.00    +0.028 A 
ATOM     15  C   UNL     1      -0.201  -4.449  -0.234  0.00  0.00    +0.070 A 
BRANCH  10  17
ATOM     16  C   UNL     1      -1.207  -7.496   0.333  0.00  0.00    +0.009 C 
ATOM     17  C   UNL     1      -0.740  -6.387   1.278  0.00  0.00    +0.034 C 
ENDBRANCH  10  17
ENDBRANCH   1  15
BRANCH   7  18
ATOM     18  C   UNL     1      -1.362   1.603   1.071  0.00  0.00    -0.020 A 
ATOM     19  C   UNL     1      -0.309   0.852   1.608  0.00  0.00    +0.012 A 
ATOM     20  C   UNL     1       0.819   1.487   2.078  0.00  0.00    +0.050 A 
ATOM     21  C   UNL     1       0.914   2.871   2.025  0.00  0.00    +0.158 A 
ATOM     22  C   UNL     1      -0.132   3.627   1.498  0.00  0.00    +0.162 A 
ATOM     23  C   UNL     1      -1.268   2.999   1.025  0.00  0.00    +0.057 A 
BRANCH  21  24
ATOM     24  O   UNL     1       2.031   3.491   2.489  0.00  0.00    -0.503 OA
ATOM     25  H   UNL     1       2.718   3.615   1.821  0.00  0.00    +0.292 HD
ENDBRANCH  21  24
BRANCH  22  26
ATOM     26  O   UNL     1      -0.034   4.982   1.449  0.00  0.00    -0.489 OA
BRANCH  26  27
ATOM     27  C   UNL     1      -1.143   5.693   0.896  0.00  0.00    +0.226 C 
ATOM     28  C   UNL     1      -0.852   7.195   0.924  0.00  0.00    +0.048 C 
ENDBRANCH  26  27
ENDBRANCH  22  26
ENDBRANCH   7  18
TORSDOF 6
