REMARK  Name = ZINC38975814
REMARK  8 active torsions:
REMARK  status: ('A' for Active; 'I' for Inactive)
REMARK    1  A    between atoms: C_1  and  C_2
REMARK    2  A    between atoms: C_2  and  C_3
REMARK    3  A    between atoms: C_6  and  N_9
REMARK    4  A    between atoms: N_9  and  C_10
REMARK    5  A    between atoms: N_13  and  S_14
REMARK    6  A    between atoms: S_14  and  C_17
REMARK    7  A    between atoms: C_20  and  O_23
REMARK    8  A    between atoms: O_23  and  C_24
REMARK                            x       y       z     vdW  Elec       q    Type
REMARK                         _______ _______ _______ _____ _____    ______ ____
ROOT
ATOM      1  C   UNL     1      -6.053  -2.116  -1.216  0.00  0.00    +0.237 C 
ATOM      2  C   UNL     1      -6.761  -3.452  -1.182  0.00  0.00    +0.192 C 
ATOM      3  N   UNL     1      -6.087  -4.552  -1.019  0.00  0.00    -0.110 NA
ATOM      4  N   UNL     1      -8.096  -3.485  -1.321  0.00  0.00    -0.226 NA
ATOM      5  C   UNL     1      -8.801  -2.385  -1.486  0.00  0.00    +0.089 A 
ATOM      6  C   UNL     1     -10.210  -2.458  -1.630  0.00  0.00    +0.030 A 
ATOM      7  C   UNL     1     -10.938  -1.333  -1.800  0.00  0.00    +0.002 A 
ATOM      8  C   UNL     1     -10.360  -0.054  -1.844  0.00  0.00    +0.002 A 
ATOM      9  C   UNL     1      -9.027   0.129  -1.718  0.00  0.00    +0.027 A 
ATOM     10  C   UNL     1      -8.164  -1.046  -1.529  0.00  0.00    +0.063 A 
ATOM     11  N   UNL     1      -6.874  -0.909  -1.402  0.00  0.00    -0.359 N 
ATOM     12  H   UNL     1      -6.464  -0.030  -1.429  0.00  0.00    +0.162 HD
ENDROOT
BRANCH   3  13
ATOM     13  S   UNL     1      -6.875  -6.008  -0.984  0.00  0.00    +0.100 S 
ATOM     14  O   UNL     1      -7.680  -6.005   0.187  0.00  0.00    -0.146 OA
ATOM     15  O   UNL     1      -7.417  -6.208  -2.282  0.00  0.00    -0.146 OA
BRANCH  13  16
ATOM     16  C   UNL     1      -5.652  -7.256  -0.751  0.00  0.00    +0.113 A 
ATOM     17  C   UNL     1      -5.043  -7.838  -1.847  0.00  0.00    +0.032 A 
ATOM     18  C   UNL     1      -4.085  -8.817  -1.667  0.00  0.00    +0.047 A 
ATOM     19  C   UNL     1      -3.734  -9.215  -0.385  0.00  0.00    +0.120 A 
ATOM     20  C   UNL     1      -4.346  -8.629   0.713  0.00  0.00    +0.047 A 
ATOM     21  C   UNL     1      -5.300  -7.647   0.528  0.00  0.00    +0.032 A 
BRANCH  19  22
ATOM     22  O   UNL     1      -2.792 -10.178  -0.205  0.00  0.00    -0.495 OA
ATOM     23  C   UNL     1      -2.481 -10.538   1.142  0.00  0.00    +0.277 C 
ENDBRANCH  19  22
ENDBRANCH  13  16
ENDBRANCH   3  13
BRANCH   1  24
ATOM     24  N   UNL     1      -5.318  -1.967   0.042  0.00  0.00    -0.318 N 
ATOM     25  H   UNL     1      -5.772  -2.105   0.888  0.00  0.00    +0.148 HD
BRANCH  24  29
ATOM     26  C   UNL     1      -1.280  -0.954  -0.014  0.00  0.00    -0.048 A 
ATOM     27  C   UNL     1      -2.014  -0.926  -1.185  0.00  0.00    +0.005 A 
ATOM     28  C   UNL     1      -3.354  -1.262  -1.170  0.00  0.00    +0.023 A 
ATOM     29  C   UNL     1      -3.963  -1.628   0.023  0.00  0.00    +0.029 A 
ATOM     30  C   UNL     1      -3.222  -1.654   1.198  0.00  0.00    +0.023 A 
ATOM     31  C   UNL     1      -1.882  -1.323   1.175  0.00  0.00    +0.005 A 
BRANCH  26  33
ATOM     32  C   UNL     1       1.019  -1.840  -0.295  0.00  0.00    +0.009 C 
ATOM     33  C   UNL     1       0.182  -0.587  -0.034  0.00  0.00    +0.032 C 
ENDBRANCH  26  33
ENDBRANCH  24  29
ENDBRANCH   1  24
TORSDOF 6
