REMARK  Name = ZINC21685414
REMARK  7 active torsions:
REMARK  status: ('A' for Active; 'I' for Inactive)
REMARK    1  A    between atoms: C_1  and  C_2
REMARK    2  A    between atoms: C_3  and  C_7
REMARK    3  A    between atoms: C_10  and  S_13
REMARK    4  A    between atoms: N_11  and  N_12
REMARK    5  A    between atoms: S_13  and  C_14
REMARK    6  A    between atoms: C_14  and  C_16
REMARK    7  A    between atoms: C_14  and  C_17
REMARK                            x       y       z     vdW  Elec       q    Type
REMARK                         _______ _______ _______ _____ _____    ______ ____
ROOT
ATOM      1  C   UNL     1      -3.655  -1.332   0.361  0.00  0.00    +0.185 A 
ATOM      2  N   UNL     1      -3.817  -0.030   0.381  0.00  0.00    -0.127 NA
ATOM      3  N   UNL     1      -2.678   0.556   0.271  0.00  0.00    -0.121 NA
ATOM      4  C   UNL     1      -1.719  -0.336   0.174  0.00  0.00    +0.209 A 
ATOM      5  N   UNL     1      -2.307  -1.570   0.223  0.00  0.00    -0.224 N 
ENDROOT
BRANCH   1   8
ATOM      6  C   UNL     1      -6.726  -0.785   0.677  0.00  0.00    +0.087 C 
ATOM      7  C   UNL     1      -6.057  -2.133   0.600  0.00  0.00    +0.112 A 
ATOM      8  C   UNL     1      -4.721  -2.352   0.463  0.00  0.00    +0.061 A 
ATOM      9  C   UNL     1      -4.557  -3.811   0.443  0.00  0.00    +0.053 A 
ATOM     10  C   UNL     1      -5.793  -4.325   0.563  0.00  0.00    +0.196 A 
ATOM     11  O   UNL     1      -6.678  -3.321   0.653  0.00  0.00    -0.467 OA
ENDBRANCH   1   8
BRANCH   5  12
ATOM     12  N   UNL     1      -1.686  -2.784   0.151  0.00  0.00    -0.295 N 
ATOM     13  H   UNL     1      -0.593  -2.837   0.040  0.00  0.00    +0.163 HD
ATOM     14  H   UNL     1      -2.279  -3.709   0.205  0.00  0.00    +0.163 HD
ENDBRANCH   5  12
BRANCH   4  15
ATOM     15  S   UNL     1       0.003  -0.005   0.007  0.00  0.00    -0.072 S 
BRANCH  15  16
ATOM     16  C   UNL     1      -0.022   1.804   0.015  0.00  0.00    +0.137 C 
ATOM     17  C   UNL     1      -0.763   2.310  -1.224  0.00  0.00    +0.029 C 
BRANCH  16  18
ATOM     18  C   UNL     1       1.391   2.327   0.003  0.00  0.00    +0.231 C 
ATOM     19  O   UNL     1       2.285   1.646  -0.454  0.00  0.00    -0.274 OA
ATOM     20  N   UNL     1       1.662   3.550   0.499  0.00  0.00    -0.269 N 
ATOM     21  C   UNL     1       2.982   3.991   0.585  0.00  0.00    +0.125 A 
ATOM     22  C   UNL     1       3.263   5.209   1.194  0.00  0.00    +0.045 A 
ATOM     23  C   UNL     1       4.577   5.635   1.273  0.00  0.00    +0.025 A 
ATOM     24  C   UNL     1       5.570   4.824   0.738  0.00  0.00    +0.059 A 
ATOM     25  C   UNL     1       5.218   3.626   0.147  0.00  0.00    +0.132 A 
ATOM     26  N   UNL     1       3.956   3.244   0.091  0.00  0.00    -0.239 NA
ATOM     27 CL   UNL     1       7.234   5.311   0.810  0.00  0.00    -0.082 Cl
ATOM     28  H   UNL     1       0.842   4.201   0.836  0.00  0.00    +0.156 HD
ENDBRANCH  16  18
ENDBRANCH  15  16
ENDBRANCH   4  15
TORSDOF 5
