REMARK  Name = ZINC14550778
REMARK  4 active torsions:
REMARK  status: ('A' for Active; 'I' for Inactive)
REMARK    1  A    between atoms: N_9  and  S_10
REMARK    2  A    between atoms: S_10  and  C_13
REMARK    3  A    between atoms: C_26  and  C_29
REMARK    4  A    between atoms: C_32  and  N_35
REMARK                            x       y       z     vdW  Elec       q    Type
REMARK                         _______ _______ _______ _____ _____    ______ ____
ROOT
ATOM      1  C   UNL     1      -5.059   5.259   0.753  0.00  0.00    +0.109 A 
ATOM      2  C   UNL     1      -5.162   4.984  -0.599  0.00  0.00    +0.030 A 
ATOM      3  C   UNL     1      -4.650   3.803  -1.098  0.00  0.00    +0.025 A 
ATOM      4  C   UNL     1      -4.035   2.897  -0.244  0.00  0.00    +0.031 A 
ATOM      5  C   UNL     1      -3.930   3.167   1.112  0.00  0.00    -0.018 A 
ATOM      6  C   UNL     1      -4.449   4.358   1.601  0.00  0.00    +0.034 A 
ATOM      7  C   UNL     1      -3.280   2.220   2.069  0.00  0.00    +0.049 C 
ATOM      8  C   UNL     1      -1.911   2.706   2.482  0.00  0.00    -0.023 C 
ATOM      9  C   UNL     1      -1.093   1.692   2.625  0.00  0.00    -0.030 C 
ATOM     10  C   UNL     1      -1.808   0.388   2.330  0.00  0.00    +0.033 C 
ATOM     11  C   UNL     1      -3.019   0.830   1.457  0.00  0.00    +0.029 C 
ATOM     12  C   UNL     1      -2.514   0.980   0.019  0.00  0.00    +0.105 C 
ATOM     13  N   UNL     1      -3.519   1.705  -0.765  0.00  0.00    -0.336 N 
ATOM     14  H   UNL     1      -3.819   1.367  -1.623  0.00  0.00    +0.147 HD
ENDROOT
BRANCH  12  15
ATOM     15  C   UNL     1      -1.219   1.751   0.017  0.00  0.00    -0.027 A 
ATOM     16  C   UNL     1      -1.236   3.129  -0.082  0.00  0.00    +0.008 A 
ATOM     17  C   UNL     1      -0.048   3.837  -0.078  0.00  0.00    +0.033 A 
ATOM     18  C   UNL     1       1.156   3.166   0.020  0.00  0.00    +0.126 A 
ATOM     19  C   UNL     1       1.173   1.787   0.113  0.00  0.00    +0.033 A 
ATOM     20  C   UNL     1      -0.014   1.079   0.109  0.00  0.00    +0.008 A 
BRANCH  18  21
ATOM     21  N   UNL     1       2.428   3.924   0.025  0.00  0.00    +0.056 N 
ATOM     22  O   UNL     1       2.412   5.139  -0.058  0.00  0.00    -0.126 OA
ATOM     23  O   UNL     1       3.489   3.332   0.110  0.00  0.00    -0.126 OA
ENDBRANCH  18  21
ENDBRANCH  12  15
BRANCH   1  24
ATOM     24  S   UNL     1      -5.711   6.765   1.394  0.00  0.00    +0.075 S 
ATOM     25  O   UNL     1      -5.006   7.033   2.598  0.00  0.00    -0.150 OA
ATOM     26  O   UNL     1      -5.748   7.685   0.311  0.00  0.00    -0.150 OA
BRANCH  24  35
ATOM     27  C   UNL     1     -10.810   6.838  -0.363  0.00  0.00    +0.000 A 
ATOM     28  C   UNL     1      -9.632   7.161  -1.012  0.00  0.00    +0.002 A 
ATOM     29  C   UNL     1      -8.427   7.064  -0.350  0.00  0.00    +0.025 A 
ATOM     30  C   UNL     1      -8.385   6.640   0.980  0.00  0.00    +0.054 A 
ATOM     31  C   UNL     1      -9.571   6.316   1.620  0.00  0.00    -0.023 A 
ATOM     32  C   UNL     1     -10.777   6.409   0.951  0.00  0.00    +0.005 A 
ATOM     33  C   UNL     1      -9.254   5.897   3.038  0.00  0.00    +0.058 C 
ATOM     34  C   UNL     1      -7.724   6.013   3.141  0.00  0.00    +0.136 C 
ATOM     35  N   UNL     1      -7.284   6.475   1.822  0.00  0.00    -0.202 N 
ENDBRANCH  24  35
ENDBRANCH   1  24
TORSDOF 4
