REMARK  Name = ZINC04195100
REMARK  11 active torsions:
REMARK  status: ('A' for Active; 'I' for Inactive)
REMARK    1  A    between atoms: C_1  and  C_2
REMARK    2  A    between atoms: C_5  and  C_35
REMARK    3  A    between atoms: C_5  and  C_36
REMARK    4  A    between atoms: N_11  and  C_15
REMARK    5  A    between atoms: C_15  and  C_16
REMARK    6  A    between atoms: N_18  and  C_19
REMARK    7  A    between atoms: C_19  and  C_20
REMARK    8  A    between atoms: C_20  and  C_22
REMARK    9  A    between atoms: C_20  and  N_73
REMARK   10  A    between atoms: C_25  and  O_28
REMARK   11  A    between atoms: O_28  and  C_29
REMARK                            x       y       z     vdW  Elec       q    Type
REMARK                         _______ _______ _______ _____ _____    ______ ____
ROOT
ATOM      1  C   UNL     1      -5.414  -3.731  -0.962  0.00  0.00    +0.231 C 
ATOM      2  O   UNL     1      -5.207  -2.545  -0.814  0.00  0.00    -0.274 OA
ATOM      3  N   UNL     1      -6.468  -4.145  -1.692  0.00  0.00    -0.315 N 
ATOM      4  H   UNL     1      -6.634  -5.093  -1.810  0.00  0.00    +0.149 HD
ENDROOT
BRANCH   1   5
ATOM      5  C   UNL     1      -4.492  -4.741  -0.330  0.00  0.00    +0.213 C 
BRANCH   5  15
ATOM      6  C   UNL     1      -1.359   0.567   3.173  0.00  0.00    +0.007 C 
ATOM      7  C   UNL     1      -1.112  -0.877   2.732  0.00  0.00    -0.011 C 
ATOM      8  C   UNL     1      -0.387  -1.635   3.846  0.00  0.00    +0.009 C 
ATOM      9  C   UNL     1      -0.129  -3.075   3.401  0.00  0.00    -0.032 C 
ATOM     10  C   UNL     1      -1.465  -3.766   3.113  0.00  0.00    +0.041 C 
ATOM     11  C   UNL     1      -2.209  -3.004   2.021  0.00  0.00    +0.113 C 
ATOM     12  C   UNL     1      -2.451  -1.558   2.440  0.00  0.00    +0.038 C 
ATOM     13  C   UNL     1      -3.519  -3.687   1.702  0.00  0.00    +0.247 C 
ATOM     14  O   UNL     1      -4.451  -3.875   2.455  0.00  0.00    -0.273 OA
ATOM     15  N   UNL     1      -3.433  -4.044   0.404  0.00  0.00    -0.215 N 
ATOM     16  C   UNL     1      -2.260  -3.683  -0.130  0.00  0.00    +0.310 C 
ATOM     17  O   UNL     1      -1.949  -3.896  -1.285  0.00  0.00    -0.252 OA
ATOM     18  N   UNL     1      -1.463  -3.056   0.757  0.00  0.00    -0.285 N 
ATOM     19  C   UNL     1       0.727  -3.072   2.133  0.00  0.00    +0.011 C 
ATOM     20  C   UNL     1       0.605  -3.829   4.511  0.00  0.00    +0.011 C 
ATOM     21  H   UNL     1      -0.573  -2.708   0.594  0.00  0.00    +0.151 HD
ENDBRANCH   5  15
ENDBRANCH   1   5
BRANCH   3  22
ATOM     22  C   UNL     1      -7.365  -3.163  -2.307  0.00  0.00    +0.093 C 
BRANCH  22  23
ATOM     23  C   UNL     1      -8.471  -3.891  -3.074  0.00  0.00    -0.020 C 
BRANCH  23  29
ATOM     24  C   UNL     1      -7.122  -4.090  -5.076  0.00  0.00    -0.049 C 
ATOM     25  C   UNL     1      -6.462  -5.094  -6.025  0.00  0.00    +0.141 C 
ATOM     26  O   UNL     1      -7.466  -5.948  -6.580  0.00  0.00    -0.383 OA
ATOM     27  C   UNL     1      -8.210  -6.675  -5.598  0.00  0.00    +0.141 C 
ATOM     28  C   UNL     1      -8.888  -5.686  -4.645  0.00  0.00    -0.049 C 
ATOM     29  N   UNL     1      -7.849  -4.835  -4.028  0.00  0.00    +0.388 N 
ATOM     30  H   UNL     1      -7.185  -5.433  -3.521  0.00  0.00    -0.081 HD
ENDBRANCH  23  29
BRANCH  23  31
ATOM     31  C   UNL     1      -9.320  -2.885  -3.807  0.00  0.00    -0.059 A 
ATOM     32  C   UNL     1      -8.720  -1.889  -4.554  0.00  0.00    +0.005 A 
ATOM     33  C   UNL     1      -9.496  -0.969  -5.231  0.00  0.00    +0.046 A 
ATOM     34  C   UNL     1     -10.880  -1.038  -5.152  0.00  0.00    +0.120 A 
ATOM     35  C   UNL     1     -11.479  -2.035  -4.396  0.00  0.00    +0.046 A 
ATOM     36  C   UNL     1     -10.698  -2.956  -3.726  0.00  0.00    +0.005 A 
BRANCH  34  37
ATOM     37  O   UNL     1     -11.646  -0.130  -5.812  0.00  0.00    -0.495 OA
ATOM     38  C   UNL     1     -10.960   0.869  -6.570  0.00  0.00    +0.277 C 
ENDBRANCH  34  37
ENDBRANCH  23  31
ENDBRANCH  22  23
ENDBRANCH   3  22
TORSDOF 7
