REMARK  Name = ZINC04555312
REMARK  7 active torsions:
REMARK  status: ('A' for Active; 'I' for Inactive)
REMARK    1  A    between atoms: C_1  and  C_2
REMARK    2  A    between atoms: C_2  and  C_3
REMARK    3  A    between atoms: C_2  and  N_50
REMARK    4  A    between atoms: C_11  and  O_27
REMARK    5  A    between atoms: C_13  and  C_16
REMARK    6  A    between atoms: C_17  and  C_18
REMARK    7  A    between atoms: C_23  and  N_24
REMARK                            x       y       z     vdW  Elec       q    Type
REMARK                         _______ _______ _______ _____ _____    ______ ____
ROOT
ATOM      1  C   UNL     1       2.450  -2.184   0.556  0.00  0.00    -0.073 C 
ATOM      2  C   UNL     1       3.770  -1.465   0.264  0.00  0.00    +0.018 C 
ATOM      3  C   UNL     1       3.447  -0.057  -0.226  0.00  0.00    -0.027 A 
ATOM      4  C   UNL     1       2.201   0.233  -0.671  0.00  0.00    -0.021 A 
ATOM      5  S   UNL     1       2.269   1.944  -1.130  0.00  0.00    -0.080 S 
ATOM      6  C   UNL     1       3.906   2.258  -0.743  0.00  0.00    +0.080 A 
ATOM      7  C   UNL     1       4.396   1.039  -0.254  0.00  0.00    +0.067 A 
ATOM      8  C   UNL     1       5.816   1.005   0.183  0.00  0.00    +0.220 C 
ATOM      9  N   UNL     1       6.573   2.018  -0.138  0.00  0.00    -0.223 NA
ATOM     10  C   UNL     1       6.144   3.151  -0.949  0.00  0.00    +0.217 C 
ATOM     11  N   UNL     1       4.692   3.380  -0.837  0.00  0.00    -0.313 N 
ATOM     12  C   UNL     1       1.041  -0.708  -0.748  0.00  0.00    -0.035 C 
ATOM     13  H   UNL     1       4.313   4.273  -0.830  0.00  0.00    +0.149 HD
ATOM     14  N   UNL     1       1.568  -2.089  -0.624  0.00  0.00    +0.384 N 
ATOM     15  H   UNL     1       2.109  -2.317  -1.466  0.00  0.00    -0.081 HD
ENDROOT
BRANCH  14  17
ATOM     16  C   UNL     1      -0.393  -2.728   0.738  0.00  0.00    -0.014 C 
ATOM     17  C   UNL     1       0.449  -3.048  -0.498  0.00  0.00    -0.074 C 
ATOM     18  C   UNL     1      -0.427  -2.957  -1.749  0.00  0.00    -0.014 C 
ENDBRANCH  14  17
BRANCH  10  19
ATOM     19  C   UNL     1       6.490   2.883  -2.391  0.00  0.00    +0.019 C 
ATOM     20  C   UNL     1       7.448   3.582  -2.984  0.00  0.00    +0.009 C 
BRANCH  20  21
ATOM     21  C   UNL     1       8.295   4.497  -2.189  0.00  0.00    +0.005 A 
ATOM     22  C   UNL     1       8.768   4.104  -0.937  0.00  0.00    +0.010 A 
ATOM     23  C   UNL     1       9.561   4.961  -0.203  0.00  0.00    +0.001 A 
ATOM     24  C   UNL     1       9.880   6.212  -0.701  0.00  0.00    +0.002 A 
ATOM     25  C   UNL     1       9.410   6.609  -1.940  0.00  0.00    +0.033 A 
ATOM     26  C   UNL     1       8.620   5.759  -2.687  0.00  0.00    +0.133 A 
BRANCH  26  27
ATOM     27  N   UNL     1       8.117   6.186  -4.012  0.00  0.00    +0.057 N 
ATOM     28  O   UNL     1       8.485   7.245  -4.490  0.00  0.00    -0.126 OA
ATOM     29  O   UNL     1       7.336   5.480  -4.623  0.00  0.00    -0.126 OA
ENDBRANCH  26  27
ENDBRANCH  20  21
ENDBRANCH  10  19
BRANCH   8  30
ATOM     30  O   UNL     1       6.306  -0.040   0.888  0.00  0.00    -0.492 OA
ATOM     31  H   UNL     1       7.242   0.045   1.119  0.00  0.00    +0.294 HD
ENDBRANCH   8  30
TORSDOF 5
