REMARK  Name = ZINC64503455
REMARK  5 active torsions:
REMARK  status: ('A' for Active; 'I' for Inactive)
REMARK    1  A    between atoms: N_14  and  C_15
REMARK    2  A    between atoms: C_18  and  C_21
REMARK    3  A    between atoms: N_23  and  C_24
REMARK    4  A    between atoms: C_24  and  C_25
REMARK    5  A    between atoms: C_25  and  C_26
REMARK                            x       y       z     vdW  Elec       q    Type
REMARK                         _______ _______ _______ _____ _____    ______ ____
ROOT
ATOM      1  C   UNL     1       5.007   0.036   3.167  0.00  0.00    +0.035 A 
ATOM      2  C   UNL     1       6.228  -0.629   3.124  0.00  0.00    +0.024 A 
ATOM      3  C   UNL     1       7.042  -0.652   4.234  0.00  0.00    +0.015 A 
ATOM      4  C   UNL     1       6.640  -0.005   5.406  0.00  0.00    +0.037 A 
ATOM      5  C   UNL     1       5.412   0.662   5.447  0.00  0.00    +0.015 A 
ATOM      6  C   UNL     1       4.606   0.685   4.331  0.00  0.00    +0.024 A 
ENDROOT
BRANCH   1  20
ATOM      7  C   UNL     1       0.730   2.165  -0.633  0.00  0.00    +0.000 A 
ATOM      8  C   UNL     1       2.097   2.317  -0.773  0.00  0.00    +0.002 A 
ATOM      9  C   UNL     1       2.947   1.264  -0.491  0.00  0.00    +0.024 A 
ATOM     10  C   UNL     1       2.421   0.054  -0.059  0.00  0.00    +0.041 A 
ATOM     11  C   UNL     1       1.054  -0.086   0.102  0.00  0.00    -0.026 A 
ATOM     12  C   UNL     1       0.206   0.960  -0.197  0.00  0.00    +0.005 A 
ATOM     13  C   UNL     1       0.493  -1.387   0.646  0.00  0.00    +0.037 C 
ATOM     14  C   UNL     1       0.683  -2.487  -0.394  0.00  0.00    +0.006 C 
ATOM     15  C   UNL     1       2.065  -3.116  -0.282  0.00  0.00    +0.020 C 
ATOM     16  C   UNL     1       3.184  -2.195  -0.707  0.00  0.00    +0.115 C 
ATOM     17  N   UNL     1       3.266  -1.034   0.193  0.00  0.00    -0.255 N 
ATOM     18  C   UNL     1       4.128  -1.018   1.229  0.00  0.00    +0.311 C 
ATOM     19  O   UNL     1       4.853  -1.972   1.432  0.00  0.00    -0.252 OA
ATOM     20  N   UNL     1       4.186   0.057   2.041  0.00  0.00    -0.269 N 
ATOM     21  H   UNL     1       3.656   0.844   1.842  0.00  0.00    +0.156 HD
ENDBRANCH   1  20
BRANCH   4  22
ATOM     22  C   UNL     1       7.509  -0.028   6.599  0.00  0.00    +0.244 C 
ATOM     23  O   UNL     1       8.576  -0.609   6.562  0.00  0.00    -0.270 OA
ATOM     24  N   UNL     1       7.120   0.596   7.728  0.00  0.00    -0.311 N 
ATOM     25  H   UNL     1       6.268   1.060   7.757  0.00  0.00    +0.149 HD
BRANCH  24  26
ATOM     26  C   UNL     1       7.983   0.574   8.912  0.00  0.00    +0.109 C 
BRANCH  26  27
ATOM     27  C   UNL     1       7.312   1.350  10.047  0.00  0.00    +0.052 C 
BRANCH  27  28
ATOM     28  C   UNL     1       8.199   1.327  11.264  0.00  0.00    -0.040 C 
ATOM     29  C   UNL     1       9.092   2.272  11.638  0.00  0.00    -0.001 A 
ATOM     30  C   UNL     1       9.489   3.555  11.045  0.00  0.00    +0.010 A 
ATOM     31  C   UNL     1      10.433   4.300  11.663  0.00  0.00    +0.001 A 
ATOM     32  C   UNL     1      11.041   3.878  12.854  0.00  0.00    +0.002 A 
ATOM     33  C   UNL     1      10.729   2.713  13.459  0.00  0.00    +0.026 A 
ATOM     34  C   UNL     1       9.748   1.850  12.896  0.00  0.00    +0.043 A 
ATOM     35  N   UNL     1       9.280   0.689  13.285  0.00  0.00    -0.380 N 
ATOM     36  C   UNL     1       8.268   0.246  12.319  0.00  0.00    +0.144 C 
ATOM     37  H   UNL     1       9.554   0.206  14.080  0.00  0.00    +0.160 HD
ENDBRANCH  27  28
ENDBRANCH  26  27
ENDBRANCH  24  26
ENDBRANCH   4  22
TORSDOF 5
