REMARK  Name = ZINC63134589
REMARK  7 active torsions:
REMARK  status: ('A' for Active; 'I' for Inactive)
REMARK    1  A    between atoms: C_1  and  C_2
REMARK    2  A    between atoms: C_5  and  C_8
REMARK    3  A    between atoms: C_10  and  N_20
REMARK    4  A    between atoms: N_12  and  C_14
REMARK    5  A    between atoms: C_21  and  C_23
REMARK    6  A    between atoms: C_23  and  S_24
REMARK    7  A    between atoms: S_24  and  C_25
REMARK                            x       y       z     vdW  Elec       q    Type
REMARK                         _______ _______ _______ _____ _____    ______ ____
ROOT
ATOM      1  C   UNL     1       0.036  -4.274  -0.042  0.00  0.00    +0.051 C 
ATOM      2  C   UNL     1       0.162  -5.068   1.018  0.00  0.00    +0.041 C 
ATOM      3  C   UNL     1       0.156  -6.495   0.517  0.00  0.00    +0.205 C 
ATOM      4  N   UNL     1       0.012  -6.379  -0.943  0.00  0.00    -0.229 N 
ATOM      5  N   UNL     1      -0.060  -5.007  -1.218  0.00  0.00    -0.262 N 
ATOM      6  H   UNL     1      -0.161  -4.624  -2.103  0.00  0.00    +0.170 HD
ENDROOT
BRANCH   1  11
ATOM      7  C   UNL     1      -0.113   1.475   0.213  0.00  0.00    +0.044 C 
ATOM      8  C   UNL     1      -0.074  -0.030   0.146  0.00  0.00    -0.050 A 
ATOM      9  C   UNL     1      -0.178  -0.668  -1.077  0.00  0.00    +0.004 A 
ATOM     10  C   UNL     1      -0.142  -2.046  -1.144  0.00  0.00    +0.010 A 
ATOM     11  C   UNL     1      -0.002  -2.795   0.023  0.00  0.00    -0.003 A 
ATOM     12  C   UNL     1       0.102  -2.146   1.253  0.00  0.00    +0.010 A 
ATOM     13  C   UNL     1       0.070  -0.768   1.308  0.00  0.00    +0.004 A 
ENDBRANCH   1  11
BRANCH   4  14
ATOM     14  C   UNL     1      -0.046  -7.425  -1.867  0.00  0.00    +0.050 A 
ATOM     15  C   UNL     1      -0.170  -8.737  -1.427  0.00  0.00    +0.025 A 
ATOM     16  C   UNL     1      -0.227  -9.769  -2.343  0.00  0.00    +0.002 A 
ATOM     17  C   UNL     1      -0.161  -9.497  -3.697  0.00  0.00    +0.000 A 
ATOM     18  C   UNL     1      -0.038  -8.193  -4.139  0.00  0.00    +0.002 A 
ATOM     19  C   UNL     1       0.014  -7.156  -3.228  0.00  0.00    +0.025 A 
ENDBRANCH   4  14
BRANCH   3  20
ATOM     20  N   UNL     1       1.416  -7.160   0.857  0.00  0.00    -0.292 N 
ATOM     21  C   UNL     1       1.402  -8.390   1.407  0.00  0.00    +0.225 C 
ATOM     22  O   UNL     1       0.351  -8.980   1.547  0.00  0.00    -0.275 OA
ATOM     23  H   UNL     1       2.261  -6.715   0.686  0.00  0.00    +0.151 HD
BRANCH  21  24
ATOM     24  C   UNL     1       2.692  -9.033   1.849  0.00  0.00    +0.168 C 
BRANCH  24  25
ATOM     25  S   UNL     1       2.343 -10.672   2.543  0.00  0.00    -0.106 S 
BRANCH  25  26
ATOM     26  C   UNL     1       3.976 -11.303   3.020  0.00  0.00    +0.236 C 
ATOM     27  N   UNL     1       4.623 -10.373   3.953  0.00  0.00    -0.355 N 
ATOM     28  C   UNL     1       5.726  -9.963   3.396  0.00  0.00    +0.061 A 
ATOM     29  C   UNL     1       6.782  -9.040   3.831  0.00  0.00    +0.027 A 
ATOM     30  C   UNL     1       7.833  -8.802   3.021  0.00  0.00    +0.002 A 
ATOM     31  C   UNL     1       7.969  -9.406   1.758  0.00  0.00    +0.002 A 
ATOM     32  C   UNL     1       7.058 -10.268   1.263  0.00  0.00    +0.027 A 
ATOM     33  C   UNL     1       5.869 -10.602   2.059  0.00  0.00    +0.061 A 
ATOM     34  N   UNL     1       4.849 -11.382   1.842  0.00  0.00    -0.355 N 
ATOM     35  H   UNL     1       4.289 -10.111   4.826  0.00  0.00    +0.162 HD
ATOM     36  H   UNL     1       4.695 -11.917   1.048  0.00  0.00    +0.162 HD
ENDBRANCH  25  26
ENDBRANCH  24  25
ENDBRANCH  21  24
ENDBRANCH   3  20
TORSDOF 6
