REMARK  Name = ZINC20635374
REMARK  8 active torsions:
REMARK  status: ('A' for Active; 'I' for Inactive)
REMARK    1  A    between atoms: C_1  and  C_2
REMARK    2  A    between atoms: C_2  and  C_3
REMARK    3  A    between atoms: C_12  and  N_24
REMARK    4  A    between atoms: C_13  and  C_14
REMARK    5  A    between atoms: C_17  and  O_22
REMARK    6  A    between atoms: C_18  and  O_20
REMARK    7  A    between atoms: O_20  and  C_21
REMARK    8  A    between atoms: O_22  and  C_23
REMARK                            x       y       z     vdW  Elec       q    Type
REMARK                         _______ _______ _______ _____ _____    ______ ____
ROOT
ATOM      1  C   UNL     1       0.707  -0.490  -1.238  0.00  0.00    +0.052 C 
ATOM      2  N   UNL     1       1.152   0.450  -2.033  0.00  0.00    -0.250 NA
ATOM      3  C   UNL     1       1.828   0.336  -3.222  0.00  0.00    +0.085 A 
ATOM      4  C   UNL     1       2.127   1.583  -3.764  0.00  0.00    +0.029 A 
ATOM      5  C   UNL     1       2.808   1.667  -4.966  0.00  0.00    +0.002 A 
ATOM      6  C   UNL     1       3.191   0.518  -5.630  0.00  0.00    +0.002 A 
ATOM      7  C   UNL     1       2.897  -0.729  -5.098  0.00  0.00    +0.025 A 
ATOM      8  C   UNL     1       2.219  -0.825  -3.900  0.00  0.00    +0.058 A 
ATOM      9  N   UNL     1       2.013  -2.168  -3.523  0.00  0.00    -0.301 N 
ATOM     10  C   UNL     1       1.374  -2.636  -2.392  0.00  0.00    +0.095 C 
ATOM     11  C   UNL     1       0.797  -1.893  -1.370  0.00  0.00    +0.039 C 
ATOM     12  H   UNL     1       2.360  -2.842  -4.129  0.00  0.00    +0.153 HD
ENDROOT
BRANCH  11  13
ATOM     13  C   UNL     1       0.185  -2.679  -0.274  0.00  0.00    -0.009 A 
ATOM     14  C   UNL     1      -1.193  -2.633  -0.065  0.00  0.00    +0.012 A 
ATOM     15  C   UNL     1      -1.762  -3.366   0.957  0.00  0.00    +0.050 A 
ATOM     16  C   UNL     1      -0.966  -4.151   1.777  0.00  0.00    +0.162 A 
ATOM     17  C   UNL     1       0.411  -4.201   1.574  0.00  0.00    +0.162 A 
ATOM     18  C   UNL     1       0.986  -3.473   0.548  0.00  0.00    +0.058 A 
BRANCH  17  19
ATOM     19  O   UNL     1       1.189  -4.971   2.381  0.00  0.00    -0.491 OA
ATOM     20  C   UNL     1       2.593  -4.976   2.115  0.00  0.00    +0.277 C 
ENDBRANCH  17  19
BRANCH  16  21
ATOM     21  O   UNL     1      -1.530  -4.872   2.783  0.00  0.00    -0.491 OA
ATOM     22  C   UNL     1      -2.948  -4.773   2.935  0.00  0.00    +0.277 C 
ENDBRANCH  16  21
ENDBRANCH  11  13
BRANCH  10  23
ATOM     23  N   UNL     1       1.306  -3.995  -2.259  0.00  0.00    -0.346 N 
ATOM     24  H   UNL     1       1.695  -4.569  -2.938  0.00  0.00    +0.143 HD
ATOM     25  H   UNL     1       0.870  -4.386  -1.486  0.00  0.00    +0.143 HD
ENDBRANCH  10  23
BRANCH   1  27
ATOM     26  C   UNL     1      -0.019   1.526   0.010  0.00  0.00    +0.010 C 
ATOM     27  C   UNL     1       0.002  -0.004   0.002  0.00  0.00    +0.053 C 
ENDBRANCH   1  27
TORSDOF 5
