REMARK  Name = ZINC04270476
REMARK  5 active torsions:
REMARK  status: ('A' for Active; 'I' for Inactive)
REMARK    1  A    between atoms: C_1  and  C_2
REMARK    2  A    between atoms: C_7  and  N_8
REMARK    3  A    between atoms: N_8  and  S_9
REMARK    4  A    between atoms: S_9  and  C_12
REMARK    5  A    between atoms: C_18  and  C_26
REMARK                            x       y       z     vdW  Elec       q    Type
REMARK                         _______ _______ _______ _____ _____    ______ ____
ROOT
ATOM      1  C   UNL     1       2.500  -0.640   3.443  0.00  0.00    +0.109 A 
ATOM      2  C   UNL     1       3.093  -1.724   2.812  0.00  0.00    +0.034 A 
ATOM      3  C   UNL     1       4.444  -1.738   2.561  0.00  0.00    -0.024 A 
ATOM      4  C   UNL     1       5.171  -0.620   2.970  0.00  0.00    +0.043 A 
ATOM      5  C   UNL     1       4.582   0.467   3.600  0.00  0.00    -0.012 A 
ATOM      6  C   UNL     1       3.226   0.479   3.845  0.00  0.00    +0.035 A 
ATOM      7  C   UNL     1       5.700   1.428   3.860  0.00  0.00    +0.104 C 
ATOM      8  C   UNL     1       6.934   0.731   3.302  0.00  0.00    +0.227 C 
ATOM      9  O   UNL     1       8.066   1.167   3.305  0.00  0.00    -0.275 OA
ATOM     10  N   UNL     1       6.543  -0.452   2.806  0.00  0.00    -0.270 N 
ATOM     11  C   UNL     1       7.347  -1.506   2.163  0.00  0.00    +0.114 C 
ATOM     12  C   UNL     1       6.651  -2.853   2.392  0.00  0.00    +0.024 C 
ATOM     13  C   UNL     1       5.205  -2.841   1.887  0.00  0.00    +0.038 C 
ATOM     14  C   UNL     1       5.855   1.675   5.362  0.00  0.00    +0.022 C 
ENDROOT
BRANCH   1  15
ATOM     15  S   UNL     1       0.764  -0.678   3.741  0.00  0.00    +0.072 S 
ATOM     16  O   UNL     1       0.519   0.207   4.826  0.00  0.00    -0.150 OA
ATOM     17  O   UNL     1       0.387  -2.047   3.775  0.00  0.00    -0.150 OA
BRANCH  15  18
ATOM     18  N   UNL     1       0.025  -0.016   2.415  0.00  0.00    -0.216 N 
ATOM     19  H   UNL     1      -0.522   0.779   2.511  0.00  0.00    +0.174 HD
BRANCH  18  26
ATOM     20  C   UNL     1       0.153   1.691   0.143  0.00  0.00    +0.046 C 
ATOM     21  C   UNL     1       0.257   0.192   0.022  0.00  0.00    -0.028 A 
ATOM     22  C   UNL     1       0.426  -0.391  -1.218  0.00  0.00    +0.005 A 
ATOM     23  C   UNL     1       0.521  -1.766  -1.330  0.00  0.00    +0.000 A 
ATOM     24  C   UNL     1       0.449  -2.562  -0.201  0.00  0.00    +0.002 A 
ATOM     25  C   UNL     1       0.281  -1.985   1.042  0.00  0.00    +0.025 A 
ATOM     26  C   UNL     1       0.190  -0.603   1.159  0.00  0.00    +0.051 A 
ENDBRANCH  18  26
ENDBRANCH  15  18
ENDBRANCH   1  15
TORSDOF 3
