REMARK  Name = ZINC31038766
REMARK  10 active torsions:
REMARK  status: ('A' for Active; 'I' for Inactive)
REMARK    1  A    between atoms: C_1  and  C_2
REMARK    2  A    between atoms: C_2  and  C_4
REMARK    3  A    between atoms: C_2  and  N_15
REMARK    4  A    between atoms: N_6  and  C_7
REMARK    5  A    between atoms: N_15  and  C_16
REMARK    6  A    between atoms: N_15  and  C_17
REMARK    7  A    between atoms: C_17  and  C_18
REMARK    8  A    between atoms: N_20  and  C_21
REMARK    9  A    between atoms: C_26  and  S_27
REMARK   10  A    between atoms: S_27  and  C_28
REMARK                            x       y       z     vdW  Elec       q    Type
REMARK                         _______ _______ _______ _____ _____    ______ ____
ROOT
ATOM      1  N   UNL     1      -0.737   1.567   0.789  0.00  0.00    +0.391 N 
ATOM      2  C   UNL     1      -0.625   3.014   1.011  0.00  0.00    -0.094 C 
ATOM      3  H   UNL     1      -1.805   1.304   0.803  0.00  0.00    -0.080 HD
ENDROOT
BRANCH   1   5
ATOM      4  C   UNL     1       1.370   1.301   2.009  0.00  0.00    -0.004 C 
ATOM      5  C   UNL     1      -0.074   0.816   1.864  0.00  0.00    +0.017 C 
BRANCH   5   6
ATOM      6  C   UNL     1      -0.810   1.039   3.160  0.00  0.00    +0.203 C 
ATOM      7  O   UNL     1      -1.791   1.752   3.185  0.00  0.00    -0.277 OA
ATOM      8  N   UNL     1      -0.380   0.445   4.290  0.00  0.00    -0.285 N 
ATOM      9  H   UNL     1       0.560  -0.127   4.287  0.00  0.00    +0.155 HD
BRANCH   8  10
ATOM     10  C   UNL     1      -1.128   0.557   5.469  0.00  0.00    +0.069 A 
ATOM     11  C   UNL     1      -2.493   0.800   5.406  0.00  0.00    +0.027 A 
ATOM     12  C   UNL     1      -3.229   0.909   6.570  0.00  0.00    +0.017 A 
ATOM     13  C   UNL     1      -2.608   0.778   7.799  0.00  0.00    +0.021 A 
ATOM     14  C   UNL     1      -1.247   0.536   7.867  0.00  0.00    +0.055 A 
ATOM     15  C   UNL     1      -0.506   0.419   6.705  0.00  0.00    +0.146 A 
ATOM     16  F   UNL     1       0.822   0.177   6.771  0.00  0.00    -0.204 F 
ATOM     17 BR   UNL     1      -3.619   0.930   9.389  0.00  0.00    -0.050 Br
ENDBRANCH   8  10
ENDBRANCH   5   6
ENDBRANCH   1   5
BRANCH   1  18
ATOM     18  C   UNL     1      -0.197   1.192  -0.525  0.00  0.00    +0.020 C 
BRANCH  18  19
ATOM     19  C   UNL     1      -1.056   1.788  -1.610  0.00  0.00    +0.201 C 
ATOM     20  O   UNL     1      -2.023   2.459  -1.317  0.00  0.00    -0.278 OA
ATOM     21  N   UNL     1      -0.749   1.576  -2.905  0.00  0.00    -0.286 N 
ATOM     22  H   UNL     1       0.176   1.045  -3.171  0.00  0.00    +0.155 HD
BRANCH  21  23
ATOM     23  C   UNL     1      -1.611   2.031  -3.912  0.00  0.00    +0.047 A 
ATOM     24  C   UNL     1      -2.957   2.221  -3.643  0.00  0.00    +0.024 A 
ATOM     25  C   UNL     1      -3.804   2.676  -4.636  0.00  0.00    +0.002 A 
ATOM     26  C   UNL     1      -3.315   2.932  -5.904  0.00  0.00    +0.001 A 
ATOM     27  C   UNL     1      -1.975   2.740  -6.184  0.00  0.00    +0.016 A 
ATOM     28  C   UNL     1      -1.116   2.289  -5.191  0.00  0.00    +0.029 A 
BRANCH  28  29
ATOM     29  S   UNL     1       0.592   2.043  -5.545  0.00  0.00    -0.127 S 
ATOM     30  C   UNL     1       0.749   2.501  -7.293  0.00  0.00    +0.090 C 
ENDBRANCH  28  29
ENDBRANCH  21  23
ENDBRANCH  18  19
ENDBRANCH   1  18
TORSDOF 7
