REMARK  Name = ZINC08961872
REMARK  4 active torsions:
REMARK  status: ('A' for Active; 'I' for Inactive)
REMARK    1  A    between atoms: C_1  and  C_2
REMARK    2  A    between atoms: C_10  and  N_15
REMARK    3  A    between atoms: N_15  and  S_16
REMARK    4  A    between atoms: S_16  and  C_19
REMARK                            x       y       z     vdW  Elec       q    Type
REMARK                         _______ _______ _______ _____ _____    ______ ____
ROOT
ATOM      1  C   UNL     1       5.736   3.241   2.116  0.00  0.00    +0.053 C 
ATOM      2  C   UNL     1       5.868   3.166   0.594  0.00  0.00    +0.187 C 
ATOM      3  C   UNL     1       5.975   1.706   0.175  0.00  0.00    +0.148 C 
ATOM      4  N   UNL     1       5.764   1.562  -1.266  0.00  0.00    -0.308 N 
ATOM      5  C   UNL     1       4.511   1.665  -1.771  0.00  0.00    +0.248 C 
ATOM      6  O   UNL     1       4.301   1.461  -2.951  0.00  0.00    -0.270 OA
ATOM      7  C   UNL     1       3.406   2.028  -0.864  0.00  0.00    +0.080 A 
ATOM      8  C   UNL     1       2.213   1.307  -0.857  0.00  0.00    +0.041 A 
ATOM      9  C   UNL     1       1.191   1.682  -0.000  0.00  0.00    +0.049 A 
ATOM     10  C   UNL     1       1.359   2.765   0.857  0.00  0.00    +0.028 A 
ATOM     11  C   UNL     1       2.542   3.478   0.860  0.00  0.00    +0.048 A 
ATOM     12  C   UNL     1       3.570   3.118   0.006  0.00  0.00    +0.133 A 
ATOM     13  O   UNL     1       4.743   3.801  -0.001  0.00  0.00    -0.487 OA
ATOM     14  H   UNL     1       6.516   1.393  -1.855  0.00  0.00    +0.149 HD
ENDROOT
BRANCH   9  15
ATOM     15  N   UNL     1      -0.011   0.966   0.007  0.00  0.00    -0.216 N 
ATOM     16  H   UNL     1       0.002  -0.004   0.002  0.00  0.00    +0.174 HD
BRANCH  15  17
ATOM     17  S   UNL     1      -1.456   1.774   0.019  0.00  0.00    +0.079 S 
ATOM     18  O   UNL     1      -2.475   0.784  -0.009  0.00  0.00    -0.149 OA
ATOM     19  O   UNL     1      -1.369   2.749   1.049  0.00  0.00    -0.149 OA
BRANCH  17  20
ATOM     20  C   UNL     1      -1.571   2.658  -1.502  0.00  0.00    +0.146 A 
ATOM     21  C   UNL     1      -2.094   2.255  -2.685  0.00  0.00    +0.036 A 
ATOM     22  C   UNL     1      -2.077   3.128  -3.757  0.00  0.00    +0.010 A 
ATOM     23  C   UNL     1      -1.536   4.360  -3.593  0.00  0.00    +0.047 A 
ATOM     24  S   UNL     1      -1.035   4.318  -1.880  0.00  0.00    -0.077 S 
ENDBRANCH  17  20
ENDBRANCH  15  17
ENDBRANCH   9  15
TORSDOF 3
