REMARK  Name = ZINC31808994
REMARK  7 active torsions:
REMARK  status: ('A' for Active; 'I' for Inactive)
REMARK    1  A    between atoms: C_1  and  O_2
REMARK    2  A    between atoms: O_2  and  C_3
REMARK    3  A    between atoms: C_3  and  C_5
REMARK    4  A    between atoms: C_5  and  C_6
REMARK    5  A    between atoms: C_6  and  C_7
REMARK    6  A    between atoms: C_7  and  N_8
REMARK    7  A    between atoms: C_20  and  C_22
REMARK                            x       y       z     vdW  Elec       q    Type
REMARK                         _______ _______ _______ _____ _____    ______ ____
ROOT
ATOM      1  N   UNL     1       1.872  -6.421  -3.244  0.00  0.00    -0.299 N 
ATOM      2  C   UNL     1       2.444  -5.587  -4.135  0.00  0.00    +0.303 C 
ATOM      3  O   UNL     1       2.311  -4.384  -4.013  0.00  0.00    -0.253 OA
ATOM      4  N   UNL     1       3.164  -6.085  -5.159  0.00  0.00    -0.273 N 
ATOM      5  C   UNL     1       3.892  -5.192  -6.072  0.00  0.00    +0.116 C 
ATOM      6  C   UNL     1       5.397  -5.454  -5.936  0.00  0.00    +0.074 C 
ATOM      7  C   UNL     1       5.632  -6.942  -5.929  0.00  0.00    +0.040 A 
ATOM      8  C   UNL     1       4.683  -7.871  -5.684  0.00  0.00    +0.062 A 
ATOM      9  N   UNL     1       5.254  -9.076  -5.757  0.00  0.00    -0.348 N 
ATOM     10  C   UNL     1       6.522  -8.932  -6.041  0.00  0.00    +0.171 A 
ATOM     11  N   UNL     1       6.796  -7.612  -6.157  0.00  0.00    -0.349 N 
ATOM     12  H   UNL     1       7.657  -7.218  -6.363  0.00  0.00    +0.166 HD
ATOM     13  C   UNL     1       3.244  -7.539  -5.388  0.00  0.00    +0.159 C 
ATOM     14  H   UNL     1       1.915  -7.381  -3.381  0.00  0.00    +0.150 HD
ATOM     15  H   UNL     1       4.800  -9.922  -5.621  0.00  0.00    +0.167 HD
ENDROOT
BRANCH  13  16
ATOM     16  C   UNL     1       2.382  -7.922  -6.563  0.00  0.00    +0.017 A 
ATOM     17  C   UNL     1       2.964  -8.199  -7.786  0.00  0.00    +0.011 A 
ATOM     18  C   UNL     1       2.176  -8.550  -8.865  0.00  0.00    +0.042 A 
ATOM     19  C   UNL     1       0.801  -8.625  -8.724  0.00  0.00    +0.161 A 
ATOM     20  C   UNL     1       0.215  -8.348  -7.499  0.00  0.00    +0.194 A 
ATOM     21  C   UNL     1       1.008  -8.001  -6.416  0.00  0.00    +0.167 A 
ATOM     22  F   UNL     1       0.440  -7.736  -5.219  0.00  0.00    -0.202 F 
ATOM     23  F   UNL     1      -1.127  -8.420  -7.359  0.00  0.00    -0.199 F 
ATOM     24  F   UNL     1       0.030  -8.968  -9.779  0.00  0.00    -0.202 F 
ENDBRANCH  13  16
BRANCH   1  25
ATOM     25  C   UNL     1       1.184  -5.880  -2.070  0.00  0.00    +0.106 C 
BRANCH  25  26
ATOM     26  C   UNL     1       0.628  -7.030  -1.228  0.00  0.00    +0.030 C 
BRANCH  26  27
ATOM     27  C   UNL     1      -0.090  -6.465  -0.002  0.00  0.00    +0.122 C 
BRANCH  27  28
ATOM     28  C   UNL     1      -0.638  -7.598   0.827  0.00  0.00    +0.307 C 
ATOM     29  O   UNL     1      -0.470  -8.741   0.473  0.00  0.00    -0.251 OA
BRANCH  28  31
ATOM     30  C   UNL     1      -1.802  -8.461   2.694  0.00  0.00    +0.280 C 
ATOM     31  O   UNL     1      -1.311  -7.338   1.958  0.00  0.00    -0.468 OA
ENDBRANCH  28  31
ENDBRANCH  27  28
ENDBRANCH  26  27
ENDBRANCH  25  26
ENDBRANCH   1  25
TORSDOF 6
