REMARK  Name = ZINC44875920
REMARK  10 active torsions:
REMARK  status: ('A' for Active; 'I' for Inactive)
REMARK    1  A    between atoms: C_1  and  C_2
REMARK    2  A    between atoms: N_5  and  C_8
REMARK    3  A    between atoms: C_8  and  C_9
REMARK    4  A    between atoms: C_12  and  C_15
REMARK    5  A    between atoms: C_15  and  N_16
REMARK    6  A    between atoms: C_17  and  C_19
REMARK    7  A    between atoms: C_19  and  N_20
REMARK    8  A    between atoms: N_20  and  C_21
REMARK    9  A    between atoms: N_20  and  S_31
REMARK   10  A    between atoms: S_31  and  C_34
REMARK                            x       y       z     vdW  Elec       q    Type
REMARK                         _______ _______ _______ _____ _____    ______ ____
ROOT
ATOM      1  N   UNL     1       2.214  -4.120   7.064  0.00  0.00    -0.310 N 
ATOM      2  C   UNL     1       2.737  -4.364   8.282  0.00  0.00    +0.232 C 
ATOM      3  O   UNL     1       2.954  -5.505   8.632  0.00  0.00    -0.274 OA
ATOM      4  H   UNL     1       2.041  -3.208   6.785  0.00  0.00    +0.149 HD
ENDROOT
BRANCH   1   5
ATOM      5  C   UNL     1       1.907  -5.233   6.162  0.00  0.00    +0.139 C 
BRANCH   5   9
ATOM      6  C   UNL     1       0.291  -3.708   2.514  0.00  0.00    -0.064 A 
ATOM      7  C   UNL     1       1.656  -3.885   2.645  0.00  0.00    +0.002 A 
ATOM      8  C   UNL     1       2.179  -4.379   3.825  0.00  0.00    +0.005 A 
ATOM      9  C   UNL     1       1.337  -4.694   4.875  0.00  0.00    -0.030 A 
ATOM     10  C   UNL     1      -0.027  -4.517   4.745  0.00  0.00    +0.005 A 
ATOM     11  C   UNL     1      -0.550  -4.019   3.566  0.00  0.00    +0.002 A 
BRANCH   6  12
ATOM     12  C   UNL     1      -0.279  -3.171   1.227  0.00  0.00    -0.043 C 
BRANCH  12  17
ATOM     13  C   UNL     1       0.123   2.470   0.492  0.00  0.00    +0.007 C 
ATOM     14  C   UNL     1       0.255   0.957   0.312  0.00  0.00    -0.018 C 
ATOM     15  C   UNL     1      -1.138   0.332   0.189  0.00  0.00    -0.016 C 
ATOM     16  C   UNL     1      -1.002  -1.189   0.089  0.00  0.00    -0.078 C 
ATOM     17  N   UNL     1      -0.337  -1.704   1.292  0.00  0.00    +0.382 N 
ATOM     18  C   UNL     1       1.025  -1.165   1.378  0.00  0.00    -0.078 C 
ATOM     19  C   UNL     1       0.967   0.356   1.528  0.00  0.00    -0.016 C 
ATOM     20  H   UNL     1      -0.860  -1.427   2.109  0.00  0.00    -0.081 HD
ENDBRANCH  12  17
ENDBRANCH   6  12
ENDBRANCH   5   9
ENDBRANCH   1   5
BRANCH   2  21
ATOM     21  C   UNL     1       3.053  -3.219   9.210  0.00  0.00    +0.226 C 
BRANCH  21  22
ATOM     22  N   UNL     1       3.509  -3.746  10.498  0.00  0.00    -0.198 N 
BRANCH  22  23
ATOM     23  C   UNL     1       4.852  -4.066  10.684  0.00  0.00    +0.059 A 
ATOM     24  C   UNL     1       5.330  -5.306  10.315  0.00  0.00    +0.025 A 
ATOM     25  C   UNL     1       6.669  -5.635  10.495  0.00  0.00    +0.002 A 
ATOM     26  C   UNL     1       7.545  -4.746  11.040  0.00  0.00    +0.008 A 
ATOM     27  C   UNL     1       7.099  -3.471  11.429  0.00  0.00    -0.016 A 
ATOM     28  C   UNL     1       5.739  -3.122  11.245  0.00  0.00    +0.005 A 
ATOM     29  C   UNL     1       5.296  -1.847  11.630  0.00  0.00    +0.010 A 
ATOM     30  C   UNL     1       6.179  -0.961  12.169  0.00  0.00    +0.001 A 
ATOM     31  C   UNL     1       7.519  -1.302  12.345  0.00  0.00    +0.001 A 
ATOM     32  C   UNL     1       7.980  -2.533  11.994  0.00  0.00    +0.008 A 
ENDBRANCH  22  23
BRANCH  22  33
ATOM     33  S   UNL     1       2.429  -3.962  11.735  0.00  0.00    +0.043 S 
ATOM     34  O   UNL     1       3.191  -3.774  12.919  0.00  0.00    -0.155 OA
ATOM     35  O   UNL     1       1.346  -3.095  11.425  0.00  0.00    -0.155 OA
ATOM     36  C   UNL     1       1.903  -5.692  11.598  0.00  0.00    +0.218 C 
ENDBRANCH  22  33
ENDBRANCH  21  22
ENDBRANCH   2  21
TORSDOF 8
