REMARK  Name = ZINC39030101
REMARK  6 active torsions:
REMARK  status: ('A' for Active; 'I' for Inactive)
REMARK    1  A    between atoms: C_4  and  C_7
REMARK    2  A    between atoms: C_7  and  S_8
REMARK    3  A    between atoms: S_8  and  C_9
REMARK    4  A    between atoms: C_14  and  C_15
REMARK    5  A    between atoms: N_20  and  C_21
REMARK    6  A    between atoms: N_23  and  C_24
REMARK                            x       y       z     vdW  Elec       q    Type
REMARK                         _______ _______ _______ _____ _____    ______ ____
ROOT
ATOM      1  C   UNL     1       5.948  -1.976   4.001  0.00  0.00    +0.194 C 
ATOM      2  N   UNL     1       7.017  -2.054   5.024  0.00  0.00    -0.289 N 
ATOM      3  N   UNL     1       7.298  -1.051   5.641  0.00  0.00    -0.153 NA
ATOM      4  C   UNL     1       6.692   0.174   5.461  0.00  0.00    +0.203 C 
ATOM      5  N   UNL     1       6.926   1.317   6.079  0.00  0.00    -0.136 NA
ATOM      6  S   UNL     1       5.503  -0.194   4.170  0.00  0.00    -0.056 S 
ATOM      7  H   UNL     1       7.480  -2.888   5.196  0.00  0.00    +0.184 HD
ENDROOT
BRANCH   1  13
ATOM      8  C   UNL     1       5.768  -1.884   1.499  0.00  0.00    +0.014 A 
ATOM      9  C   UNL     1       6.265  -2.164   0.232  0.00  0.00    +0.015 A 
ATOM     10  C   UNL     1       7.460  -2.842   0.095  0.00  0.00    +0.001 A 
ATOM     11  C   UNL     1       8.162  -3.243   1.217  0.00  0.00    +0.000 A 
ATOM     12  C   UNL     1       7.670  -2.967   2.480  0.00  0.00    +0.007 A 
ATOM     13  C   UNL     1       6.479  -2.283   2.625  0.00  0.00    -0.000 A 
BRANCH   8  14
ATOM     14  S   UNL     1       4.244  -1.018   1.679  0.00  0.00    -0.120 S 
BRANCH  14  15
ATOM     15  C   UNL     1       3.706  -0.719  -0.027  0.00  0.00    +0.109 C 
BRANCH  15  19
ATOM     16  C   UNL     1      -0.010   1.389  -0.001  0.00  0.00    +0.000 A 
ATOM     17  C   UNL     1       1.182   2.089  -0.008  0.00  0.00    +0.000 A 
ATOM     18  C   UNL     1       2.385   1.407  -0.016  0.00  0.00    +0.004 A 
ATOM     19  C   UNL     1       2.395   0.025  -0.017  0.00  0.00    -0.037 A 
ATOM     20  C   UNL     1       1.203  -0.675  -0.009  0.00  0.00    +0.004 A 
ATOM     21  C   UNL     1       0.001   0.007  -0.003  0.00  0.00    +0.000 A 
ENDBRANCH  15  19
ENDBRANCH  14  15
ENDBRANCH   8  14
ENDBRANCH   1  13
BRANCH   5  22
ATOM     22  C   UNL     1       6.218   2.413   5.754  0.00  0.00    +0.330 C 
ATOM     23  O   UNL     1       5.361   2.350   4.891  0.00  0.00    -0.250 OA
ATOM     24  N   UNL     1       6.456   3.580   6.384  0.00  0.00    -0.265 N 
ATOM     25  H   UNL     1       7.092   3.616   7.115  0.00  0.00    +0.157 HD
BRANCH  24  26
ATOM     26  C   UNL     1       5.785   4.742   5.983  0.00  0.00    +0.070 A 
ATOM     27  C   UNL     1       4.475   4.667   5.530  0.00  0.00    +0.026 A 
ATOM     28  C   UNL     1       3.816   5.815   5.134  0.00  0.00    +0.002 A 
ATOM     29  C   UNL     1       4.459   7.038   5.188  0.00  0.00    +0.003 A 
ATOM     30  C   UNL     1       5.764   7.117   5.638  0.00  0.00    +0.040 A 
ATOM     31  C   UNL     1       6.428   5.973   6.042  0.00  0.00    +0.145 A 
ATOM     32  F   UNL     1       7.701   6.052   6.488  0.00  0.00    -0.204 F 
ENDBRANCH  24  26
ENDBRANCH   5  22
TORSDOF 6
