REMARK  Name = ZINC06748414
REMARK  4 active torsions:
REMARK  status: ('A' for Active; 'I' for Inactive)
REMARK    1  A    between atoms: C_1  and  O_2
REMARK    2  A    between atoms: O_2  and  C_3
REMARK    3  A    between atoms: C_7  and  C_10
REMARK    4  A    between atoms: C_8  and  O_9
REMARK                            x       y       z     vdW  Elec       q    Type
REMARK                         _______ _______ _______ _____ _____    ______ ____
ROOT
ATOM      1  C   UNL     1       1.336  -4.087  -2.310  0.00  0.00    +0.171 A 
ATOM      2  N   UNL     1       0.791  -4.813  -1.344  0.00  0.00    -0.189 NA
ATOM      3  C   UNL     1       0.825  -6.141  -1.392  0.00  0.00    +0.281 A 
ATOM      4  O   UNL     1       0.266  -6.879  -0.402  0.00  0.00    -0.265 OA
ATOM      5  C   UNL     1       1.441  -6.761  -2.473  0.00  0.00    +0.085 A 
ATOM      6  C   UNL     1       1.496  -8.260  -2.553  0.00  0.00    +0.085 C 
ATOM      7  C   UNL     1       2.538  -8.696  -3.548  0.00  0.00    -0.000 A 
ATOM      8  C   UNL     1       2.998 -10.001  -3.518  0.00  0.00    +0.007 A 
ATOM      9  C   UNL     1       3.954 -10.422  -4.423  0.00  0.00    +0.001 A 
ATOM     10  C   UNL     1       4.454  -9.539  -5.362  0.00  0.00    +0.004 A 
ATOM     11  C   UNL     1       4.000  -8.236  -5.395  0.00  0.00    +0.046 A 
ATOM     12  C   UNL     1       3.038  -7.809  -4.486  0.00  0.00    +0.134 A 
ATOM     13  O   UNL     1       2.607  -6.525  -4.537  0.00  0.00    -0.437 OA
ATOM     14  C   UNL     1       2.000  -5.971  -3.467  0.00  0.00    +0.231 A 
ATOM     15  N   UNL     1       1.926  -4.648  -3.357  0.00  0.00    -0.192 NA
ENDROOT
BRANCH   1  20
ATOM     16  C   UNL     1       0.606  -0.608  -1.056  0.00  0.00    +0.162 A 
ATOM     17  C   UNL     1       1.172   0.160  -2.061  0.00  0.00    +0.049 A 
ATOM     18  C   UNL     1       1.789  -0.448  -3.141  0.00  0.00    +0.004 A 
ATOM     19  C   UNL     1       1.845  -1.824  -3.225  0.00  0.00    +0.015 A 
ATOM     20  C   UNL     1       1.278  -2.609  -2.221  0.00  0.00    +0.064 A 
ATOM     21  C   UNL     1       0.661  -1.995  -1.128  0.00  0.00    +0.169 A 
BRANCH  16  23
ATOM     22  C   UNL     1      -0.017   1.425   0.010  0.00  0.00    +0.277 C 
ATOM     23  O   UNL     1       0.002  -0.004   0.002  0.00  0.00    -0.491 OA
ENDBRANCH  16  23
BRANCH  21  24
ATOM     24  O   UNL     1       0.112  -2.751  -0.141  0.00  0.00    -0.503 OA
ATOM     25  H   UNL     1      -0.816  -2.978  -0.290  0.00  0.00    +0.292 HD
ENDBRANCH  21  24
ENDBRANCH   1  20
TORSDOF 3
