REMARK  Name = ZINC12718587
REMARK  9 active torsions:
REMARK  status: ('A' for Active; 'I' for Inactive)
REMARK    1  A    between atoms: C_4  and  C_7
REMARK    2  A    between atoms: C_7  and  N_8
REMARK    3  A    between atoms: N_8  and  C_9
REMARK    4  A    between atoms: C_9  and  C_10
REMARK    5  A    between atoms: C_10  and  O_11
REMARK    6  A    between atoms: C_12  and  C_14
REMARK    7  A    between atoms: C_14  and  C_15
REMARK    8  A    between atoms: C_22  and  C_23
REMARK    9  A    between atoms: C_22  and  N_55
REMARK                            x       y       z     vdW  Elec       q    Type
REMARK                         _______ _______ _______ _____ _____    ______ ____
ROOT
ATOM      1  C   UNL     1       3.690  -3.580  -3.823  0.00  0.00    +0.028 C 
ATOM      2  C   UNL     1       4.103  -4.485  -2.696  0.00  0.00    +0.200 C 
ATOM      3  O   UNL     1       5.214  -4.359  -2.227  0.00  0.00    -0.278 OA
ATOM      4  N   UNL     1       3.297  -5.424  -2.190  0.00  0.00    -0.318 N 
ATOM      5  C   UNL     1       1.929  -5.633  -2.658  0.00  0.00    +0.085 C 
ATOM      6  C   UNL     1       1.741  -4.985  -4.031  0.00  0.00    -0.058 C 
ATOM      7  H   UNL     1       3.635  -5.991  -1.479  0.00  0.00    +0.149 HD
ATOM      8  N   UNL     1       2.221  -3.591  -3.949  0.00  0.00    +0.391 N 
ATOM      9  H   UNL     1       1.810  -3.143  -3.122  0.00  0.00    -0.080 HD
ENDROOT
BRANCH   1  10
ATOM     10  C   UNL     1       4.154  -2.153  -3.523  0.00  0.00    +0.090 C 
BRANCH  10  12
ATOM     11  N   UNL     1       3.888  -0.493  -1.709  0.00  0.00    -0.295 N 
ATOM     12  C   UNL     1       3.540  -1.687  -2.228  0.00  0.00    +0.215 C 
ATOM     13  O   UNL     1       2.734  -2.387  -1.653  0.00  0.00    -0.276 OA
BRANCH  11  14
ATOM     14  C   UNL     1       3.292  -0.040  -0.450  0.00  0.00    +0.143 C 
BRANCH  14  18
ATOM     15  C   UNL     1      -0.276   2.161  -1.273  0.00  0.00    +0.000 A 
ATOM     16  C   UNL     1       0.939   2.816  -1.201  0.00  0.00    +0.000 A 
ATOM     17  C   UNL     1       2.094   2.103  -0.935  0.00  0.00    +0.005 A 
ATOM     18  C   UNL     1       2.033   0.736  -0.741  0.00  0.00    -0.030 A 
ATOM     19  C   UNL     1       0.818   0.081  -0.812  0.00  0.00    +0.005 A 
ATOM     20  C   UNL     1      -0.336   0.793  -1.079  0.00  0.00    +0.000 A 
ENDBRANCH  14  18
ENDBRANCH  11  14
BRANCH  11  21
ATOM     21  C   UNL     1       4.862   0.352  -2.404  0.00  0.00    +0.136 C 
BRANCH  21  22
ATOM     22  C   UNL     1       6.272   0.016  -1.912  0.00  0.00    +0.174 C 
BRANCH  22  23
ATOM     23  O   UNL     1       6.599  -1.324  -2.285  0.00  0.00    -0.393 OA
ATOM     24  H   UNL     1       7.481  -1.606  -2.006  0.00  0.00    +0.209 HD
ENDBRANCH  22  23
ENDBRANCH  21  22
ENDBRANCH  11  21
ENDBRANCH  10  12
ENDBRANCH   1  10
BRANCH   8  25
ATOM     25  C   UNL     1       1.811  -2.840  -5.158  0.00  0.00    -0.040 C 
BRANCH  25  26
ATOM     26  C   UNL     1       0.322  -2.977  -5.342  0.00  0.00    -0.045 A 
ATOM     27  C   UNL     1      -0.530  -2.025  -4.814  0.00  0.00    +0.006 A 
ATOM     28  C   UNL     1      -1.896  -2.149  -4.982  0.00  0.00    +0.038 A 
ATOM     29  C   UNL     1      -2.413  -3.228  -5.680  0.00  0.00    +0.125 A 
ATOM     30  C   UNL     1      -1.560  -4.182  -6.209  0.00  0.00    +0.058 A 
ATOM     31  C   UNL     1      -0.192  -4.052  -6.045  0.00  0.00    +0.045 A 
ATOM     32 CL   UNL     1       0.879  -5.243  -6.714  0.00  0.00    -0.083 Cl
ATOM     33  F   UNL     1      -3.748  -3.351  -5.844  0.00  0.00    -0.205 F 
ENDBRANCH  25  26
ENDBRANCH   8  25
TORSDOF 9
