REMARK  Name = ZINC22001350
REMARK  10 active torsions:
REMARK  status: ('A' for Active; 'I' for Inactive)
REMARK    1  A    between atoms: C_1  and  C_2
REMARK    2  A    between atoms: C_7  and  C_9
REMARK    3  A    between atoms: C_7  and  C_10
REMARK    4  A    between atoms: N_13  and  C_17
REMARK    5  A    between atoms: C_17  and  C_18
REMARK    6  A    between atoms: C_18  and  O_20
REMARK    7  A    between atoms: O_20  and  C_21
REMARK    8  A    between atoms: C_21  and  C_22
REMARK    9  A    between atoms: N_24  and  C_25
REMARK   10  A    between atoms: C_26  and  C_30
REMARK                            x       y       z     vdW  Elec       q    Type
REMARK                         _______ _______ _______ _____ _____    ______ ____
ROOT
ATOM      1  C   UNL     1      -0.019   1.528   0.010  0.00  0.00    +0.007 C 
ATOM      2  C   UNL     1       0.002  -0.004   0.002  0.00  0.00    -0.011 C 
ATOM      3  C   UNL     1      -1.435  -0.529   0.021  0.00  0.00    +0.038 C 
ATOM      4  C   UNL     1      -1.427  -2.050  -0.036  0.00  0.00    +0.113 C 
ATOM      5  C   UNL     1      -0.575  -2.676   1.049  0.00  0.00    +0.041 C 
ATOM      6  C   UNL     1       0.782  -2.031   1.270  0.00  0.00    -0.032 C 
ATOM      7  C   UNL     1       0.719  -0.508   1.253  0.00  0.00    +0.009 C 
ATOM      8  C   UNL     1       1.296  -2.464   2.661  0.00  0.00    +0.011 C 
ATOM      9  C   UNL     1       1.795  -2.526   0.234  0.00  0.00    +0.011 C 
ATOM     10  C   UNL     1      -1.044  -2.534  -1.413  0.00  0.00    +0.247 C 
ATOM     11  O   UNL     1      -0.058  -2.253  -2.060  0.00  0.00    -0.273 OA
ATOM     12  N   UNL     1      -2.050  -3.344  -1.810  0.00  0.00    -0.213 N 
ATOM     13  C   UNL     1      -3.063  -3.331  -0.937  0.00  0.00    +0.310 C 
ATOM     14  O   UNL     1      -4.088  -3.969  -1.082  0.00  0.00    -0.252 OA
ATOM     15  N   UNL     1      -2.817  -2.537   0.119  0.00  0.00    -0.285 N 
ATOM     16  H   UNL     1      -3.418  -2.318   0.845  0.00  0.00    +0.151 HD
ENDROOT
BRANCH  12  17
ATOM     17  C   UNL     1      -2.031  -4.134  -3.043  0.00  0.00    +0.238 C 
BRANCH  17  18
ATOM     18  C   UNL     1      -1.431  -5.488  -2.763  0.00  0.00    +0.326 C 
ATOM     19  O   UNL     1      -1.058  -5.764  -1.647  0.00  0.00    -0.249 OA
BRANCH  18  20
ATOM     20  O   UNL     1      -1.312  -6.387  -3.753  0.00  0.00    -0.454 OA
BRANCH  20  21
ATOM     21  C   UNL     1      -0.734  -7.650  -3.416  0.00  0.00    +0.328 C 
BRANCH  21  22
ATOM     22  C   UNL     1      -0.681  -8.522  -4.643  0.00  0.00    +0.255 C 
ATOM     23  O   UNL     1      -1.098  -8.103  -5.703  0.00  0.00    -0.272 OA
ATOM     24  N   UNL     1      -0.172  -9.767  -4.564  0.00  0.00    -0.276 N 
ATOM     25  H   UNL     1       0.161 -10.102  -3.717  0.00  0.00    +0.155 HD
BRANCH  24  26
ATOM     26  C   UNL     1      -0.123 -10.570  -5.695  0.00  0.00    +0.089 A 
ATOM     27  C   UNL     1       0.356 -11.867  -5.800  0.00  0.00    +0.080 A 
ATOM     28  C   UNL     1       0.289 -12.478  -7.107  0.00  0.00    +0.028 A 
ATOM     29  C   UNL     1      -0.237 -11.716  -8.084  0.00  0.00    +0.048 A 
ATOM     30  S   UNL     1      -0.639 -10.197  -7.248  0.00  0.00    -0.081 S 
BRANCH  27  31
ATOM     31  C   UNL     1       0.892 -12.564  -4.670  0.00  0.00    +0.102 C 
ATOM     32  N   UNL     1       1.318 -13.117  -3.773  0.00  0.00    -0.191 NA
ENDBRANCH  27  31
ENDBRANCH  24  26
ENDBRANCH  21  22
ENDBRANCH  20  21
ENDBRANCH  18  20
ENDBRANCH  17  18
ENDBRANCH  12  17
TORSDOF 7
