REMARK  Name = ZINC38784441
REMARK  5 active torsions:
REMARK  status: ('A' for Active; 'I' for Inactive)
REMARK    1  A    between atoms: C_13  and  S_15
REMARK    2  A    between atoms: S_15  and  C_16
REMARK    3  A    between atoms: C_16  and  C_17
REMARK    4  A    between atoms: N_19  and  C_20
REMARK    5  A    between atoms: N_28  and  C_29
REMARK                            x       y       z     vdW  Elec       q    Type
REMARK                         _______ _______ _______ _____ _____    ______ ____
ROOT
ATOM      1  C   UNL     1       5.665  -5.520  -3.836  0.00  0.00    +0.225 C 
ATOM      2  O   UNL     1       5.029  -6.447  -4.291  0.00  0.00    -0.275 OA
ATOM      3  N   UNL     1       6.938  -5.319  -4.228  0.00  0.00    -0.296 N 
ATOM      4  H   UNL     1       7.446  -4.577  -3.864  0.00  0.00    +0.151 HD
ENDROOT
BRANCH   3   5
ATOM      5  C   UNL     1       7.555  -6.220  -5.205  0.00  0.00    +0.174 C 
ATOM      6  C   UNL     1       8.306  -5.397  -6.255  0.00  0.00    +0.138 C 
ATOM      7  C   UNL     1       9.198  -6.311  -7.056  0.00  0.00    +0.224 C 
ATOM      8  O   UNL     1       9.391  -6.093  -8.232  0.00  0.00    -0.275 OA
ATOM      9  N   UNL     1       9.781  -7.370  -6.463  0.00  0.00    -0.240 N 
ATOM     10  C   UNL     1       9.512  -7.681  -5.184  0.00  0.00    +0.310 C 
ATOM     11  O   UNL     1      10.209  -8.497  -4.614  0.00  0.00    -0.252 OA
ATOM     12  N   UNL     1       8.492  -7.112  -4.521  0.00  0.00    -0.263 N 
ATOM     13  H   UNL     1      10.404  -7.916  -6.967  0.00  0.00    +0.159 HD
BRANCH  12  14
ATOM     14  C   UNL     1       8.315  -7.389  -3.094  0.00  0.00    +0.079 C 
ATOM     15  C   UNL     1       9.560  -6.937  -2.328  0.00  0.00    +0.022 C 
ATOM     16  C   UNL     1       9.375  -7.227  -0.837  0.00  0.00    +0.002 C 
ATOM     17  C   UNL     1       9.167  -8.729  -0.631  0.00  0.00    +0.000 C 
ATOM     18  C   UNL     1       7.922  -9.181  -1.397  0.00  0.00    +0.002 C 
ATOM     19  C   UNL     1       8.107  -8.891  -2.888  0.00  0.00    +0.022 C 
ENDBRANCH  12  14
ENDBRANCH   3   5
BRANCH   1  20
ATOM     20  C   UNL     1       5.030  -4.593  -2.831  0.00  0.00    +0.173 C 
BRANCH  20  21
ATOM     21  S   UNL     1       3.325  -5.124  -2.510  0.00  0.00    -0.075 S 
BRANCH  21  33
ATOM     22  C   UNL     1      -0.016   1.348   0.009  0.00  0.00    +0.001 A 
ATOM     23  C   UNL     1       1.156   2.116   0.002  0.00  0.00    +0.002 A 
ATOM     24  C   UNL     1       2.382   1.544  -0.006  0.00  0.00    +0.026 A 
ATOM     25  C   UNL     1       2.491   0.080  -0.009  0.00  0.00    +0.046 A 
ATOM     26  N   UNL     1       3.530  -0.719  -0.048  0.00  0.00    -0.358 N 
ATOM     27  C   UNL     1       3.072  -2.091   0.097  0.00  0.00    +0.252 C 
ATOM     28  C   UNL     1       1.560  -2.038  -0.034  0.00  0.00    +0.117 C 
ATOM     29  C   UNL     1       1.230  -0.705  -0.013  0.00  0.00    +0.025 A 
ATOM     30  C   UNL     1       0.002  -0.004   0.002  0.00  0.00    +0.012 A 
ATOM     31  N   UNL     1       0.837  -3.136  -0.265  0.00  0.00    -0.147 NA
ATOM     32  N   UNL     1       1.456  -4.093  -0.888  0.00  0.00    -0.122 NA
ATOM     33  C   UNL     1       2.730  -3.957  -1.333  0.00  0.00    +0.208 C 
ATOM     34  N   UNL     1       3.548  -3.009  -0.936  0.00  0.00    -0.227 NA
ATOM     35  H   UNL     1       4.453  -0.440  -0.157  0.00  0.00    +0.162 HD
ENDBRANCH  21  33
ENDBRANCH  20  21
ENDBRANCH   1  20
TORSDOF 5
