REMARK  Name = ZINC61715929
REMARK  12 active torsions:
REMARK  status: ('A' for Active; 'I' for Inactive)
REMARK    1  A    between atoms: C_1  and  C_2
REMARK    2  A    between atoms: C_5  and  N_8
REMARK    3  A    between atoms: C_9  and  S_13
REMARK    4  A    between atoms: S_13  and  C_14
REMARK    5  A    between atoms: C_14  and  C_15
REMARK    6  A    between atoms: C_15  and  C_16
REMARK    7  A    between atoms: C_15  and  O_27
REMARK    8  A    between atoms: C_16  and  O_17
REMARK    9  A    between atoms: O_17  and  C_18
REMARK   10  A    between atoms: C_18  and  C_19
REMARK   11  A    between atoms: C_22  and  O_25
REMARK   12  A    between atoms: O_25  and  C_26
REMARK                            x       y       z     vdW  Elec       q    Type
REMARK                         _______ _______ _______ _____ _____    ______ ____
ROOT
ATOM      1  C   UNL     1       2.196  -6.066   2.983  0.00  0.00    +0.111 C 
ENDROOT
BRANCH   1   2
ATOM      2  S   UNL     1       1.654  -4.499   2.246  0.00  0.00    -0.082 S 
BRANCH   2   4
ATOM      3  N   UNL     1       0.059  -4.173  -0.021  0.00  0.00    -0.187 N 
ATOM      4  C   UNL     1       0.688  -4.993   0.857  0.00  0.00    +0.214 A 
ATOM      5  N   UNL     1       0.441  -6.228   0.476  0.00  0.00    -0.101 NA
ATOM      6  N   UNL     1      -0.296  -6.235  -0.576  0.00  0.00    -0.022 NA
ATOM      7  N   UNL     1      -0.576  -5.030  -0.937  0.00  0.00    -0.038 NA
BRANCH   3  12
ATOM      8  C   UNL     1      -0.018   1.503   0.010  0.00  0.00    +0.044 C 
ATOM      9  C   UNL     1       0.002  -0.004   0.002  0.00  0.00    -0.050 A 
ATOM     10  C   UNL     1       0.006  -0.688  -1.200  0.00  0.00    +0.005 A 
ATOM     11  C   UNL     1       0.025  -2.068  -1.211  0.00  0.00    +0.028 A 
ATOM     12  C   UNL     1       0.040  -2.771  -0.013  0.00  0.00    +0.070 A 
ATOM     13  C   UNL     1       0.037  -2.082   1.192  0.00  0.00    +0.028 A 
ATOM     14  C   UNL     1       0.023  -0.700   1.196  0.00  0.00    +0.005 A 
ENDBRANCH   3  12
ENDBRANCH   2   4
ENDBRANCH   1   2
BRANCH   1  15
ATOM     15  C   UNL     1       3.056  -5.778   4.215  0.00  0.00    +0.150 C 
BRANCH  15  16
ATOM     16  O   UNL     1       2.256  -5.146   5.217  0.00  0.00    -0.389 OA
ATOM     17  H   UNL     1       1.503  -5.676   5.512  0.00  0.00    +0.210 HD
ENDBRANCH  15  16
BRANCH  15  18
ATOM     18  C   UNL     1       3.615  -7.092   4.764  0.00  0.00    +0.192 C 
BRANCH  18  19
ATOM     19  O   UNL     1       4.511  -6.815   5.843  0.00  0.00    -0.373 OA
BRANCH  19  20
ATOM     20  C   UNL     1       5.092  -7.981   6.430  0.00  0.00    +0.195 C 
BRANCH  20  21
ATOM     21  C   UNL     1       6.013  -7.573   7.551  0.00  0.00    -0.022 A 
ATOM     22  C   UNL     1       7.346  -7.315   7.289  0.00  0.00    +0.009 A 
ATOM     23  C   UNL     1       8.193  -6.942   8.315  0.00  0.00    +0.046 A 
ATOM     24  C   UNL     1       7.705  -6.824   9.608  0.00  0.00    +0.120 A 
ATOM     25  C   UNL     1       6.367  -7.083   9.868  0.00  0.00    +0.046 A 
ATOM     26  C   UNL     1       5.523  -7.452   8.838  0.00  0.00    +0.009 A 
BRANCH  24  27
ATOM     27  O   UNL     1       8.536  -6.457  10.619  0.00  0.00    -0.495 OA
ATOM     28  C   UNL     1       7.964  -6.357  11.924  0.00  0.00    +0.277 C 
ENDBRANCH  24  27
ENDBRANCH  20  21
ENDBRANCH  19  20
ENDBRANCH  18  19
ENDBRANCH  15  18
ENDBRANCH   1  15
TORSDOF 10
