REMARK  Name = ZINC49525067
REMARK  5 active torsions:
REMARK  status: ('A' for Active; 'I' for Inactive)
REMARK    1  A    between atoms: C_1  and  C_2
REMARK    2  A    between atoms: C_2  and  C_4
REMARK    3  A    between atoms: C_2  and  N_11
REMARK    4  A    between atoms: N_11  and  C_12
REMARK    5  A    between atoms: C_17  and  N_18
REMARK                            x       y       z     vdW  Elec       q    Type
REMARK                         _______ _______ _______ _____ _____    ______ ____
ROOT
ATOM      1  C   UNL     1      -2.079  -0.648  -1.192  0.00  0.00    +0.052 A 
ATOM      2  C   UNL     1      -1.475  -0.309  -2.393  0.00  0.00    +0.074 A 
ATOM      3  C   UNL     1      -2.172  -0.445  -3.585  0.00  0.00    +0.164 A 
ATOM      4  C   UNL     1      -3.476  -0.922  -3.576  0.00  0.00    +0.164 A 
ATOM      5  C   UNL     1      -4.083  -1.260  -2.374  0.00  0.00    +0.074 A 
ATOM      6  C   UNL     1      -3.386  -1.130  -1.183  0.00  0.00    +0.049 A 
ATOM      7  O   UNL     1      -4.173  -1.069  -4.737  0.00  0.00    -0.485 OA
ATOM      8  C   UNL     1      -3.669  -0.372  -5.882  0.00  0.00    +0.270 C 
ATOM      9  C   UNL     1      -2.154  -0.605  -5.958  0.00  0.00    +0.270 C 
ATOM     10  O   UNL     1      -1.563  -0.103  -4.755  0.00  0.00    -0.485 OA
ENDROOT
BRANCH   6  11
ATOM     11  N   UNL     1      -3.998  -1.478   0.030  0.00  0.00    -0.356 N 
ATOM     12  H   UNL     1      -3.511  -1.383   0.864  0.00  0.00    +0.142 HD
ATOM     13  H   UNL     1      -4.908  -1.814   0.035  0.00  0.00    +0.142 HD
ENDBRANCH   6  11
BRANCH   1  14
ATOM     14  N   UNL     1      -1.372  -0.511   0.012  0.00  0.00    -0.336 N 
ATOM     15  H   UNL     1      -1.794  -0.752   0.852  0.00  0.00    +0.147 HD
BRANCH  14  17
ATOM     16  C   UNL     1      -0.019   1.526   0.010  0.00  0.00    +0.033 C 
ATOM     17  C   UNL     1       0.002  -0.004   0.002  0.00  0.00    +0.098 C 
BRANCH  17  18
ATOM     18  C   UNL     1       0.731  -0.503   1.223  0.00  0.00    -0.028 A 
ATOM     19  C   UNL     1       0.081  -0.558   2.442  0.00  0.00    +0.006 A 
ATOM     20  C   UNL     1       0.749  -1.017   3.562  0.00  0.00    +0.015 A 
ATOM     21  C   UNL     1       2.068  -1.420   3.463  0.00  0.00    +0.018 A 
ATOM     22  C   UNL     1       2.718  -1.365   2.243  0.00  0.00    +0.015 A 
ATOM     23  C   UNL     1       2.048  -0.911   1.123  0.00  0.00    +0.006 A 
ATOM     24 BR   UNL     1       2.983  -2.046   4.995  0.00  0.00    -0.050 Br
ENDBRANCH  17  18
ENDBRANCH  14  17
ENDBRANCH   1  14
TORSDOF 4
