REMARK  Name = ZINC65365145
REMARK  2 active torsions:
REMARK  status: ('A' for Active; 'I' for Inactive)
REMARK    1  A    between atoms: C_4  and  C_7
REMARK    2  A    between atoms: C_13  and  C_27
REMARK                            x       y       z     vdW  Elec       q    Type
REMARK                         _______ _______ _______ _____ _____    ______ ____
ROOT
ATOM      1  C   UNL     1       3.890  -0.533  -0.098  0.00  0.00    +0.024 C 
ATOM      2  C   UNL     1       3.959  -1.394   1.168  0.00  0.00    +0.014 C 
ATOM      3  C   UNL     1       5.352  -2.015   1.252  0.00  0.00    +0.056 C 
ATOM      4  C   UNL     1       5.708  -2.696  -0.044  0.00  0.00    +0.046 A 
ATOM      5  C   UNL     1       5.044  -2.435  -1.227  0.00  0.00    -0.013 A 
ATOM      6  C   UNL     1       5.419  -3.084  -2.388  0.00  0.00    +0.071 A 
ATOM      7  C   UNL     1       6.480  -4.017  -2.353  0.00  0.00    +0.044 A 
ATOM      8  C   UNL     1       7.024  -4.808  -3.467  0.00  0.00    +0.070 A 
ATOM      9  C   UNL     1       8.075  -5.655  -3.160  0.00  0.00    +0.085 A 
ATOM     10  C   UNL     1       8.685  -6.465  -4.127  0.00  0.00    +0.200 A 
ATOM     11  C   UNL     1       8.222  -6.415  -5.429  0.00  0.00    +0.122 A 
ATOM     12  C   UNL     1       7.159  -5.555  -5.731  0.00  0.00    +0.253 A 
ATOM     13  O   UNL     1       6.741  -5.503  -6.877  0.00  0.00    -0.268 OA
ATOM     14  N   UNL     1       6.590  -4.789  -4.791  0.00  0.00    -0.321 N 
ATOM     15  H   UNL     1       5.856  -4.205  -5.039  0.00  0.00    +0.169 HD
ATOM     16  O   UNL     1       9.713  -7.282  -3.792  0.00  0.00    -0.286 OA
ATOM     17  S   UNL     1       8.351  -5.423  -1.423  0.00  0.00    -0.063 S 
ATOM     18  C   UNL     1       7.091  -4.215  -1.099  0.00  0.00    +0.112 A 
ATOM     19  N   UNL     1       6.703  -3.573  -0.021  0.00  0.00    -0.244 NA
ATOM     20  C   UNL     1       3.899  -1.458  -1.313  0.00  0.00    +0.045 C 
ENDROOT
BRANCH   1  24
ATOM     21  C   UNL     1       0.294   1.774  -0.076  0.00  0.00    +0.000 A 
ATOM     22  C   UNL     1       1.522   2.408  -0.122  0.00  0.00    +0.000 A 
ATOM     23  C   UNL     1       2.685   1.661  -0.129  0.00  0.00    +0.004 A 
ATOM     24  C   UNL     1       2.621   0.281  -0.090  0.00  0.00    -0.044 A 
ATOM     25  C   UNL     1       1.394  -0.353  -0.043  0.00  0.00    +0.004 A 
ATOM     26  C   UNL     1       0.230   0.393  -0.037  0.00  0.00    +0.000 A 
ENDBRANCH   1  24
BRANCH   6  27
ATOM     27  C   UNL     1       4.701  -2.801  -3.683  0.00  0.00    +0.418 C 
ATOM     28  F   UNL     1       3.573  -2.013  -3.427  0.00  0.00    -0.166 F 
ATOM     29  F   UNL     1       5.559  -2.119  -4.552  0.00  0.00    -0.166 F 
ATOM     30  F   UNL     1       4.303  -4.007  -4.269  0.00  0.00    -0.166 F 
ENDBRANCH   6  27
TORSDOF 2
