REMARK  Name = ZINC58214880
REMARK  5 active torsions:
REMARK  status: ('A' for Active; 'I' for Inactive)
REMARK    1  A    between atoms: C_3  and  C_6
REMARK    2  A    between atoms: C_6  and  N_7
REMARK    3  A    between atoms: C_10  and  C_13
REMARK    4  A    between atoms: C_13  and  N_14
REMARK    5  A    between atoms: C_20  and  C_23
REMARK                            x       y       z     vdW  Elec       q    Type
REMARK                         _______ _______ _______ _____ _____    ______ ____
ROOT
ATOM      1  N   UNL     1       7.216   4.025   5.067  0.00  0.00    -0.299 N 
ATOM      2  C   UNL     1       7.836   4.143   6.258  0.00  0.00    +0.302 C 
ATOM      3  O   UNL     1       7.217   3.948   7.287  0.00  0.00    -0.253 OA
ATOM      4  N   UNL     1       9.141   4.476   6.309  0.00  0.00    -0.286 N 
ATOM      5  C   UNL     1       9.860   4.490   7.590  0.00  0.00    +0.110 C 
ATOM      6  C   UNL     1      10.529   5.857   7.764  0.00  0.00    +0.032 C 
ATOM      7  C   UNL     1      11.408   6.149   6.545  0.00  0.00    +0.078 C 
ATOM      8  C   UNL     1      10.540   6.193   5.286  0.00  0.00    +0.032 C 
ATOM      9  C   UNL     1       9.872   4.824   5.083  0.00  0.00    +0.110 C 
ATOM     10  H   UNL     1       7.688   4.250   4.250  0.00  0.00    +0.150 HD
ENDROOT
BRANCH   7  11
ATOM     11  C   UNL     1      12.095   7.478   6.728  0.00  0.00    +0.214 C 
ATOM     12  O   UNL     1      11.900   8.128   7.734  0.00  0.00    -0.276 OA
ATOM     13  N   UNL     1      12.925   7.945   5.775  0.00  0.00    -0.329 N 
ATOM     14  H   UNL     1      13.081   7.425   4.971  0.00  0.00    +0.145 HD
ATOM     15  H   UNL     1      13.367   8.800   5.893  0.00  0.00    +0.145 HD
ENDBRANCH   7  11
BRANCH   1  16
ATOM     16  C   UNL     1       5.829   3.557   5.006  0.00  0.00    +0.109 C 
BRANCH  16  20
ATOM     17  N   UNL     1       4.239   1.986   1.362  0.00  0.00    +0.383 N 
ATOM     18  C   UNL     1       3.449   3.029   2.027  0.00  0.00    -0.078 C 
ATOM     19  C   UNL     1       3.883   3.147   3.490  0.00  0.00    -0.014 C 
ATOM     20  C   UNL     1       5.369   3.515   3.548  0.00  0.00    +0.003 C 
ATOM     21  C   UNL     1       6.176   2.459   2.787  0.00  0.00    -0.014 C 
ATOM     22  C   UNL     1       5.657   2.366   1.350  0.00  0.00    -0.078 C 
ATOM     23  H   UNL     1       4.130   1.115   1.859  0.00  0.00    -0.081 HD
BRANCH  17  24
ATOM     24  C   UNL     1       3.766   1.822  -0.019  0.00  0.00    -0.036 C 
BRANCH  24  27
ATOM     25  C   UNL     1      -0.011   1.329   0.013  0.00  0.00    +0.008 A 
ATOM     26  C   UNL     1       1.189   2.016   0.004  0.00  0.00    +0.009 A 
ATOM     27  C   UNL     1       2.348   1.313  -0.007  0.00  0.00    -0.027 A 
ATOM     28  S   UNL     1       1.758  -0.372  -0.005  0.00  0.00    -0.103 S 
ATOM     29  C   UNL     1       0.007  -0.026   0.011  0.00  0.00    +0.045 A 
ENDBRANCH  24  27
ENDBRANCH  17  24
ENDBRANCH  16  20
ENDBRANCH   1  16
TORSDOF 5
