REMARK  Name = ZINC36646604
REMARK  7 active torsions:
REMARK  status: ('A' for Active; 'I' for Inactive)
REMARK    1  A    between atoms: C_5  and  C_7
REMARK    2  A    between atoms: C_10  and  S_13
REMARK    3  A    between atoms: N_11  and  N_12
REMARK    4  A    between atoms: S_13  and  C_14
REMARK    5  A    between atoms: C_14  and  C_15
REMARK    6  A    between atoms: C_17  and  C_20
REMARK    7  A    between atoms: C_24  and  C_26
REMARK                            x       y       z     vdW  Elec       q    Type
REMARK                         _______ _______ _______ _____ _____    ______ ____
ROOT
ATOM      1  S   UNL     1      -0.260  -5.764  -0.032  0.00  0.00    -0.075 S 
ENDROOT
BRANCH   1   5
ATOM      2  C   UNL     1       1.249  -2.160  -0.021  0.00  0.00    +0.183 A 
ATOM      3  N   UNL     1       2.319  -2.921  -0.030  0.00  0.00    -0.127 NA
ATOM      4  N   UNL     1       1.977  -4.160  -0.035  0.00  0.00    -0.121 NA
ATOM      5  C   UNL     1       0.667  -4.266  -0.029  0.00  0.00    +0.209 A 
ATOM      6  N   UNL     1       0.158  -2.999  -0.015  0.00  0.00    -0.224 N 
BRANCH   2  11
ATOM      7  C   UNL     1      -0.017   1.375   0.010  0.00  0.00    +0.001 A 
ATOM      8  C   UNL     1       1.170   2.087   0.002  0.00  0.00    +0.001 A 
ATOM      9  C   UNL     1       2.383   1.421  -0.013  0.00  0.00    +0.016 A 
ATOM     10  C   UNL     1       2.416   0.041  -0.021  0.00  0.00    +0.029 A 
ATOM     11  C   UNL     1       1.222  -0.682  -0.013  0.00  0.00    +0.035 A 
ATOM     12  C   UNL     1       0.002  -0.004   0.002  0.00  0.00    +0.013 A 
ATOM     13 BR   UNL     1       4.075  -0.867  -0.043  0.00  0.00    -0.050 Br
ENDBRANCH   2  11
BRANCH   6  14
ATOM     14  N   UNL     1      -1.159  -2.638  -0.001  0.00  0.00    -0.295 N 
ATOM     15  H   UNL     1      -1.517  -2.538  -0.939  0.00  0.00    +0.163 HD
ATOM     16  H   UNL     1      -1.709  -3.299   0.528  0.00  0.00    +0.163 HD
ENDBRANCH   6  14
ENDBRANCH   1   5
BRANCH   1  17
ATOM     17  C   UNL     1       1.006  -7.064  -0.044  0.00  0.00    +0.176 C 
BRANCH  17  18
ATOM     18  C   UNL     1       0.339  -8.415  -0.047  0.00  0.00    +0.238 A 
ATOM     19  N   UNL     1       0.002  -9.095  -1.106  0.00  0.00    -0.191 NA
ATOM     20  C   UNL     1      -0.570 -10.257  -0.744  0.00  0.00    +0.202 A 
ATOM     21  N   UNL     1      -0.599 -10.320   0.564  0.00  0.00    -0.056 NA
ATOM     22  O   UNL     1      -0.002  -9.122   1.038  0.00  0.00    -0.337 OA
BRANCH  20  23
ATOM     23  C   UNL     1      -1.084 -11.295  -1.672  0.00  0.00    +0.023 A 
ATOM     24  C   UNL     1      -0.989 -11.109  -3.050  0.00  0.00    +0.012 A 
ATOM     25  C   UNL     1      -1.469 -12.078  -3.909  0.00  0.00    +0.001 A 
ATOM     26  C   UNL     1      -2.043 -13.230  -3.404  0.00  0.00    +0.012 A 
ATOM     27  C   UNL     1      -2.140 -13.419  -2.037  0.00  0.00    +0.055 A 
ATOM     28  C   UNL     1      -1.658 -12.460  -1.169  0.00  0.00    +0.024 A 
BRANCH  27  29
ATOM     29  C   UNL     1      -2.767 -14.678  -1.494  0.00  0.00    +0.417 C 
ATOM     30  F   UNL     1      -3.171 -15.493  -2.557  0.00  0.00    -0.166 F 
ATOM     31  F   UNL     1      -1.834 -15.363  -0.709  0.00  0.00    -0.166 F 
ATOM     32  F   UNL     1      -3.879 -14.345  -0.713  0.00  0.00    -0.166 F 
ENDBRANCH  27  29
ENDBRANCH  20  23
ENDBRANCH  17  18
ENDBRANCH   1  17
TORSDOF 7
