REMARK  Name = ZINC39324480
REMARK  11 active torsions:
REMARK  status: ('A' for Active; 'I' for Inactive)
REMARK    1  A    between atoms: C_1  and  C_2
REMARK    2  A    between atoms: C_6  and  C_7
REMARK    3  A    between atoms: C_10  and  C_13
REMARK    4  A    between atoms: C_13  and  O_15
REMARK    5  A    between atoms: O_15  and  C_16
REMARK    6  A    between atoms: C_20  and  C_28
REMARK    7  A    between atoms: C_22  and  C_26
REMARK    8  A    between atoms: C_23  and  N_25
REMARK    9  A    between atoms: C_31  and  C_34
REMARK   10  A    between atoms: C_34  and  O_36
REMARK   11  A    between atoms: O_36  and  C_37
REMARK                            x       y       z     vdW  Elec       q    Type
REMARK                         _______ _______ _______ _____ _____    ______ ____
ROOT
ATOM      1  C   UNL     1      -0.310   1.349   0.239  0.00  0.00    +0.008 C 
ATOM      2  C   UNL     1      -0.067  -0.159   0.158  0.00  0.00    -0.006 C 
ATOM      3  C   UNL     1       0.545  -0.510  -1.207  0.00  0.00    +0.042 C 
ATOM      4  C   UNL     1       0.710  -2.013  -1.242  0.00  0.00    -0.004 C 
ATOM      5  C   UNL     1       0.415  -2.715  -2.353  0.00  0.00    +0.015 C 
ATOM      6  C   UNL     1       1.204  -2.690  -0.027  0.00  0.00    +0.133 C 
ATOM      7  C   UNL     1       1.290  -2.032   1.129  0.00  0.00    -0.014 C 
ATOM      8  C   UNL     1       0.904  -0.581   1.256  0.00  0.00    +0.039 C 
ATOM      9  C   UNL     1       1.787  -2.737   2.370  0.00  0.00    +0.094 C 
ATOM     10  C   UNL     1       2.541  -3.982   2.001  0.00  0.00    +0.098 C 
ATOM     11  C   UNL     1       2.389  -4.543   0.774  0.00  0.00    +0.199 C 
ATOM     12  O   UNL     1       1.561  -3.996  -0.132  0.00  0.00    -0.441 OA
ENDROOT
BRANCH   5  13
ATOM     13  C   UNL     1       0.089  -2.010  -3.603  0.00  0.00    -0.025 A 
ATOM     14  C   UNL     1       0.699  -0.785  -3.896  0.00  0.00    +0.009 A 
ATOM     15  C   UNL     1       0.396  -0.132  -5.056  0.00  0.00    +0.015 A 
ATOM     16  C   UNL     1      -0.524  -0.688  -5.952  0.00  0.00    +0.059 A 
ATOM     17  C   UNL     1      -1.134  -1.912  -5.659  0.00  0.00    +0.015 A 
ATOM     18  C   UNL     1      -0.827  -2.568  -4.502  0.00  0.00    +0.009 A 
BRANCH  16  19
ATOM     19  C   UNL     1      -0.851   0.018  -7.205  0.00  0.00    +0.339 C 
ATOM     20  O   UNL     1      -0.322   1.082  -7.459  0.00  0.00    -0.245 OA
BRANCH  19  21
ATOM     21  O   UNL     1      -1.737  -0.516  -8.068  0.00  0.00    -0.464 OA
ATOM     22  C   UNL     1      -2.007   0.222  -9.261  0.00  0.00    +0.280 C 
ENDBRANCH  19  21
ENDBRANCH  16  19
ENDBRANCH   5  13
BRANCH   9  23
ATOM     23  C   UNL     1       0.611  -3.111   3.235  0.00  0.00    -0.035 A 
ATOM     24  C   UNL     1      -0.367  -3.955   2.740  0.00  0.00    +0.005 A 
ATOM     25  C   UNL     1      -1.447  -4.301   3.527  0.00  0.00    +0.015 A 
ATOM     26  C   UNL     1      -1.551  -3.797   4.825  0.00  0.00    +0.059 A 
ATOM     27  C   UNL     1      -0.560  -2.946   5.318  0.00  0.00    +0.015 A 
ATOM     28  C   UNL     1       0.517  -2.612   4.522  0.00  0.00    +0.005 A 
BRANCH  26  29
ATOM     29  C   UNL     1      -2.704  -4.163   5.672  0.00  0.00    +0.339 C 
ATOM     30  O   UNL     1      -3.565  -4.903   5.240  0.00  0.00    -0.245 OA
BRANCH  29  31
ATOM     31  O   UNL     1      -2.801  -3.675   6.924  0.00  0.00    -0.464 OA
ATOM     32  C   UNL     1      -3.943  -4.070   7.688  0.00  0.00    +0.280 C 
ENDBRANCH  29  31
ENDBRANCH  26  29
ENDBRANCH   9  23
BRANCH  11  33
ATOM     33  N   UNL     1       3.089  -5.680   0.456  0.00  0.00    -0.328 N 
ATOM     34  H   UNL     1       3.689  -6.078   1.106  0.00  0.00    +0.145 HD
ATOM     35  H   UNL     1       2.984  -6.085  -0.419  0.00  0.00    +0.145 HD
ENDBRANCH  11  33
BRANCH  10  36
ATOM     36  C   UNL     1       3.429  -4.583   2.950  0.00  0.00    +0.101 C 
ATOM     37  N   UNL     1       4.133  -5.059   3.704  0.00  0.00    -0.191 NA
ENDBRANCH  10  36
TORSDOF 8
