REMARK  Name = ZINC45509738
REMARK  9 active torsions:
REMARK  status: ('A' for Active; 'I' for Inactive)
REMARK    1  A    between atoms: C_6  and  C_7
REMARK    2  A    between atoms: C_7  and  N_8
REMARK    3  A    between atoms: C_11  and  N_14
REMARK    4  A    between atoms: C_15  and  C_17
REMARK    5  A    between atoms: C_17  and  C_18
REMARK    6  A    between atoms: C_18  and  C_19
REMARK    7  A    between atoms: C_19  and  N_20
REMARK    8  A    between atoms: N_20  and  C_21
REMARK    9  A    between atoms: C_24  and  N_27
REMARK                            x       y       z     vdW  Elec       q    Type
REMARK                         _______ _______ _______ _____ _____    ______ ____
ROOT
ATOM      1  N   UNL     1      -2.972  -2.837  -4.963  0.00  0.00    -0.313 N 
ATOM      2  C   UNL     1      -3.868  -3.780  -5.319  0.00  0.00    +0.213 C 
ATOM      3  O   UNL     1      -4.321  -4.532  -4.482  0.00  0.00    -0.276 OA
ATOM      4  H   UNL     1      -2.610  -2.236  -5.633  0.00  0.00    +0.149 HD
ENDROOT
BRANCH   1   8
ATOM      5  N   UNL     1      -1.727  -1.018  -1.371  0.00  0.00    +0.382 N 
ATOM      6  C   UNL     1      -0.753  -1.886  -2.043  0.00  0.00    -0.077 C 
ATOM      7  C   UNL     1      -1.158  -2.077  -3.507  0.00  0.00    +0.003 C 
ATOM      8  C   UNL     1      -2.546  -2.722  -3.567  0.00  0.00    +0.069 C 
ATOM      9  C   UNL     1      -3.539  -1.845  -2.799  0.00  0.00    +0.003 C 
ATOM     10  C   UNL     1      -3.046  -1.663  -1.362  0.00  0.00    -0.077 C 
ATOM     11  H   UNL     1      -1.787  -0.139  -1.863  0.00  0.00    -0.081 HD
BRANCH   5  12
ATOM     12  C   UNL     1      -1.293  -0.775   0.011  0.00  0.00    -0.043 C 
BRANCH  12  18
ATOM     13  C   UNL     1      -0.017   1.378   0.010  0.00  0.00    +0.003 A 
ATOM     14  C   UNL     1       1.171   2.086   0.002  0.00  0.00    +0.020 A 
ATOM     15  C   UNL     1       2.378   1.410  -0.013  0.00  0.00    +0.041 A 
ATOM     16  C   UNL     1       2.396   0.027  -0.021  0.00  0.00    +0.020 A 
ATOM     17  C   UNL     1       1.208  -0.679  -0.013  0.00  0.00    +0.003 A 
ATOM     18  C   UNL     1       0.002  -0.004   0.002  0.00  0.00    -0.064 A 
ATOM     19 CL   UNL     1       3.870   2.298  -0.023  0.00  0.00    -0.084 Cl
ENDBRANCH  12  18
ENDBRANCH   5  12
ENDBRANCH   1   8
BRANCH   2  20
ATOM     20  C   UNL     1      -4.306  -3.899  -6.756  0.00  0.00    +0.097 C 
BRANCH  20  21
ATOM     21  C   UNL     1      -5.319  -5.038  -6.887  0.00  0.00    +0.028 C 
BRANCH  21  22
ATOM     22  C   UNL     1      -5.764  -5.159  -8.346  0.00  0.00    +0.102 C 
BRANCH  22  23
ATOM     23  N   UNL     1      -6.734  -6.250  -8.471  0.00  0.00    -0.344 N 
ATOM     24  H   UNL     1      -6.993  -6.762  -7.689  0.00  0.00    +0.146 HD
BRANCH  23  25
ATOM     25  C   UNL     1      -7.287  -6.553  -9.718  0.00  0.00    +0.027 A 
ATOM     26  C   UNL     1      -6.914  -5.825 -10.840  0.00  0.00    +0.025 A 
ATOM     27  C   UNL     1      -7.462  -6.127 -12.071  0.00  0.00    +0.034 A 
ATOM     28  C   UNL     1      -8.381  -7.154 -12.187  0.00  0.00    +0.126 A 
ATOM     29  C   UNL     1      -8.755  -7.881 -11.072  0.00  0.00    +0.034 A 
ATOM     30  C   UNL     1      -8.207  -7.587  -9.839  0.00  0.00    +0.025 A 
BRANCH  28  31
ATOM     31  N   UNL     1      -8.966  -7.475 -13.508  0.00  0.00    +0.056 N 
ATOM     32  O   UNL     1      -8.641  -6.840 -14.484  0.00  0.00    -0.126 OA
ATOM     33  O   UNL     1      -9.770  -8.372 -13.611  0.00  0.00    -0.126 OA
ENDBRANCH  28  31
ENDBRANCH  23  25
ENDBRANCH  22  23
ENDBRANCH  21  22
ENDBRANCH  20  21
ENDBRANCH   2  20
TORSDOF 9
