REMARK  Name = ZINC48149987
REMARK  6 active torsions:
REMARK  status: ('A' for Active; 'I' for Inactive)
REMARK    1  A    between atoms: C_4  and  C_7
REMARK    2  A    between atoms: C_7  and  C_9
REMARK    3  A    between atoms: C_7  and  N_25
REMARK    4  A    between atoms: C_9  and  N_10
REMARK    5  A    between atoms: N_13  and  C_14
REMARK    6  A    between atoms: C_19  and  N_20
REMARK                            x       y       z     vdW  Elec       q    Type
REMARK                         _______ _______ _______ _____ _____    ______ ____
ROOT
ATOM      1  N   UNL     1       5.353  -1.925  -1.284  0.00  0.00    -0.300 N 
ATOM      2  C   UNL     1       5.936  -2.356  -2.421  0.00  0.00    +0.304 C 
ATOM      3  O   UNL     1       5.402  -2.149  -3.493  0.00  0.00    -0.253 OA
ATOM      4  N   UNL     1       7.110  -3.015  -2.368  0.00  0.00    -0.268 N 
ATOM      5  H   UNL     1       5.779  -2.090  -0.428  0.00  0.00    +0.150 HD
ATOM      6  H   UNL     1       7.579  -3.105  -1.524  0.00  0.00    +0.156 HD
ENDROOT
BRANCH   4   7
ATOM      7  C   UNL     1       7.653  -3.571  -3.533  0.00  0.00    +0.060 A 
ATOM      8  C   UNL     1       6.824  -3.921  -4.589  0.00  0.00    +0.025 A 
ATOM      9  C   UNL     1       7.362  -4.469  -5.737  0.00  0.00    +0.002 A 
ATOM     10  C   UNL     1       8.727  -4.672  -5.838  0.00  0.00    +0.002 A 
ATOM     11  C   UNL     1       9.560  -4.327  -4.791  0.00  0.00    +0.029 A 
ATOM     12  C   UNL     1       9.029  -3.770  -3.637  0.00  0.00    +0.087 A 
BRANCH  12  13
ATOM     13  N   UNL     1       9.873  -3.414  -2.575  0.00  0.00    -0.238 N 
ATOM     14  C   UNL     1      11.224  -3.461  -2.583  0.00  0.00    +0.114 A 
ATOM     15  C   UNL     1      11.658  -3.037  -1.373  0.00  0.00    +0.041 A 
ATOM     16  C   UNL     1      10.536  -2.721  -0.599  0.00  0.00    +0.135 A 
ATOM     17  N   UNL     1       9.466  -2.942  -1.321  0.00  0.00    -0.175 NA
ENDBRANCH  12  13
ENDBRANCH   4   7
BRANCH   1  18
ATOM     18  C   UNL     1       4.077  -1.208  -1.341  0.00  0.00    +0.095 C 
BRANCH  18  19
ATOM     19  C   UNL     1       3.701  -0.725   0.061  0.00  0.00    -0.020 C 
BRANCH  19  23
ATOM     20  C   UNL     1       6.706   1.950   1.496  0.00  0.00    +0.000 A 
ATOM     21  C   UNL     1       6.698   0.632   1.913  0.00  0.00    +0.000 A 
ATOM     22  C   UNL     1       5.726  -0.233   1.448  0.00  0.00    +0.002 A 
ATOM     23  C   UNL     1       4.761   0.219   0.568  0.00  0.00    -0.059 A 
ATOM     24  C   UNL     1       4.768   1.538   0.152  0.00  0.00    +0.002 A 
ATOM     25  C   UNL     1       5.742   2.403   0.616  0.00  0.00    +0.000 A 
ENDBRANCH  19  23
BRANCH  19  26
ATOM     26  N   UNL     1       2.409  -0.028   0.008  0.00  0.00    +0.385 N 
ATOM     27  C   UNL     1       1.319  -0.991  -0.294  0.00  0.00    -0.078 C 
ATOM     28  C   UNL     1       0.053  -0.269   0.231  0.00  0.00    -0.020 C 
ATOM     29  C   UNL     1       0.559   0.429   1.514  0.00  0.00    -0.020 C 
ATOM     30  C   UNL     1       2.084   0.545   1.333  0.00  0.00    -0.078 C 
ATOM     31  H   UNL     1       2.434   0.701  -0.689  0.00  0.00    -0.081 HD
ENDBRANCH  19  26
ENDBRANCH  18  19
ENDBRANCH   1  18
TORSDOF 6
