REMARK  Name = ZINC38612248
REMARK  9 active torsions:
REMARK  status: ('A' for Active; 'I' for Inactive)
REMARK    1  A    between atoms: C_1  and  C_2
REMARK    2  A    between atoms: C_7  and  C_9
REMARK    3  A    between atoms: C_7  and  C_10
REMARK    4  A    between atoms: N_11  and  S_13
REMARK    5  A    between atoms: S_13  and  C_16
REMARK    6  A    between atoms: C_19  and  C_22
REMARK    7  A    between atoms: N_24  and  C_25
REMARK    8  A    between atoms: C_26  and  C_35
REMARK    9  A    between atoms: N_31  and  C_34
REMARK                            x       y       z     vdW  Elec       q    Type
REMARK                         _______ _______ _______ _____ _____    ______ ____
ROOT
ATOM      1  C   UNL     1      -0.634  -2.543  -4.124  0.00  0.00    +0.106 A 
ATOM      2  C   UNL     1      -1.882  -3.120  -4.277  0.00  0.00    +0.029 A 
ATOM      3  C   UNL     1      -2.661  -2.806  -5.372  0.00  0.00    +0.015 A 
ATOM      4  C   UNL     1      -2.187  -1.903  -6.325  0.00  0.00    +0.037 A 
ATOM      5  C   UNL     1      -0.927  -1.324  -6.164  0.00  0.00    +0.015 A 
ATOM      6  C   UNL     1      -0.161  -1.643  -5.062  0.00  0.00    +0.029 A 
ENDROOT
BRANCH   4   7
ATOM      7  C   UNL     1      -3.016  -1.562  -7.501  0.00  0.00    +0.249 C 
ATOM      8  O   UNL     1      -4.113  -2.068  -7.638  0.00  0.00    -0.270 OA
ATOM      9  N   UNL     1      -2.556  -0.690  -8.419  0.00  0.00    -0.275 N 
ATOM     10  H   UNL     1      -1.681  -0.286  -8.309  0.00  0.00    +0.156 HD
BRANCH   9  11
ATOM     11  C   UNL     1      -3.333  -0.371  -9.521  0.00  0.00    +0.085 A 
ATOM     12  C   UNL     1      -3.023   0.494 -10.562  0.00  0.00    +0.068 A 
ATOM     13  C   UNL     1      -4.017   0.656 -11.604  0.00  0.00    -0.027 A 
ATOM     14  C   UNL     1      -5.141  -0.074 -11.419  0.00  0.00    -0.021 A 
ATOM     15  S   UNL     1      -4.863  -0.947  -9.908  0.00  0.00    -0.079 S 
ATOM     16  C   UNL     1      -6.332  -0.104 -12.323  0.00  0.00    -0.036 C 
ATOM     17  N   UNL     1      -6.255   1.055 -13.231  0.00  0.00    +0.381 N 
ATOM     18  C   UNL     1      -4.926   1.105 -13.855  0.00  0.00    -0.074 C 
ATOM     19  C   UNL     1      -3.877   1.547 -12.830  0.00  0.00    +0.018 C 
ATOM     20  C   UNL     1      -7.281   0.929 -14.274  0.00  0.00    -0.096 C 
ATOM     21  H   UNL     1      -6.412   1.903 -12.707  0.00  0.00    -0.082 HD
BRANCH  12  22
ATOM     22  C   UNL     1      -1.746   1.213 -10.604  0.00  0.00    +0.244 C 
ATOM     23  O   UNL     1      -0.784   0.712 -11.157  0.00  0.00    -0.270 OA
ATOM     24  N   UNL     1      -1.637   2.427 -10.031  0.00  0.00    -0.325 N 
ATOM     25  H   UNL     1      -2.403   2.826  -9.590  0.00  0.00    +0.145 HD
ATOM     26  H   UNL     1      -0.792   2.903 -10.059  0.00  0.00    +0.145 HD
ENDBRANCH  12  22
ENDBRANCH   9  11
ENDBRANCH   4   7
BRANCH   1  27
ATOM     27  S   UNL     1       0.354  -2.950  -2.723  0.00  0.00    +0.061 S 
ATOM     28  O   UNL     1       1.703  -2.689  -3.088  0.00  0.00    -0.153 OA
ATOM     29  O   UNL     1      -0.081  -4.227  -2.276  0.00  0.00    -0.153 OA
BRANCH  27  39
ATOM     30  C   UNL     1      -0.019   1.532   0.011  0.00  0.00    +0.012 C 
ATOM     31  C   UNL     1       0.002  -0.004   0.002  0.00  0.00    -0.016 C 
ATOM     32  C   UNL     1      -1.426  -0.615  -0.029  0.00  0.00    +0.028 C 
ATOM     33  C   UNL     1      -1.084  -2.048  -0.507  0.00  0.00    +0.081 C 
ATOM     34  C   UNL     1      -0.495  -2.791   0.691  0.00  0.00    +0.027 C 
ATOM     35  C   UNL     1       0.724  -2.107   1.283  0.00  0.00    -0.033 C 
ATOM     36  C   UNL     1       0.726  -0.591   1.212  0.00  0.00    +0.014 C 
ATOM     37  C   UNL     1       1.999  -2.669   0.639  0.00  0.00    +0.011 C 
ATOM     38  C   UNL     1       0.781  -2.494   2.782  0.00  0.00    +0.011 C 
ATOM     39  N   UNL     1      -0.028  -1.873  -1.524  0.00  0.00    -0.173 NA
ATOM     40  C   UNL     1       0.625  -0.576  -1.292  0.00  0.00    +0.116 C 
ENDBRANCH  27  39
ENDBRANCH   1  27
TORSDOF 5
