REMARK  Name = ZINC14477494
REMARK  3 active torsions:
REMARK  status: ('A' for Active; 'I' for Inactive)
REMARK    1  A    between atoms: C_3  and  C_9
REMARK    2  A    between atoms: C_20  and  N_26
REMARK    3  A    between atoms: C_22  and  O_25
REMARK                            x       y       z     vdW  Elec       q    Type
REMARK                         _______ _______ _______ _____ _____    ______ ____
ROOT
ATOM      1  C   UNL     1       0.002  -0.004   0.002  0.00  0.00    +0.106 C 
ATOM      2  C   UNL     1      -0.255  -0.510  -1.419  0.00  0.00    +0.029 C 
ATOM      3  C   UNL     1      -1.728  -0.169  -1.785  0.00  0.00    +0.033 C 
ATOM      4  C   UNL     1      -2.520  -1.293  -1.148  0.00  0.00    -0.030 C 
ATOM      5  C   UNL     1      -1.754  -2.334  -0.936  0.00  0.00    -0.023 C 
ATOM      6  C   UNL     1      -0.341  -2.051  -1.393  0.00  0.00    +0.049 C 
ATOM      7  C   UNL     1       0.653  -2.642  -0.437  0.00  0.00    -0.014 A 
ATOM      8  C   UNL     1       0.807  -4.024  -0.428  0.00  0.00    +0.039 A 
ATOM      9  C   UNL     1       1.702  -4.628   0.430  0.00  0.00    +0.130 A 
ATOM     10  C   UNL     1       2.458  -3.859   1.297  0.00  0.00    +0.080 A 
ATOM     11  C   UNL     1       2.314  -2.484   1.296  0.00  0.00    +0.140 A 
ATOM     12  C   UNL     1       1.409  -1.870   0.425  0.00  0.00    +0.074 A 
ATOM     13  N   UNL     1       1.309  -0.477   0.459  0.00  0.00    -0.334 N 
ATOM     14  H   UNL     1       2.054  -0.048  -0.070  0.00  0.00    +0.147 HD
ENDROOT
BRANCH   1  17
ATOM     15  C   UNL     1       0.087   3.584  -1.169  0.00  0.00    +0.020 A 
ATOM     16  C   UNL     1       0.106   2.202  -1.175  0.00  0.00    +0.008 A 
ATOM     17  C   UNL     1      -0.018   1.503   0.010  0.00  0.00    -0.009 A 
ATOM     18  C   UNL     1      -0.168   2.186   1.204  0.00  0.00    +0.047 A 
ATOM     19  C   UNL     1      -0.182   3.569   1.212  0.00  0.00    +0.040 A 
ATOM     20  C   UNL     1      -0.057   4.268   0.025  0.00  0.00    +0.042 A 
ATOM     21 CL   UNL     1      -0.082   6.004   0.033  0.00  0.00    -0.083 Cl
ATOM     22 CL   UNL     1      -0.331   1.308   2.693  0.00  0.00    -0.083 Cl
ENDBRANCH   1  17
BRANCH   9  23
ATOM     23  N   UNL     1       1.853  -6.100   0.424  0.00  0.00    +0.057 N 
ATOM     24  O   UNL     1       1.187  -6.778  -0.338  0.00  0.00    -0.126 OA
ATOM     25  O   UNL     1       2.643  -6.635   1.182  0.00  0.00    -0.126 OA
ENDBRANCH   9  23
BRANCH  11  26
ATOM     26  O   UNL     1       3.057  -1.726   2.146  0.00  0.00    -0.505 OA
ATOM     27  H   UNL     1       3.905  -1.440   1.780  0.00  0.00    +0.292 HD
ENDBRANCH  11  26
TORSDOF 3
