REMARK  Name = ZINC04964500
REMARK  7 active torsions:
REMARK  status: ('A' for Active; 'I' for Inactive)
REMARK    1  A    between atoms: C_1  and  C_2
REMARK    2  A    between atoms: C_7  and  C_28
REMARK    3  A    between atoms: N_11  and  C_12
REMARK    4  A    between atoms: C_12  and  C_13
REMARK    5  A    between atoms: C_13  and  C_14
REMARK    6  A    between atoms: C_14  and  N_15
REMARK    7  A    between atoms: C_16  and  C_18
REMARK                            x       y       z     vdW  Elec       q    Type
REMARK                         _______ _______ _______ _____ _____    ______ ____
ROOT
ATOM      1  C   UNL     1       4.867   1.240  -0.040  0.00  0.00    +0.104 C 
ENDROOT
BRANCH   1  12
ATOM      2  C   UNL     1       0.107  -4.280  -0.022  0.00  0.00    +0.044 C 
ATOM      3  C   UNL     1       0.085  -2.773  -0.014  0.00  0.00    -0.048 A 
ATOM      4  C   UNL     1      -1.138  -2.107   0.002  0.00  0.00    +0.004 A 
ATOM      5  C   UNL     1      -1.191  -0.746   0.009  0.00  0.00    +0.010 A 
ATOM      6  C   UNL     1       0.002  -0.004   0.002  0.00  0.00    -0.000 A 
ATOM      7  C   UNL     1      -0.017   1.402   0.010  0.00  0.00    +0.032 A 
ATOM      8  C   UNL     1       1.198   2.073   0.002  0.00  0.00    +0.090 A 
ATOM      9  C   UNL     1       2.402   1.328  -0.015  0.00  0.00    +0.114 A 
ATOM     10  C   UNL     1       1.247  -0.681  -0.013  0.00  0.00    +0.048 A 
ATOM     11  C   UNL     1       1.260  -2.086  -0.021  0.00  0.00    +0.029 A 
ATOM     12  N   UNL     1       3.613   1.997  -0.023  0.00  0.00    -0.329 N 
ATOM     13  H   UNL     1       3.631   2.966  -0.019  0.00  0.00    +0.147 HD
ATOM     14  N   UNL     1       2.461  -0.026  -0.022  0.00  0.00    -0.342 N 
ATOM     15  H   UNL     1       3.354  -0.533  -0.033  0.00  0.00    +0.167 HD
BRANCH   8  16
ATOM     16  C   UNL     1       1.234   3.504   0.009  0.00  0.00    +0.103 C 
ATOM     17  N   UNL     1       1.263   4.640   0.015  0.00  0.00    -0.191 NA
ENDBRANCH   8  16
ENDBRANCH   1  12
BRANCH   1  18
ATOM     18  C   UNL     1       6.049   2.212  -0.047  0.00  0.00    +0.037 C 
BRANCH  18  19
ATOM     19  C   UNL     1       7.359   1.422  -0.064  0.00  0.00    +0.105 C 
BRANCH  19  20
ATOM     20  N   UNL     1       8.490   2.353  -0.071  0.00  0.00    -0.315 N 
ATOM     21  C   UNL     1       9.752   1.880  -0.086  0.00  0.00    +0.219 C 
ATOM     22  O   UNL     1       9.951   0.683  -0.094  0.00  0.00    -0.275 OA
ATOM     23  H   UNL     1       8.331   3.310  -0.065  0.00  0.00    +0.149 HD
BRANCH  21  24
ATOM     24  C   UNL     1      10.916   2.837  -0.093  0.00  0.00    +0.048 C 
ATOM     25  C   UNL     1      10.839   3.724  -1.337  0.00  0.00    +0.019 C 
ATOM     26  C   UNL     1      12.021   4.696  -1.344  0.00  0.00    -0.009 C 
ATOM     27  C   UNL     1      13.331   3.906  -1.361  0.00  0.00    +0.007 C 
ATOM     28  C   UNL     1      13.408   3.019  -0.117  0.00  0.00    -0.009 C 
ATOM     29  C   UNL     1      12.226   2.047  -0.110  0.00  0.00    +0.019 C 
ATOM     30  C   UNL     1      13.356   3.894   1.137  0.00  0.00    +0.007 C 
ATOM     31  C   UNL     1      12.046   4.684   1.154  0.00  0.00    -0.009 C 
ATOM     32  C   UNL     1      11.969   5.571  -0.090  0.00  0.00    +0.007 C 
ATOM     33  C   UNL     1      10.864   3.712   1.161  0.00  0.00    +0.019 C 
ENDBRANCH  21  24
ENDBRANCH  19  20
ENDBRANCH  18  19
ENDBRANCH   1  18
TORSDOF 6
