REMARK  Name = ZINC39686844
REMARK  7 active torsions:
REMARK  status: ('A' for Active; 'I' for Inactive)
REMARK    1  A    between atoms: C_1  and  C_2
REMARK    2  A    between atoms: C_2  and  C_4
REMARK    3  A    between atoms: C_2  and  N_12
REMARK    4  A    between atoms: C_4  and  C_5
REMARK    5  A    between atoms: C_13  and  C_15
REMARK    6  A    between atoms: C_26  and  C_28
REMARK    7  A    between atoms: C_34  and  C_36
REMARK                            x       y       z     vdW  Elec       q    Type
REMARK                         _______ _______ _______ _____ _____    ______ ____
ROOT
ATOM      1  C   UNL     1      -3.465  -1.164  -1.134  0.00  0.00    +0.100 C 
ATOM      2  C   UNL     1      -4.361  -0.271  -0.248  0.00  0.00    +0.121 C 
ATOM      3  N   UNL     1      -4.986   0.686  -1.192  0.00  0.00    -0.299 N 
ATOM      4  C   UNL     1      -5.291  -0.128  -2.393  0.00  0.00    +0.115 C 
ATOM      5  C   UNL     1      -4.080  -1.071  -2.540  0.00  0.00    -0.004 C 
ATOM      6  C   UNL     1      -4.538  -2.449  -3.009  0.00  0.00    -0.010 C 
ATOM      7  C   UNL     1      -5.093  -2.341  -4.432  0.00  0.00    -0.082 C 
ATOM      8  N   UNL     1      -4.053  -1.817  -5.326  0.00  0.00    +0.379 N 
ATOM      9  C   UNL     1      -3.685  -0.455  -4.923  0.00  0.00    -0.082 C 
ATOM     10  C   UNL     1      -3.071  -0.483  -3.521  0.00  0.00    -0.010 C 
ATOM     11  C   UNL     1      -5.223   1.999  -1.002  0.00  0.00    +0.236 C 
ATOM     12  O   UNL     1      -5.747   2.654  -1.878  0.00  0.00    -0.274 OA
ATOM     13  H   UNL     1      -3.240  -2.412  -5.278  0.00  0.00    -0.086 HD
ATOM     14  H   UNL     1      -4.401  -1.804  -6.273  0.00  0.00    -0.086 HD
ENDROOT
BRANCH  11  15
ATOM     15  C   UNL     1      -4.838   2.653   0.300  0.00  0.00    +0.162 C 
ATOM     16  C   UNL     1      -5.906   2.357   1.373  0.00  0.00    +0.033 C 
ATOM     17  C   UNL     1      -5.995   3.694   2.154  0.00  0.00    +0.021 C 
ATOM     18  C   UNL     1      -5.781   4.730   1.022  0.00  0.00    +0.109 C 
ATOM     19  N   UNL     1      -4.780   4.112   0.128  0.00  0.00    -0.283 N 
ATOM     20  C   UNL     1      -3.952   4.773  -0.706  0.00  0.00    +0.320 C 
ATOM     21  O   UNL     1      -3.168   4.157  -1.396  0.00  0.00    -0.266 OA
BRANCH  20  22
ATOM     22  C   UNL     1      -4.002   6.277  -0.780  0.00  0.00    +0.470 C 
ATOM     23  F   UNL     1      -3.057   6.729  -1.708  0.00  0.00    -0.162 F 
ATOM     24  F   UNL     1      -5.279   6.683  -1.181  0.00  0.00    -0.162 F 
ATOM     25  F   UNL     1      -3.714   6.816   0.478  0.00  0.00    -0.162 F 
ENDBRANCH  20  22
ENDBRANCH  11  15
BRANCH   1  27
ATOM     26  N   UNL     1      -1.018  -1.497  -1.290  0.00  0.00    -0.312 N 
ATOM     27  C   UNL     1      -2.051  -0.643  -1.145  0.00  0.00    +0.218 C 
ATOM     28  O   UNL     1      -1.842   0.546  -1.023  0.00  0.00    -0.275 OA
ATOM     29  H   UNL     1      -1.185  -2.447  -1.387  0.00  0.00    +0.149 HD
BRANCH  26  31
ATOM     30  C   UNL     1       0.861  -0.855   0.138  0.00  0.00    +0.028 C 
ATOM     31  C   UNL     1       0.356  -0.990  -1.300  0.00  0.00    +0.074 C 
BRANCH  31  32
ATOM     32  C   UNL     1       1.253  -1.964  -2.066  0.00  0.00    +0.060 C 
BRANCH  32  33
ATOM     33  C   UNL     1       0.832  -2.004  -3.512  0.00  0.00    -0.010 A 
ATOM     34  C   UNL     1      -0.047  -2.977  -3.950  0.00  0.00    +0.006 A 
ATOM     35  C   UNL     1      -0.433  -3.014  -5.276  0.00  0.00    +0.000 A 
ATOM     36  C   UNL     1       0.059  -2.078  -6.167  0.00  0.00    +0.003 A 
ATOM     37  C   UNL     1       0.937  -1.104  -5.732  0.00  0.00    +0.038 A 
ATOM     38  C   UNL     1       1.321  -1.063  -4.402  0.00  0.00    +0.127 A 
ATOM     39  F   UNL     1       2.175  -0.108  -3.974  0.00  0.00    -0.205 F 
ENDBRANCH  32  33
ENDBRANCH  31  32
ENDBRANCH  26  31
ENDBRANCH   1  27
TORSDOF 6
