REMARK  Name = ZINC15016760
REMARK  10 active torsions:
REMARK  status: ('A' for Active; 'I' for Inactive)
REMARK    1  A    between atoms: C_1  and  C_2
REMARK    2  A    between atoms: C_2  and  C_3
REMARK    3  A    between atoms: C_3  and  C_4
REMARK    4  A    between atoms: C_4  and  C_5
REMARK    5  A    between atoms: C_5  and  S_6
REMARK    6  A    between atoms: S_6  and  C_7
REMARK    7  A    between atoms: C_20  and  C_23
REMARK    8  A    between atoms: C_26  and  O_29
REMARK    9  A    between atoms: O_29  and  C_30
REMARK   10  A    between atoms: C_35  and  C_37
REMARK                            x       y       z     vdW  Elec       q    Type
REMARK                         _______ _______ _______ _____ _____    ______ ____
ROOT
ATOM      1  C   UNL     1      -0.918   1.671   6.497  0.00  0.00    +0.212 A 
ATOM      2  N   UNL     1      -0.603   1.449   7.770  0.00  0.00    -0.184 NA
ATOM      3  C   UNL     1      -1.347   1.986   8.722  0.00  0.00    +0.248 A 
ATOM      4  C   UNL     1      -2.459   2.776   8.352  0.00  0.00    +0.156 A 
ATOM      5  N   UNL     1      -2.722   2.951   7.066  0.00  0.00    -0.141 NA
ATOM      6  N   UNL     1      -1.970   2.411   6.170  0.00  0.00    -0.122 NA
ATOM      7  C   UNL     1      -3.299   3.390   9.401  0.00  0.00    +0.029 A 
ATOM      8  C   UNL     1      -4.686   3.304   9.366  0.00  0.00    +0.012 A 
ATOM      9  C   UNL     1      -5.436   3.903  10.358  0.00  0.00    +0.001 A 
ATOM     10  C   UNL     1      -4.815   4.590  11.387  0.00  0.00    +0.002 A 
ATOM     11  C   UNL     1      -3.436   4.680  11.437  0.00  0.00    +0.024 A 
ATOM     12  C   UNL     1      -2.671   4.079  10.455  0.00  0.00    +0.049 A 
ATOM     13  N   UNL     1      -1.272   4.118  10.494  0.00  0.00    -0.231 N 
ATOM     14  C   UNL     1      -0.541   2.884  10.766  0.00  0.00    +0.303 C 
ATOM     15  O   UNL     1      -1.069   1.785  10.032  0.00  0.00    -0.448 OA
ATOM     16  C   UNL     1      -0.611   5.274  10.284  0.00  0.00    +0.220 C 
ATOM     17  O   UNL     1       0.601   5.295  10.320  0.00  0.00    -0.275 OA
ATOM     18  C   UNL     1      -1.379   6.540  10.003  0.00  0.00    +0.110 C 
ENDROOT
BRANCH  14  19
ATOM     19  C   UNL     1      -0.627   2.577  12.239  0.00  0.00    +0.012 A 
ATOM     20  C   UNL     1      -0.523   3.599  13.164  0.00  0.00    +0.012 A 
ATOM     21  C   UNL     1      -0.607   3.321  14.515  0.00  0.00    +0.046 A 
ATOM     22  C   UNL     1      -0.784   2.014  14.943  0.00  0.00    +0.121 A 
ATOM     23  C   UNL     1      -0.882   0.989  14.013  0.00  0.00    +0.046 A 
ATOM     24  C   UNL     1      -0.803   1.273  12.664  0.00  0.00    +0.012 A 
BRANCH  22  25
ATOM     25  O   UNL     1      -0.862   1.737  16.271  0.00  0.00    -0.489 OA
BRANCH  25  26
ATOM     26  C   UNL     1      -0.922   0.359  16.645  0.00  0.00    +0.173 C 
ATOM     27  C   UNL     1      -2.387  -0.125  16.646  0.00  0.00    +0.044 C 
ATOM     28  C   UNL     1      -2.465  -1.097  17.849  0.00  0.00    +0.004 C 
ATOM     29  C   UNL     1      -1.563  -0.408  18.904  0.00  0.00    +0.004 C 
ATOM     30  C   UNL     1      -0.399   0.179  18.080  0.00  0.00    +0.044 C 
ENDBRANCH  25  26
ENDBRANCH  22  25
ENDBRANCH  14  19
BRANCH   1  31
ATOM     31  S   UNL     1       0.073   0.964   5.223  0.00  0.00    -0.084 S 
BRANCH  31  32
ATOM     32  C   UNL     1      -0.806   1.576   3.764  0.00  0.00    +0.077 C 
BRANCH  32  33
ATOM     33  C   UNL     1      -0.106   1.075   2.499  0.00  0.00    +0.011 C 
BRANCH  33  34
ATOM     34  C   UNL     1      -0.850   1.592   1.266  0.00  0.00    +0.001 C 
BRANCH  34  36
ATOM     35  C   UNL     1      -0.893   1.608  -1.232  0.00  0.00    +0.004 C 
ATOM     36  C   UNL     1      -0.150   1.091   0.001  0.00  0.00    -0.003 C 
ENDBRANCH  34  36
ENDBRANCH  33  34
ENDBRANCH  32  33
ENDBRANCH  31  32
ENDBRANCH   1  31
TORSDOF 8
