REMARK  Name = ZINC36045128
REMARK  9 active torsions:
REMARK  status: ('A' for Active; 'I' for Inactive)
REMARK    1  A    between atoms: C_1  and  C_2
REMARK    2  A    between atoms: C_5  and  S_8
REMARK    3  A    between atoms: S_8  and  N_11
REMARK    4  A    between atoms: N_11  and  C_12
REMARK    5  A    between atoms: N_11  and  C_16
REMARK    6  A    between atoms: C_12  and  C_13
REMARK    7  A    between atoms: C_16  and  C_17
REMARK    8  A    between atoms: C_22  and  C_32
REMARK    9  A    between atoms: N_24  and  C_25
REMARK                            x       y       z     vdW  Elec       q    Type
REMARK                         _______ _______ _______ _____ _____    ______ ____
ROOT
ATOM      1  C   UNL     1       3.089  -3.942  -1.678  0.00  0.00    +0.235 C 
ATOM      2  O   UNL     1       3.042  -2.974  -0.950  0.00  0.00    -0.274 OA
ATOM      3  N   UNL     1       3.805  -3.894  -2.819  0.00  0.00    -0.254 N 
ATOM      4  C   UNL     1       4.490  -2.735  -3.160  0.00  0.00    +0.207 A 
ATOM      5  N   UNL     1       4.520  -1.630  -2.456  0.00  0.00    -0.214 NA
ATOM      6  C   UNL     1       5.283  -0.716  -3.094  0.00  0.00    +0.091 A 
ATOM      7  C   UNL     1       5.743  -1.279  -4.239  0.00  0.00    +0.122 A 
ATOM      8  N   UNL     1       5.246  -2.559  -4.281  0.00  0.00    -0.287 N 
ATOM      9  H   UNL     1       3.843  -4.668  -3.401  0.00  0.00    +0.158 HD
ENDROOT
BRANCH   8  10
ATOM     10  C   UNL     1       5.472  -3.507  -5.289  0.00  0.00    +0.049 A 
ATOM     11  C   UNL     1       5.880  -4.792  -4.956  0.00  0.00    +0.029 A 
ATOM     12  C   UNL     1       6.102  -5.725  -5.950  0.00  0.00    +0.040 A 
ATOM     13  C   UNL     1       5.918  -5.379  -7.279  0.00  0.00    +0.124 A 
ATOM     14  C   UNL     1       5.512  -4.098  -7.613  0.00  0.00    +0.040 A 
ATOM     15  C   UNL     1       5.284  -3.164  -6.621  0.00  0.00    +0.029 A 
ATOM     16  F   UNL     1       6.136  -6.293  -8.250  0.00  0.00    -0.205 F 
ENDBRANCH   8  10
BRANCH   6  17
ATOM     17  C   UNL     1       5.567   0.661  -2.624  0.00  0.00    +0.002 A 
ATOM     18  C   UNL     1       6.370   1.509  -3.386  0.00  0.00    +0.010 A 
ATOM     19  C   UNL     1       6.631   2.790  -2.944  0.00  0.00    +0.001 A 
ATOM     20  C   UNL     1       6.098   3.233  -1.747  0.00  0.00    +0.000 A 
ATOM     21  C   UNL     1       5.301   2.397  -0.986  0.00  0.00    +0.001 A 
ATOM     22  C   UNL     1       5.028   1.116  -1.421  0.00  0.00    +0.010 A 
ENDBRANCH   6  17
BRANCH   1  23
ATOM     23  C   UNL     1       2.346  -5.200  -1.308  0.00  0.00    +0.205 C 
BRANCH  23  24
ATOM     24  N   UNL     1       1.651  -4.999  -0.034  0.00  0.00    -0.168 NA
BRANCH  24  25
ATOM     25  S   UNL     1       0.063  -4.530  -0.023  0.00  0.00    +0.061 S 
ATOM     26  O   UNL     1      -0.476  -4.950   1.223  0.00  0.00    -0.153 OA
ATOM     27  O   UNL     1      -0.490  -4.937  -1.267  0.00  0.00    -0.153 OA
BRANCH  25  32
ATOM     28  C   UNL     1      -0.018   1.503   0.010  0.00  0.00    +0.044 C 
ATOM     29  C   UNL     1       0.002  -0.004   0.002  0.00  0.00    -0.050 A 
ATOM     30  C   UNL     1       0.006  -0.689  -1.199  0.00  0.00    +0.005 A 
ATOM     31  C   UNL     1       0.025  -2.071  -1.206  0.00  0.00    +0.029 A 
ATOM     32  C   UNL     1       0.040  -2.768  -0.013  0.00  0.00    +0.106 A 
ATOM     33  C   UNL     1       0.037  -2.084   1.188  0.00  0.00    +0.029 A 
ATOM     34  C   UNL     1       0.023  -0.702   1.195  0.00  0.00    +0.005 A 
ENDBRANCH  25  32
ENDBRANCH  24  25
BRANCH  24  35
ATOM     35  C   UNL     1       2.360  -5.214   1.229  0.00  0.00    +0.113 C 
BRANCH  35  36
ATOM     36  C   UNL     1       2.304  -6.697   1.601  0.00  0.00    +0.005 C 
ATOM     37  C   UNL     1       1.563  -7.077   2.884  0.00  0.00    +0.005 C 
ATOM     38  C   UNL     1       3.091  -7.147   2.833  0.00  0.00    +0.005 C 
ENDBRANCH  35  36
ENDBRANCH  24  35
ENDBRANCH  23  24
ENDBRANCH   1  23
TORSDOF 8
