REMARK  Name = ZINC02372302
REMARK  6 active torsions:
REMARK  status: ('A' for Active; 'I' for Inactive)
REMARK    1  A    between atoms: C_1  and  O_2
REMARK    2  A    between atoms: O_2  and  C_3
REMARK    3  A    between atoms: C_8  and  C_9
REMARK    4  A    between atoms: C_19  and  C_21
REMARK    5  A    between atoms: C_26  and  O_27
REMARK    6  A    between atoms: O_27  and  C_28
REMARK                            x       y       z     vdW  Elec       q    Type
REMARK                         _______ _______ _______ _____ _____    ______ ____
ROOT
ATOM      1  C   UNL     1       0.212   0.127   0.045  0.00  0.00    +0.215 C 
ATOM      2  N   UNL     1      -1.019  -0.310  -0.630  0.00  0.00    -0.302 N 
ATOM      3  C   UNL     1      -0.659  -1.050  -1.692  0.00  0.00    +0.153 C 
ATOM      4  S   UNL     1      -1.768  -1.772  -2.779  0.00  0.00    -0.017 S 
ATOM      5  N   UNL     1       0.673  -1.155  -1.799  0.00  0.00    -0.203 N 
ATOM      6  N   UNL     1       1.301  -0.453  -0.760  0.00  0.00    -0.203 N 
ATOM      7  C   UNL     1       2.632  -0.558  -0.866  0.00  0.00    +0.153 C 
ATOM      8  S   UNL     1       3.741   0.164   0.219  0.00  0.00    -0.017 S 
ATOM      9  N   UNL     1       2.993  -1.299  -1.929  0.00  0.00    -0.302 N 
ATOM     10  C   UNL     1       1.761  -1.735  -2.604  0.00  0.00    +0.215 C 
ATOM     11  H   UNL     1      -1.927  -0.101  -0.358  0.00  0.00    +0.150 HD
ATOM     12  H   UNL     1       3.900  -1.508  -2.200  0.00  0.00    +0.150 HD
ENDROOT
BRANCH   1  18
ATOM     13  C   UNL     1      -0.324   2.363   1.044  0.00  0.00    +0.127 A 
ATOM     14  C   UNL     1      -0.233   3.747   1.048  0.00  0.00    +0.046 A 
ATOM     15  C   UNL     1       0.475   4.394   0.054  0.00  0.00    +0.004 A 
ATOM     16  C   UNL     1       1.098   3.662  -0.941  0.00  0.00    +0.001 A 
ATOM     17  C   UNL     1       1.013   2.282  -0.943  0.00  0.00    +0.011 A 
ATOM     18  C   UNL     1       0.305   1.631   0.049  0.00  0.00    +0.034 A 
BRANCH  13  20
ATOM     19  C   UNL     1      -1.648   2.542   3.011  0.00  0.00    +0.277 C 
ATOM     20  O   UNL     1      -1.026   1.725   2.018  0.00  0.00    -0.495 OA
ENDBRANCH  13  20
ENDBRANCH   1  18
BRANCH  10  21
ATOM     21  C   UNL     1       1.716  -1.201  -4.012  0.00  0.00    +0.034 A 
ATOM     22  C   UNL     1       1.139   0.028  -4.268  0.00  0.00    +0.011 A 
ATOM     23  C   UNL     1       1.098   0.519  -5.559  0.00  0.00    +0.001 A 
ATOM     24  C   UNL     1       1.635  -0.218  -6.599  0.00  0.00    +0.004 A 
ATOM     25  C   UNL     1       2.213  -1.448  -6.349  0.00  0.00    +0.046 A 
ATOM     26  C   UNL     1       2.260  -1.940  -5.053  0.00  0.00    +0.127 A 
BRANCH  26  27
ATOM     27  O   UNL     1       2.833  -3.147  -4.803  0.00  0.00    -0.495 OA
ATOM     28  C   UNL     1       3.373  -3.853  -5.923  0.00  0.00    +0.277 C 
ENDBRANCH  26  27
ENDBRANCH  10  21
TORSDOF 4
