REMARK  Name = ZINC03274189
REMARK  9 active torsions:
REMARK  status: ('A' for Active; 'I' for Inactive)
REMARK    1  A    between atoms: C_1  and  C_2
REMARK    2  A    between atoms: C_2  and  C_3
REMARK    3  A    between atoms: C_8  and  N_9
REMARK    4  A    between atoms: N_9  and  C_10
REMARK    5  A    between atoms: N_20  and  C_23
REMARK    6  A    between atoms: C_24  and  C_32
REMARK    7  A    between atoms: C_32  and  O_34
REMARK    8  A    between atoms: O_34  and  C_35
REMARK    9  A    between atoms: C_35  and  C_36
REMARK                            x       y       z     vdW  Elec       q    Type
REMARK                         _______ _______ _______ _____ _____    ______ ____
ROOT
ATOM      1  C   UNL     1       4.194  -0.389  -0.125  0.00  0.00    +0.085 C 
ATOM      2  C   UNL     1       4.931   0.044   0.956  0.00  0.00    +0.059 C 
ATOM      3  C   UNL     1       6.408   0.045   0.918  0.00  0.00    +0.000 A 
ATOM      4  C   UNL     1       7.112  -0.387  -0.200  0.00  0.00    +0.009 A 
ATOM      5  C   UNL     1       8.492  -0.366  -0.186  0.00  0.00    +0.001 A 
ATOM      6  C   UNL     1       9.179   0.081   0.933  0.00  0.00    +0.001 A 
ATOM      7  C   UNL     1       8.499   0.513   2.051  0.00  0.00    +0.014 A 
ATOM      8  C   UNL     1       7.103   0.500   2.058  0.00  0.00    +0.046 A 
ATOM      9  C   UNL     1       6.340   0.952   3.228  0.00  0.00    +0.258 C 
ATOM     10  O   UNL     1       6.934   1.346   4.213  0.00  0.00    -0.269 OA
ATOM     11  N   UNL     1       4.997   0.937   3.228  0.00  0.00    -0.195 N 
ATOM     12  C   UNL     1       4.272   0.522   2.176  0.00  0.00    +0.260 C 
ATOM     13  O   UNL     1       3.056   0.539   2.238  0.00  0.00    -0.269 OA
ENDROOT
BRANCH  11  14
ATOM     14  C   UNL     1       4.328   1.376   4.363  0.00  0.00    +0.097 A 
ATOM     15  C   UNL     1       3.827   2.642   4.621  0.00  0.00    +0.091 A 
ATOM     16  C   UNL     1       3.162   2.846   5.897  0.00  0.00    -0.021 A 
ATOM     17  C   UNL     1       3.122   1.747   6.680  0.00  0.00    -0.004 A 
ATOM     18  S   UNL     1       3.935   0.492   5.736  0.00  0.00    -0.077 S 
ATOM     19  C   UNL     1       2.512   1.636   8.044  0.00  0.00    +0.043 C 
ATOM     20  C   UNL     1       2.271   3.055   8.581  0.00  0.00    +0.005 C 
ATOM     21  C   UNL     1       1.577   3.884   7.496  0.00  0.00    +0.005 C 
ATOM     22  C   UNL     1       2.552   4.164   6.351  0.00  0.00    +0.037 C 
BRANCH  15  23
ATOM     23  C   UNL     1       3.962   3.730   3.648  0.00  0.00    +0.342 C 
ATOM     24  O   UNL     1       3.145   3.851   2.755  0.00  0.00    -0.245 OA
BRANCH  23  25
ATOM     25  O   UNL     1       4.991   4.596   3.744  0.00  0.00    -0.461 OA
BRANCH  25  26
ATOM     26  C   UNL     1       5.060   5.631   2.761  0.00  0.00    +0.229 C 
ATOM     27  C   UNL     1       6.285   6.508   3.030  0.00  0.00    +0.048 C 
ENDBRANCH  25  26
ENDBRANCH  23  25
ENDBRANCH  15  23
ENDBRANCH  11  14
BRANCH   1  28
ATOM     28  N   UNL     1       2.841  -0.251  -0.125  0.00  0.00    -0.320 N 
ATOM     29  H   UNL     1       2.388   0.081   0.666  0.00  0.00    +0.152 HD
BRANCH  28  35
ATOM     30  C   UNL     1       0.723  -0.447  -1.265  0.00  0.00    -0.026 A 
ATOM     31  C   UNL     1      -0.002  -0.774  -2.394  0.00  0.00    +0.005 A 
ATOM     32  C   UNL     1       0.646  -1.247  -3.520  0.00  0.00    +0.000 A 
ATOM     33  C   UNL     1       2.021  -1.394  -3.520  0.00  0.00    +0.002 A 
ATOM     34  C   UNL     1       2.752  -1.068  -2.395  0.00  0.00    +0.023 A 
ATOM     35  C   UNL     1       2.104  -0.587  -1.263  0.00  0.00    +0.034 A 
BRANCH  30  37
ATOM     36  C   UNL     1       0.024   1.598  -0.049  0.00  0.00    +0.009 C 
ATOM     37  C   UNL     1       0.015   0.068  -0.038  0.00  0.00    +0.033 C 
ENDBRANCH  30  37
ENDBRANCH  28  35
ENDBRANCH   1  28
TORSDOF 7
