REMARK  Name = ZINC12786580
REMARK  9 active torsions:
REMARK  status: ('A' for Active; 'I' for Inactive)
REMARK    1  A    between atoms: C_1  and  C_2
REMARK    2  A    between atoms: C_2  and  C_4
REMARK    3  A    between atoms: C_2  and  N_19
REMARK    4  A    between atoms: C_9  and  C_14
REMARK    5  A    between atoms: N_19  and  C_20
REMARK    6  A    between atoms: C_20  and  C_22
REMARK    7  A    between atoms: C_20  and  C_28
REMARK    8  A    between atoms: C_28  and  C_29
REMARK    9  A    between atoms: C_28  and  C_30
REMARK                            x       y       z     vdW  Elec       q    Type
REMARK                         _______ _______ _______ _____ _____    ______ ____
ROOT
ATOM      1  C   UNL     1       0.629  -0.504  -1.299  0.00  0.00    +0.129 A 
ATOM      2  N   UNL     1       1.788  -1.098  -1.230  0.00  0.00    -0.194 NA
ATOM      3  C   UNL     1       2.491  -1.433  -2.323  0.00  0.00    +0.282 A 
ATOM      4  O   UNL     1       3.572  -1.989  -2.218  0.00  0.00    -0.265 OA
ATOM      5  C   UNL     1       1.935  -1.120  -3.657  0.00  0.00    +0.082 A 
ATOM      6  C   UNL     1       2.490  -1.376  -4.982  0.00  0.00    +0.039 A 
ATOM      7  C   UNL     1       1.779  -0.989  -6.071  0.00  0.00    +0.059 A 
ATOM      8  S   UNL     1       0.315  -0.256  -5.365  0.00  0.00    -0.078 S 
ATOM      9  C   UNL     1       0.690  -0.484  -3.647  0.00  0.00    +0.092 A 
ATOM     10  N   UNL     1       0.059  -0.193  -2.480  0.00  0.00    -0.336 N 
ATOM     11  H   UNL     1      -0.806   0.245  -2.497  0.00  0.00    +0.168 HD
ENDROOT
BRANCH   6  12
ATOM     12  C   UNL     1       3.800  -2.042  -5.134  0.00  0.00    +0.136 A 
ATOM     13  C   UNL     1       4.066  -3.104  -5.940  0.00  0.00    +0.050 A 
ATOM     14  C   UNL     1       5.433  -3.408  -5.773  0.00  0.00    +0.042 A 
ATOM     15  C   UNL     1       5.928  -2.526  -4.884  0.00  0.00    +0.196 A 
ATOM     16  O   UNL     1       4.939  -1.698  -4.503  0.00  0.00    -0.463 OA
ENDBRANCH   6  12
BRANCH   1  18
ATOM     17  C   UNL     1      -0.429   1.332  -0.011  0.00  0.00    +0.032 C 
ATOM     18  C   UNL     1      -0.095  -0.161  -0.023  0.00  0.00    +0.118 C 
BRANCH  18  19
ATOM     19  N   UNL     1       0.761  -0.480   1.127  0.00  0.00    -0.300 NA
ATOM     20  H   UNL     1       1.329  -1.293   0.940  0.00  0.00    +0.123 HD
BRANCH  19  21
ATOM     21  C   UNL     1      -0.040  -0.667   2.344  0.00  0.00    +0.087 C 
BRANCH  21  22
ATOM     22  C   UNL     1      -0.597  -2.068   2.369  0.00  0.00    -0.030 A 
ATOM     23  C   UNL     1       0.188  -3.131   1.961  0.00  0.00    +0.005 A 
ATOM     24  C   UNL     1      -0.323  -4.415   1.984  0.00  0.00    +0.000 A 
ATOM     25  C   UNL     1      -1.617  -4.637   2.415  0.00  0.00    +0.000 A 
ATOM     26  C   UNL     1      -2.401  -3.575   2.824  0.00  0.00    +0.000 A 
ATOM     27  C   UNL     1      -1.889  -2.291   2.805  0.00  0.00    +0.005 A 
ENDBRANCH  21  22
BRANCH  21  28
ATOM     28  C   UNL     1       0.842  -0.447   3.575  0.00  0.00    +0.004 C 
ATOM     29  C   UNL     1       1.490   0.936   3.496  0.00  0.00    +0.009 C 
ATOM     30  C   UNL     1      -0.015  -0.538   4.839  0.00  0.00    +0.009 C 
ENDBRANCH  21  28
ENDBRANCH  19  21
ENDBRANCH  18  19
ENDBRANCH   1  18
TORSDOF 6
