REMARK  Name = ZINC40688212
REMARK  7 active torsions:
REMARK  status: ('A' for Active; 'I' for Inactive)
REMARK    1  A    between atoms: C_1  and  C_2
REMARK    2  A    between atoms: C_2  and  C_3
REMARK    3  A    between atoms: C_8  and  N_9
REMARK    4  A    between atoms: C_11  and  N_25
REMARK    5  A    between atoms: C_12  and  N_16
REMARK    6  A    between atoms: C_21  and  C_23
REMARK    7  A    between atoms: C_23  and  C_24
REMARK                            x       y       z     vdW  Elec       q    Type
REMARK                         _______ _______ _______ _____ _____    ______ ____
ROOT
ATOM      1  N   UNL     1      -1.455   0.245   2.168  0.00  0.00    -0.298 N 
ATOM      2  C   UNL     1      -2.081  -0.181   3.335  0.00  0.00    +0.149 A 
ATOM      3  C   UNL     1      -3.463  -0.053   3.485  0.00  0.00    +0.106 A 
ATOM      4  C   UNL     1      -4.041  -0.497   4.676  0.00  0.00    +0.147 A 
ATOM      5  N   UNL     1      -3.258  -1.021   5.616  0.00  0.00    -0.219 NA
ATOM      6  C   UNL     1      -1.957  -1.123   5.434  0.00  0.00    +0.225 A 
ATOM      7  N   UNL     1      -1.373  -0.722   4.323  0.00  0.00    -0.219 NA
ATOM      8  H   UNL     1      -1.987   0.545   1.415  0.00  0.00    +0.154 HD
ENDROOT
BRANCH   1  14
ATOM      9  C   UNL     1       0.560   0.235   0.840  0.00  0.00    -0.026 A 
ATOM     10  C   UNL     1       1.939   0.236   0.759  0.00  0.00    +0.005 A 
ATOM     11  C   UNL     1       2.701   0.239   1.913  0.00  0.00    +0.000 A 
ATOM     12  C   UNL     1       2.086   0.240   3.151  0.00  0.00    +0.002 A 
ATOM     13  C   UNL     1       0.709   0.238   3.240  0.00  0.00    +0.023 A 
ATOM     14  C   UNL     1      -0.060   0.241   2.083  0.00  0.00    +0.036 A 
BRANCH   9  16
ATOM     15  C   UNL     1      -0.651   1.669  -0.780  0.00  0.00    +0.009 C 
ATOM     16  C   UNL     1      -0.269   0.232  -0.418  0.00  0.00    +0.033 C 
ENDBRANCH   9  16
ENDBRANCH   1  14
BRANCH   4  17
ATOM     17  N   UNL     1      -5.412  -0.392   4.877  0.00  0.00    -0.311 N 
ATOM     18  C   UNL     1      -6.320  -1.449   4.410  0.00  0.00    +0.107 C 
ATOM     19  C   UNL     1      -7.187  -1.909   5.586  0.00  0.00    +0.019 C 
ATOM     20  C   UNL     1      -7.895  -0.697   6.197  0.00  0.00    +0.003 C 
ATOM     21  C   UNL     1      -6.853   0.293   6.723  0.00  0.00    +0.022 C 
ATOM     22  C   UNL     1      -5.981   0.774   5.565  0.00  0.00    +0.075 C 
BRANCH  22  23
ATOM     23  C   UNL     1      -4.851   1.651   6.108  0.00  0.00    +0.019 C 
ATOM     24  C   UNL     1      -5.436   2.950   6.665  0.00  0.00    +0.006 C 
ENDBRANCH  22  23
ENDBRANCH   4  17
BRANCH   3  25
ATOM     25  N   UNL     1      -4.251   0.507   2.466  0.00  0.00    -0.353 N 
ATOM     26  H   UNL     1      -3.850   0.734   1.612  0.00  0.00    +0.143 HD
ATOM     27  H   UNL     1      -5.196   0.666   2.615  0.00  0.00    +0.143 HD
ENDBRANCH   3  25
TORSDOF 5
