REMARK  Name = ZINC20573310
REMARK  11 active torsions:
REMARK  status: ('A' for Active; 'I' for Inactive)
REMARK    1  A    between atoms: C_1  and  C_2
REMARK    2  A    between atoms: C_2  and  C_3
REMARK    3  A    between atoms: C_3  and  C_5
REMARK    4  A    between atoms: C_3  and  C_6
REMARK    5  A    between atoms: C_9  and  N_12
REMARK    6  A    between atoms: N_12  and  C_13
REMARK    7  A    between atoms: C_13  and  N_15
REMARK    8  A    between atoms: N_15  and  C_16
REMARK    9  A    between atoms: C_19  and  S_22
REMARK   10  A    between atoms: S_22  and  N_25
REMARK   11  A    between atoms: N_25  and  C_26
REMARK                            x       y       z     vdW  Elec       q    Type
REMARK                         _______ _______ _______ _____ _____    ______ ____
ROOT
ATOM      1  C   UNL     1       3.193   2.037   0.142  0.00  0.00    +0.033 A 
ATOM      2  C   UNL     1       4.093   2.941  -0.406  0.00  0.00    +0.025 A 
ATOM      3  C   UNL     1       5.330   3.123   0.181  0.00  0.00    +0.030 A 
ATOM      4  C   UNL     1       5.676   2.399   1.307  0.00  0.00    +0.109 A 
ATOM      5  C   UNL     1       4.784   1.494   1.852  0.00  0.00    +0.030 A 
ATOM      6  C   UNL     1       3.543   1.311   1.273  0.00  0.00    +0.025 A 
ENDROOT
BRANCH   4   7
ATOM      7  S   UNL     1       7.258   2.629   2.049  0.00  0.00    +0.072 S 
ATOM      8  O   UNL     1       7.652   3.963   1.759  0.00  0.00    -0.150 OA
ATOM      9  O   UNL     1       7.159   2.136   3.378  0.00  0.00    -0.150 OA
BRANCH   7  10
ATOM     10  N   UNL     1       8.320   1.638   1.254  0.00  0.00    -0.216 N 
ATOM     11  H   UNL     1       8.848   0.844   1.804  0.00  0.00    +0.174 HD
BRANCH  10  12
ATOM     12  C   UNL     1       8.547   1.810  -0.113  0.00  0.00    +0.048 A 
ATOM     13  C   UNL     1       8.032   0.897  -1.024  0.00  0.00    +0.024 A 
ATOM     14  C   UNL     1       8.254   1.073  -2.376  0.00  0.00    +0.002 A 
ATOM     15  C   UNL     1       8.996   2.151  -2.822  0.00  0.00    +0.000 A 
ATOM     16  C   UNL     1       9.515   3.059  -1.917  0.00  0.00    +0.002 A 
ATOM     17  C   UNL     1       9.293   2.892  -0.564  0.00  0.00    +0.024 A 
ENDBRANCH  10  12
ENDBRANCH   7  10
ENDBRANCH   4   7
BRANCH   1  18
ATOM     18  N   UNL     1       1.937   1.854  -0.447  0.00  0.00    -0.297 N 
ATOM     19  H   UNL     1       1.546   0.838  -0.602  0.00  0.00    +0.154 HD
BRANCH  18  20
ATOM     20  C   UNL     1       1.208   2.922  -0.824  0.00  0.00    +0.139 C 
ATOM     21  S   UNL     1       1.860   4.499  -0.679  0.00  0.00    -0.018 S 
BRANCH  20  22
ATOM     22  N   UNL     1      -0.036   2.750  -1.315  0.00  0.00    -0.297 N 
ATOM     23  H   UNL     1      -0.421   1.735  -1.492  0.00  0.00    +0.154 HD
BRANCH  22  27
ATOM     24  C   UNL     1      -2.417   6.061  -2.167  0.00  0.00    -0.044 A 
ATOM     25  C   UNL     1      -2.409   4.977  -3.025  0.00  0.00    +0.006 A 
ATOM     26  C   UNL     1      -1.621   3.878  -2.746  0.00  0.00    +0.023 A 
ATOM     27  C   UNL     1      -0.835   3.862  -1.601  0.00  0.00    +0.033 A 
ATOM     28  C   UNL     1      -0.849   4.949  -0.738  0.00  0.00    +0.023 A 
ATOM     29  C   UNL     1      -1.635   6.048  -1.026  0.00  0.00    +0.006 A 
BRANCH  24  30
ATOM     30  C   UNL     1      -3.278   7.258  -2.474  0.00  0.00    +0.016 C 
ATOM     31  C   UNL     1      -2.395   8.499  -2.617  0.00  0.00    +0.012 C 
BRANCH  30  33
ATOM     32  C   UNL     1      -5.234   8.609  -1.705  0.00  0.00    +0.004 C 
ATOM     33  C   UNL     1      -4.279   7.472  -1.337  0.00  0.00    +0.004 C 
ENDBRANCH  30  33
ENDBRANCH  24  30
ENDBRANCH  22  27
ENDBRANCH  20  22
ENDBRANCH  18  20
ENDBRANCH   1  18
TORSDOF 9
