REMARK  Name = ZINC09590872
REMARK  7 active torsions:
REMARK  status: ('A' for Active; 'I' for Inactive)
REMARK    1  A    between atoms: C_6  and  S_7
REMARK    2  A    between atoms: S_7  and  N_10
REMARK    3  A    between atoms: C_15  and  C_16
REMARK    4  A    between atoms: C_15  and  N_64
REMARK    5  A    between atoms: C_16  and  C_17
REMARK    6  A    between atoms: N_19  and  C_20
REMARK    7  A    between atoms: C_21  and  C_29
REMARK                            x       y       z     vdW  Elec       q    Type
REMARK                         _______ _______ _______ _____ _____    ______ ____
ROOT
ATOM      1  N   UNL     1      -4.772  12.148  -6.308  0.00  0.00    -0.180 NA
ATOM      2  C   UNL     1      -3.598  11.642  -7.036  0.00  0.00    +0.091 C 
ATOM      3  C   UNL     1      -3.396  10.168  -6.668  0.00  0.00    -0.061 C 
ATOM      4  C   UNL     1      -4.585  10.445  -4.573  0.00  0.00    -0.061 C 
ATOM      5  C   UNL     1      -4.836  11.931  -4.855  0.00  0.00    +0.091 C 
ATOM      6  N   UNL     1      -3.302  10.054  -5.197  0.00  0.00    +0.382 N 
ATOM      7  H   UNL     1      -2.563  10.683  -4.861  0.00  0.00    -0.082 HD
ENDROOT
BRANCH   1   8
ATOM      8  S   UNL     1      -5.989  12.941  -7.104  0.00  0.00    +0.061 S 
ATOM      9  O   UNL     1      -6.639  13.757  -6.140  0.00  0.00    -0.153 OA
ATOM     10  O   UNL     1      -5.418  13.472  -8.292  0.00  0.00    -0.153 OA
BRANCH   8  16
ATOM     11  C   UNL     1      -8.207  11.385  -6.772  0.00  0.00    +0.029 A 
ATOM     12  C   UNL     1      -9.125  10.432  -7.169  0.00  0.00    +0.006 A 
ATOM     13  C   UNL     1      -8.999   9.815  -8.402  0.00  0.00    -0.044 A 
ATOM     14  C   UNL     1      -7.952  10.155  -9.238  0.00  0.00    -0.042 A 
ATOM     15  C   UNL     1      -7.037  11.115  -8.841  0.00  0.00    +0.032 A 
ATOM     16  C   UNL     1      -7.160  11.725  -7.608  0.00  0.00    +0.106 A 
ATOM     17  C   UNL     1      -8.035   9.348 -10.516  0.00  0.00    +0.036 C 
ATOM     18  C   UNL     1      -9.479   8.803 -10.557  0.00  0.00    +0.009 C 
ATOM     19  C   UNL     1      -9.857   8.757  -9.061  0.00  0.00    +0.036 C 
ENDBRANCH   8  16
ENDBRANCH   1   8
BRANCH   6  20
ATOM     20  C   UNL     1      -2.960   8.667  -4.819  0.00  0.00    -0.069 C 
BRANCH  20  21
ATOM     21  C   UNL     1      -2.653   8.627  -3.320  0.00  0.00    +0.077 C 
BRANCH  21  22
ATOM     22  C   UNL     1      -2.279   7.222  -2.922  0.00  0.00    +0.216 C 
ATOM     23  O   UNL     1      -2.260   6.341  -3.755  0.00  0.00    -0.276 OA
ATOM     24  N   UNL     1      -1.965   6.946  -1.641  0.00  0.00    -0.279 N 
ATOM     25  H   UNL     1      -1.980   7.652  -0.975  0.00  0.00    +0.155 HD
BRANCH  24  26
ATOM     26  C   UNL     1      -1.621   5.653  -1.274  0.00  0.00    +0.090 A 
ATOM     27  C   UNL     1      -1.271   5.177  -0.019  0.00  0.00    +0.084 A 
ATOM     28  C   UNL     1      -0.951   3.765   0.100  0.00  0.00    -0.018 A 
ATOM     29  C   UNL     1      -1.032   3.059  -1.049  0.00  0.00    -0.004 A 
ATOM     30  S   UNL     1      -1.524   4.240  -2.273  0.00  0.00    -0.077 S 
ATOM     31  C   UNL     1      -0.761   1.597  -1.232  0.00  0.00    +0.043 C 
ATOM     32  C   UNL     1      -0.013   1.086   0.008  0.00  0.00    +0.005 C 
ATOM     33  C   UNL     1      -0.735   1.583   1.264  0.00  0.00    +0.005 C 
ATOM     34  C   UNL     1      -0.551   3.094   1.407  0.00  0.00    +0.037 C 
BRANCH  27  35
ATOM     35  C   UNL     1      -1.226   6.046   1.118  0.00  0.00    +0.102 C 
ATOM     36  N   UNL     1      -1.191   6.736   2.020  0.00  0.00    -0.191 NA
ENDBRANCH  27  35
ENDBRANCH  24  26
ENDBRANCH  21  22
ENDBRANCH  20  21
ENDBRANCH   6  20
TORSDOF 7
