REMARK  Name = ZINC66633851
REMARK  9 active torsions:
REMARK  status: ('A' for Active; 'I' for Inactive)
REMARK    1  A    between atoms: C_1  and  C_2
REMARK    2  A    between atoms: N_5  and  C_8
REMARK    3  A    between atoms: C_8  and  C_10
REMARK    4  A    between atoms: C_8  and  C_11
REMARK    5  A    between atoms: C_11  and  N_12
REMARK    6  A    between atoms: C_13  and  C_15
REMARK    7  A    between atoms: C_15  and  N_16
REMARK    8  A    between atoms: N_19  and  C_20
REMARK    9  A    between atoms: C_20  and  C_21
REMARK                            x       y       z     vdW  Elec       q    Type
REMARK                         _______ _______ _______ _____ _____    ______ ____
ROOT
ATOM      1  N   UNL     1       1.401  -3.769   2.567  0.00  0.00    -0.316 N 
ATOM      2  C   UNL     1       2.344  -4.097   3.472  0.00  0.00    +0.230 C 
ATOM      3  O   UNL     1       2.100  -4.917   4.332  0.00  0.00    -0.274 OA
ATOM      4  H   UNL     1       1.597  -3.113   1.879  0.00  0.00    +0.149 HD
ENDROOT
BRANCH   1   5
ATOM      5  C   UNL     1       0.082  -4.402   2.621  0.00  0.00    +0.089 C 
BRANCH   5   6
ATOM      6  C   UNL     1      -0.753  -3.945   1.423  0.00  0.00    -0.054 C 
ATOM      7  C   UNL     1      -2.159  -4.540   1.525  0.00  0.00    -0.012 C 
BRANCH   6  12
ATOM      8  C   UNL     1      -2.251   1.558   1.371  0.00  0.00    +0.007 C 
ATOM      9  C   UNL     1      -2.293   0.028   1.371  0.00  0.00    -0.018 C 
ATOM     10  C   UNL     1      -1.621  -0.503   2.641  0.00  0.00    -0.016 C 
ATOM     11  C   UNL     1      -1.596  -2.032   2.597  0.00  0.00    -0.078 C 
ATOM     12  N   UNL     1      -0.842  -2.478   1.419  0.00  0.00    +0.382 N 
ATOM     13  C   UNL     1      -1.519  -2.034   0.196  0.00  0.00    -0.078 C 
ATOM     14  C   UNL     1      -1.541  -0.504   0.147  0.00  0.00    -0.016 C 
ATOM     15  H   UNL     1       0.088  -2.088   1.449  0.00  0.00    -0.081 HD
ENDBRANCH   6  12
ENDBRANCH   5   6
ENDBRANCH   1   5
BRANCH   2  16
ATOM     16  C   UNL     1       3.702  -3.445   3.417  0.00  0.00    +0.201 C 
BRANCH  16  17
ATOM     17  N   UNL     1       4.539  -3.967   4.500  0.00  0.00    -0.291 N 
ATOM     18  C   UNL     1       5.803  -3.524   4.647  0.00  0.00    +0.300 C 
ATOM     19  O   UNL     1       6.249  -2.692   3.881  0.00  0.00    -0.253 OA
ATOM     20  N   UNL     1       6.574  -4.004   5.643  0.00  0.00    -0.295 N 
ATOM     21  H   UNL     1       4.183  -4.631   5.111  0.00  0.00    +0.151 HD
ATOM     22  H   UNL     1       6.218  -4.668   6.254  0.00  0.00    +0.151 HD
BRANCH  20  23
ATOM     23  C   UNL     1       7.948  -3.523   5.803  0.00  0.00    +0.141 C 
BRANCH  23  24
ATOM     24  C   UNL     1       8.588  -4.212   6.981  0.00  0.00    -0.030 A 
ATOM     25  C   UNL     1       8.486  -3.658   8.244  0.00  0.00    +0.006 A 
ATOM     26  C   UNL     1       9.072  -4.290   9.325  0.00  0.00    +0.020 A 
ATOM     27  C   UNL     1       9.761  -5.476   9.143  0.00  0.00    +0.041 A 
ATOM     28  C   UNL     1       9.861  -6.030   7.879  0.00  0.00    +0.020 A 
ATOM     29  C   UNL     1       9.270  -5.401   6.800  0.00  0.00    +0.006 A 
ATOM     30 CL   UNL     1      10.498  -6.269  10.500  0.00  0.00    -0.084 Cl
ENDBRANCH  23  24
ENDBRANCH  20  23
ENDBRANCH  16  17
ENDBRANCH   2  16
TORSDOF 7
