REMARK  Name = ZINC35025748
REMARK  19 active torsions:
REMARK  status: ('A' for Active; 'I' for Inactive)
REMARK    1  A    between atoms: C_1  and  C_2
REMARK    2  A    between atoms: C_2  and  O_3
REMARK    3  A    between atoms: O_3  and  C_4
REMARK    4  A    between atoms: C_4  and  C_6
REMARK    5  A    between atoms: N_9  and  C_12
REMARK    6  A    between atoms: C_12  and  C_14
REMARK    7  A    between atoms: C_12  and  C_23
REMARK    8  A    between atoms: C_17  and  N_20
REMARK    9  A    between atoms: N_20  and  C_21
REMARK   10  A    between atoms: N_20  and  C_22
REMARK   11  A    between atoms: C_25  and  C_34
REMARK   12  A    between atoms: C_26  and  O_33
REMARK   13  A    between atoms: C_27  and  C_29
REMARK   14  A    between atoms: C_29  and  C_30
REMARK   15  A    between atoms: C_29  and  C_31
REMARK   16  A    between atoms: C_29  and  C_32
REMARK   17  A    between atoms: C_34  and  C_35
REMARK   18  A    between atoms: C_34  and  C_36
REMARK   19  A    between atoms: C_34  and  C_37
REMARK                            x       y       z     vdW  Elec       q    Type
REMARK                         _______ _______ _______ _____ _____    ______ ____
ROOT
ATOM      1  C   UNL     1       1.885  -4.596  -6.153  0.00  0.00    -0.007 C 
ENDROOT
BRANCH   1   5
ATOM      2  C   UNL     1       1.420  -2.349  -2.562  0.00  0.00    +0.094 C 
ATOM      3  C   UNL     1       0.702  -1.892  -3.835  0.00  0.00    -0.004 C 
ATOM      4  C   UNL     1       1.378  -2.529  -5.052  0.00  0.00    -0.077 C 
ATOM      5  N   UNL     1       1.306  -3.991  -4.946  0.00  0.00    +0.387 N 
ATOM      6  C   UNL     1       2.053  -4.443  -3.766  0.00  0.00    -0.077 C 
ATOM      7  C   UNL     1       1.403  -3.880  -2.500  0.00  0.00    -0.004 C 
ATOM      8  H   UNL     1       0.341  -4.274  -4.861  0.00  0.00    -0.080 HD
BRANCH   2   9
ATOM      9  C   UNL     1       0.712  -1.789  -1.355  0.00  0.00    +0.310 C 
ATOM     10  O   UNL     1       0.242  -2.535  -0.530  0.00  0.00    -0.251 OA
BRANCH   9  11
ATOM     11  O   UNL     1       0.604  -0.460  -1.198  0.00  0.00    -0.465 OA
BRANCH  11  13
ATOM     12  C   UNL     1      -0.102   1.531  -0.025  0.00  0.00    +0.048 C 
ATOM     13  C   UNL     1      -0.079   0.001  -0.031  0.00  0.00    +0.229 C 
ENDBRANCH  11  13
ENDBRANCH   9  11
ENDBRANCH   2   9
ENDBRANCH   1   5
BRANCH   1  14
ATOM     14  C   UNL     1       1.812  -6.098  -6.046  0.00  0.00    -0.057 A 
ATOM     15  C   UNL     1       0.683  -6.698  -5.517  0.00  0.00    +0.004 A 
ATOM     16  C   UNL     1       0.613  -8.073  -5.418  0.00  0.00    +0.023 A 
ATOM     17  C   UNL     1       1.677  -8.855  -5.850  0.00  0.00    +0.029 A 
ATOM     18  C   UNL     1       2.809  -8.249  -6.380  0.00  0.00    +0.023 A 
ATOM     19  C   UNL     1       2.871  -6.873  -6.482  0.00  0.00    +0.004 A 
BRANCH  17  20
ATOM     20  N   UNL     1       1.609 -10.246  -5.750  0.00  0.00    -0.336 N 
ATOM     21  C   UNL     1       0.472 -10.878  -5.077  0.00  0.00    +0.129 C 
ATOM     22  C   UNL     1       2.676 -11.074  -6.319  0.00  0.00    +0.129 C 
ENDBRANCH  17  20
ENDBRANCH   1  14
BRANCH   1  23
ATOM     23  C   UNL     1       1.113  -4.141  -7.364  0.00  0.00    -0.056 A 
ATOM     24  C   UNL     1      -0.264  -4.030  -7.304  0.00  0.00    +0.010 A 
ATOM     25  C   UNL     1      -0.973  -3.613  -8.413  0.00  0.00    -0.000 A 
ATOM     26  C   UNL     1      -0.304  -3.305  -9.588  0.00  0.00    +0.124 A 
ATOM     27  C   UNL     1       1.078  -3.416  -9.646  0.00  0.00    -0.000 A 
ATOM     28  C   UNL     1       1.784  -3.829  -8.532  0.00  0.00    +0.010 A 
BRANCH  27  29
ATOM     29  C   UNL     1       1.809  -3.082 -10.921  0.00  0.00    -0.009 C 
ATOM     30  C   UNL     1       3.311  -3.288 -10.717  0.00  0.00    +0.015 C 
ATOM     31  C   UNL     1       1.317  -3.997 -12.045  0.00  0.00    +0.015 C 
ATOM     32  C   UNL     1       1.540  -1.623 -11.296  0.00  0.00    +0.015 C 
ENDBRANCH  27  29
BRANCH  25  33
ATOM     33  C   UNL     1      -2.474  -3.493  -8.347  0.00  0.00    -0.009 C 
ATOM     34  C   UNL     1      -2.956  -3.889  -6.950  0.00  0.00    +0.015 C 
ATOM     35  C   UNL     1      -2.884  -2.048  -8.636  0.00  0.00    +0.015 C 
ATOM     36  C   UNL     1      -3.106  -4.421  -9.386  0.00  0.00    +0.015 C 
ENDBRANCH  25  33
BRANCH  26  37
ATOM     37  O   UNL     1      -1.000  -2.894 -10.681  0.00  0.00    -0.506 OA
ATOM     38  H   UNL     1      -1.123  -1.937 -10.732  0.00  0.00    +0.292 HD
ENDBRANCH  26  37
ENDBRANCH   1  23
TORSDOF 10
