REMARK  Name = ZINC35374774
REMARK  6 active torsions:
REMARK  status: ('A' for Active; 'I' for Inactive)
REMARK    1  A    between atoms: C_1  and  C_2
REMARK    2  A    between atoms: C_4  and  C_35
REMARK    3  A    between atoms: C_13  and  C_16
REMARK    4  A    between atoms: C_16  and  C_18
REMARK    5  A    between atoms: C_16  and  O_19
REMARK    6  A    between atoms: N_22  and  C_25
REMARK                            x       y       z     vdW  Elec       q    Type
REMARK                         _______ _______ _______ _____ _____    ______ ____
ROOT
ATOM      1  C   UNL     1      -0.018   1.503   0.010  0.00  0.00    +0.044 C 
ATOM      2  C   UNL     1       0.002  -0.004   0.002  0.00  0.00    -0.050 A 
ATOM      3  C   UNL     1       0.006  -0.691  -1.198  0.00  0.00    +0.008 A 
ATOM      4  C   UNL     1       0.025  -2.070  -1.212  0.00  0.00    -0.029 A 
ATOM      5  C   UNL     1       0.041  -2.782  -0.015  0.00  0.00    +0.042 A 
ATOM      6  C   UNL     1       0.036  -2.081   1.187  0.00  0.00    +0.004 A 
ATOM      7  C   UNL     1       0.023  -0.704   1.195  0.00  0.00    +0.011 A 
ATOM      8  C   UNL     1       0.056  -3.122   2.270  0.00  0.00    +0.136 C 
ATOM      9  C   UNL     1      -1.166  -3.002   3.187  0.00  0.00    +0.123 C 
ATOM     10  C   UNL     1      -0.633  -3.365   4.601  0.00  0.00    +0.109 C 
ATOM     11  C   UNL     1       0.864  -3.677   4.391  0.00  0.00    +0.096 C 
ATOM     12  N   UNL     1       1.235  -2.971   3.143  0.00  0.00    -0.293 NA
ATOM     13  C   UNL     1      -1.377  -4.638   4.938  0.00  0.00    +0.228 C 
ATOM     14  O   UNL     1      -1.260  -5.266   5.968  0.00  0.00    -0.275 OA
ATOM     15  N   UNL     1      -2.183  -4.964   3.921  0.00  0.00    -0.238 N 
ATOM     16  C   UNL     1      -2.151  -4.106   2.876  0.00  0.00    +0.228 C 
ATOM     17  O   UNL     1      -2.798  -4.200   1.855  0.00  0.00    -0.275 OA
ATOM     18  C   UNL     1       0.073  -4.440   1.545  0.00  0.00    +0.243 C 
ATOM     19  O   UNL     1       0.093  -5.543   2.049  0.00  0.00    -0.273 OA
ATOM     20  N   UNL     1       0.062  -4.157   0.228  0.00  0.00    -0.283 N 
ATOM     21  C   UNL     1       0.030  -2.808  -2.526  0.00  0.00    +0.045 C 
ATOM     22  H   UNL     1       2.053  -3.382   2.719  0.00  0.00    +0.124 HD
ATOM     23  H   UNL     1       0.068  -4.831  -0.470  0.00  0.00    +0.155 HD
ENDROOT
BRANCH  15  24
ATOM     24  C   UNL     1      -3.040  -6.152   3.939  0.00  0.00    +0.084 C 
ATOM     25  C   UNL     1      -4.062  -6.014   5.085  0.00  0.00    +0.023 C 
ATOM     26  C   UNL     1      -5.224  -6.928   4.803  0.00  0.00    +0.002 C 
ATOM     27  C   UNL     1      -5.073  -8.300   5.486  0.00  0.00    +0.000 C 
ATOM     28  C   UNL     1      -3.640  -8.858   5.396  0.00  0.00    +0.000 C 
ATOM     29  C   UNL     1      -3.021  -8.641   4.042  0.00  0.00    +0.002 C 
ATOM     30  C   UNL     1      -2.203  -7.334   4.081  0.00  0.00    +0.023 C 
ENDBRANCH  15  24
BRANCH  11  31
ATOM     31  C   UNL     1       1.686  -3.167   5.576  0.00  0.00    +0.129 C 
ATOM     32  C   UNL     1       3.175  -3.373   5.291  0.00  0.00    +0.039 C 
BRANCH  31  33
ATOM     33  O   UNL     1       1.427  -1.775   5.772  0.00  0.00    -0.390 OA
ATOM     34  H   UNL     1       1.651  -1.223   5.011  0.00  0.00    +0.210 HD
ENDBRANCH  31  33
ENDBRANCH  11  31
TORSDOF 3
