REMARK  Name = ZINC12573793
REMARK  12 active torsions:
REMARK  status: ('A' for Active; 'I' for Inactive)
REMARK    1  A    between atoms: C_1  and  C_2
REMARK    2  A    between atoms: C_2  and  C_4
REMARK    3  A    between atoms: C_2  and  O_23
REMARK    4  A    between atoms: N_6  and  N_7
REMARK    5  A    between atoms: N_7  and  C_8
REMARK    6  A    between atoms: C_8  and  N_10
REMARK    7  A    between atoms: C_11  and  C_13
REMARK    8  A    between atoms: C_16  and  C_19
REMARK    9  A    between atoms: C_19  and  C_20
REMARK   10  A    between atoms: C_19  and  C_21
REMARK   11  A    between atoms: C_19  and  C_22
REMARK   12  A    between atoms: O_23  and  C_24
REMARK                            x       y       z     vdW  Elec       q    Type
REMARK                         _______ _______ _______ _____ _____    ______ ____
ROOT
ATOM      1  N   UNL     1       3.784   1.766   0.275  0.00  0.00    -0.245 N 
ATOM      2  H   UNL     1       4.648   1.356   0.111  0.00  0.00    +0.172 HD
ENDROOT
BRANCH   1   5
ATOM      3  C   UNL     1       4.758   3.934   0.144  0.00  0.00    +0.270 C 
ATOM      4  O   UNL     1       5.838   3.421  -0.060  0.00  0.00    -0.270 OA
ATOM      5  N   UNL     1       3.669   3.161   0.324  0.00  0.00    -0.232 N 
ATOM      6  H   UNL     1       2.805   3.571   0.487  0.00  0.00    +0.173 HD
BRANCH   3   8
ATOM      7  C   UNL     1       3.764   5.916  -0.966  0.00  0.00    +0.062 C 
ATOM      8  C   UNL     1       4.635   5.435   0.197  0.00  0.00    +0.257 C 
BRANCH   8   9
ATOM      9  O   UNL     1       5.933   6.024   0.095  0.00  0.00    -0.478 OA
BRANCH   9  10
ATOM     10  C   UNL     1       6.091   7.264   0.629  0.00  0.00    +0.140 A 
ATOM     11  C   UNL     1       4.996   7.947   1.136  0.00  0.00    +0.048 A 
ATOM     12  C   UNL     1       5.160   9.206   1.682  0.00  0.00    +0.023 A 
ATOM     13  C   UNL     1       6.414   9.789   1.715  0.00  0.00    +0.043 A 
ATOM     14  C   UNL     1       7.508   9.112   1.206  0.00  0.00    +0.043 A 
ATOM     15  C   UNL     1       7.349   7.850   0.663  0.00  0.00    +0.084 A 
ATOM     16 CL   UNL     1       8.721   7.000   0.024  0.00  0.00    -0.080 Cl
ATOM     17 CL   UNL     1       6.616  11.373   2.397  0.00  0.00    -0.083 Cl
ENDBRANCH   9  10
ENDBRANCH   8   9
ENDBRANCH   3   8
ENDBRANCH   1   5
BRANCH   1  18
ATOM     18  C   UNL     1       2.694   0.993   0.455  0.00  0.00    +0.153 C 
ATOM     19  S   UNL     1       2.835  -0.712   0.395  0.00  0.00    -0.017 S 
BRANCH  18  20
ATOM     20  N   UNL     1       1.494   1.563   0.682  0.00  0.00    -0.263 N 
ATOM     21  C   UNL     1       0.405   0.790   0.861  0.00  0.00    +0.250 C 
ATOM     22  O   UNL     1       0.504  -0.420   0.819  0.00  0.00    -0.270 OA
ATOM     23  H   UNL     1       1.415   2.529   0.716  0.00  0.00    +0.157 HD
BRANCH  21  24
ATOM     24  C   UNL     1      -0.912   1.415   1.104  0.00  0.00    +0.037 A 
ATOM     25  C   UNL     1      -1.030   2.805   1.159  0.00  0.00    +0.013 A 
ATOM     26  C   UNL     1      -2.263   3.382   1.381  0.00  0.00    +0.005 A 
ATOM     27  C   UNL     1      -3.380   2.585   1.560  0.00  0.00    -0.042 A 
ATOM     28  C   UNL     1      -3.270   1.207   1.512  0.00  0.00    +0.005 A 
ATOM     29  C   UNL     1      -2.044   0.617   1.285  0.00  0.00    +0.013 A 
BRANCH  27  30
ATOM     30  C   UNL     1      -4.723   3.223   1.808  0.00  0.00    -0.013 C 
ATOM     31  C   UNL     1      -5.265   2.759   3.162  0.00  0.00    +0.015 C 
ATOM     32  C   UNL     1      -4.572   4.745   1.814  0.00  0.00    +0.015 C 
ATOM     33  C   UNL     1      -5.696   2.811   0.701  0.00  0.00    +0.015 C 
ENDBRANCH  27  30
ENDBRANCH  21  24
ENDBRANCH  18  20
ENDBRANCH   1  18
TORSDOF 8
