REMARK  Name = ZINC13110713
REMARK  3 active torsions:
REMARK  status: ('A' for Active; 'I' for Inactive)
REMARK    1  A    between atoms: C_6  and  C_7
REMARK    2  A    between atoms: C_9  and  C_13
REMARK    3  A    between atoms: C_18  and  O_19
REMARK                            x       y       z     vdW  Elec       q    Type
REMARK                         _______ _______ _______ _____ _____    ______ ____
ROOT
ATOM      1  C   UNL     1      -1.268  -0.763   0.009  0.00  0.00    +0.066 A 
ATOM      2  C   UNL     1      -2.525  -0.232   0.017  0.00  0.00    +0.058 A 
ATOM      3  C   UNL     1      -3.441  -1.298   0.022  0.00  0.00    +0.097 A 
ATOM      4  N   UNL     1      -2.762  -2.426   0.016  0.00  0.00    -0.173 NA
ATOM      5  N   UNL     1      -1.395  -2.121   0.002  0.00  0.00    -0.276 N 
ATOM      6  H   UNL     1      -0.668  -2.762  -0.008  0.00  0.00    +0.189 HD
ENDROOT
BRANCH   1  12
ATOM      7  C   UNL     1      -0.017   1.391   0.010  0.00  0.00    +0.014 A 
ATOM      8  C   UNL     1       1.169   2.096   0.002  0.00  0.00    +0.050 A 
ATOM      9  C   UNL     1       2.383   1.423  -0.012  0.00  0.00    +0.162 A 
ATOM     10  C   UNL     1       2.408   0.032  -0.018  0.00  0.00    +0.163 A 
ATOM     11  C   UNL     1       1.222  -0.681  -0.012  0.00  0.00    +0.059 A 
ATOM     12  C   UNL     1       0.002  -0.004   0.002  0.00  0.00    +0.003 A 
ATOM     13  O   UNL     1       3.590  -0.643  -0.024  0.00  0.00    -0.485 OA
ATOM     14  C   UNL     1       4.753   0.099  -0.405  0.00  0.00    +0.270 C 
ATOM     15  C   UNL     1       4.734   1.439   0.343  0.00  0.00    +0.270 C 
ATOM     16  O   UNL     1       3.540   2.139  -0.023  0.00  0.00    -0.485 OA
ENDBRANCH   1  12
BRANCH   3  17
ATOM     17  C   UNL     1      -4.919  -1.173   0.032  0.00  0.00    +0.046 A 
ATOM     18  C   UNL     1      -5.515   0.086   0.031  0.00  0.00    +0.052 A 
ATOM     19  C   UNL     1      -6.892   0.197   0.041  0.00  0.00    +0.124 A 
ATOM     20  C   UNL     1      -7.683  -0.941   0.050  0.00  0.00    +0.042 A 
ATOM     21  C   UNL     1      -7.100  -2.194   0.051  0.00  0.00    +0.049 A 
ATOM     22  C   UNL     1      -5.720  -2.318   0.035  0.00  0.00    +0.126 A 
ATOM     23  F   UNL     1      -7.470   1.419   0.040  0.00  0.00    -0.205 F 
BRANCH  22  24
ATOM     24  O   UNL     1      -5.147  -3.550   0.030  0.00  0.00    -0.506 OA
ATOM     25  H   UNL     1      -4.975  -3.908   0.912  0.00  0.00    +0.292 HD
ENDBRANCH  22  24
ENDBRANCH   3  17
TORSDOF 3
