REMARK  Name = ZINC05892129
REMARK  6 active torsions:
REMARK  status: ('A' for Active; 'I' for Inactive)
REMARK    1  A    between atoms: C_6  and  C_11
REMARK    2  A    between atoms: C_11  and  C_19
REMARK    3  A    between atoms: N_12  and  N_13
REMARK    4  A    between atoms: C_14  and  C_16
REMARK    5  A    between atoms: C_19  and  C_20
REMARK    6  A    between atoms: C_20  and  O_30
REMARK                            x       y       z     vdW  Elec       q    Type
REMARK                         _______ _______ _______ _____ _____    ______ ____
ROOT
ATOM      1  C   UNL     1      -4.933   1.074   0.017  0.00  0.00    +0.070 C 
ATOM      2  N   UNL     1      -4.955  -0.222  -0.075  0.00  0.00    -0.184 NA
ENDROOT
BRANCH   1   8
ATOM      3  C   UNL     1       0.224   4.903   0.465  0.00  0.00    +0.001 A 
ATOM      4  C   UNL     1      -0.748   5.344   1.361  0.00  0.00    +0.001 A 
ATOM      5  C   UNL     1      -1.946   4.707   1.464  0.00  0.00    +0.008 A 
ATOM      6  C   UNL     1      -2.208   3.583   0.659  0.00  0.00    -0.017 A 
ATOM      7  C   UNL     1      -3.430   2.900   0.744  0.00  0.00    +0.018 A 
ATOM      8  C   UNL     1      -3.652   1.797  -0.066  0.00  0.00    -0.002 A 
ATOM      9  C   UNL     1      -2.661   1.362  -0.967  0.00  0.00    +0.010 A 
ATOM     10  C   UNL     1      -1.478   2.019  -1.070  0.00  0.00    +0.009 A 
ATOM     11  C   UNL     1      -1.221   3.139  -0.257  0.00  0.00    -0.018 A 
ATOM     12  C   UNL     1       0.003   3.823  -0.334  0.00  0.00    +0.008 A 
ENDBRANCH   1   8
BRANCH   2  13
ATOM     13  N   UNL     1      -3.754  -0.944  -0.085  0.00  0.00    -0.199 N 
ATOM     14  C   UNL     1      -3.769  -2.275  -0.295  0.00  0.00    +0.318 C 
ATOM     15  O   UNL     1      -4.824  -2.849  -0.476  0.00  0.00    -0.263 OA
ATOM     16  H   UNL     1      -2.911  -0.486   0.060  0.00  0.00    +0.178 HD
BRANCH  14  17
ATOM     17  C   UNL     1      -2.491  -3.044  -0.305  0.00  0.00    +0.298 C 
ATOM     18  O   UNL     1      -1.437  -2.471  -0.124  0.00  0.00    -0.265 OA
ATOM     19  N   UNL     1      -2.507  -4.375  -0.515  0.00  0.00    -0.322 N 
ATOM     20  H   UNL     1      -3.349  -4.833  -0.659  0.00  0.00    +0.145 HD
ATOM     21  H   UNL     1      -1.675  -4.875  -0.521  0.00  0.00    +0.145 HD
ENDBRANCH  14  17
ENDBRANCH   2  13
BRANCH   1  22
ATOM     22  C   UNL     1      -6.218   1.837   0.210  0.00  0.00    +0.107 C 
BRANCH  22  23
ATOM     23  C   UNL     1      -7.391   0.856   0.263  0.00  0.00    +0.174 C 
ATOM     24  C   UNL     1      -8.703   1.603   0.333  0.00  0.00    +0.014 A 
ATOM     25  C   UNL     1      -9.233   2.481   1.252  0.00  0.00    +0.009 A 
ATOM     26  C   UNL     1     -10.491   3.018   1.046  0.00  0.00    +0.000 A 
ATOM     27  C   UNL     1     -11.211   2.672  -0.083  0.00  0.00    +0.002 A 
ATOM     28  C   UNL     1     -10.682   1.793  -1.005  0.00  0.00    +0.024 A 
ATOM     29  C   UNL     1      -9.416   1.247  -0.805  0.00  0.00    +0.040 A 
ATOM     30  N   UNL     1      -8.676   0.351  -1.578  0.00  0.00    -0.282 N 
ATOM     31  C   UNL     1      -7.483   0.070  -1.028  0.00  0.00    +0.254 C 
ATOM     32  O   UNL     1      -6.639  -0.675  -1.480  0.00  0.00    -0.272 OA
ATOM     33  H   UNL     1      -8.988  -0.025  -2.416  0.00  0.00    +0.155 HD
BRANCH  23  34
ATOM     34  O   UNL     1      -7.255  -0.025   1.380  0.00  0.00    -0.374 OA
ATOM     35  H   UNL     1      -7.972  -0.668   1.463  0.00  0.00    +0.211 HD
ENDBRANCH  23  34
ENDBRANCH  22  23
ENDBRANCH   1  22
TORSDOF 6
