REMARK  Name = ZINC64491005
REMARK  2 active torsions:
REMARK  status: ('A' for Active; 'I' for Inactive)
REMARK    1  A    between atoms: C_5  and  C_7
REMARK    2  A    between atoms: N_24  and  C_25
REMARK                            x       y       z     vdW  Elec       q    Type
REMARK                         _______ _______ _______ _____ _____    ______ ____
ROOT
ATOM      1  C   UNL     1       1.387  -2.530  -1.039  0.00  0.00    +0.137 C 
ATOM      2  C   UNL     1       1.986  -2.716   0.360  0.00  0.00    +0.131 C 
ATOM      3  C   UNL     1       1.567  -4.103   0.831  0.00  0.00    -0.035 C 
ATOM      4  C   UNL     1       2.686  -4.752   1.130  0.00  0.00    -0.001 A 
ATOM      5  C   UNL     1       2.921  -6.090   1.695  0.00  0.00    +0.010 A 
ATOM      6  C   UNL     1       4.221  -6.450   1.866  0.00  0.00    +0.001 A 
ATOM      7  C   UNL     1       5.297  -5.621   1.535  0.00  0.00    +0.002 A 
ATOM      8  C   UNL     1       5.174  -4.374   1.015  0.00  0.00    +0.026 A 
ATOM      9  C   UNL     1       3.854  -3.883   0.794  0.00  0.00    +0.043 A 
ATOM     10  N   UNL     1       3.450  -2.713   0.330  0.00  0.00    -0.375 N 
ATOM     11  C   UNL     1       0.128  -4.558   0.832  0.00  0.00    +0.052 C 
ATOM     12  C   UNL     1      -0.432  -4.258  -0.571  0.00  0.00    +0.114 C 
ATOM     13  N   UNL     1      -0.034  -2.905  -0.976  0.00  0.00    -0.276 N 
ATOM     14  C   UNL     1      -0.979  -1.998  -1.291  0.00  0.00    +0.307 C 
ATOM     15  O   UNL     1      -0.655  -0.912  -1.733  0.00  0.00    -0.252 OA
ATOM     16  N   UNL     1      -2.282  -2.293  -1.118  0.00  0.00    -0.269 N 
ATOM     17  H   UNL     1      -2.538  -3.120  -0.680  0.00  0.00    +0.156 HD
ATOM     18  H   UNL     1       4.010  -1.984   0.018  0.00  0.00    +0.160 HD
ENDROOT
BRANCH  16  19
ATOM     19  C   UNL     1      -3.268  -1.406  -1.569  0.00  0.00    +0.038 A 
ATOM     20  C   UNL     1      -3.012  -0.042  -1.601  0.00  0.00    +0.027 A 
ATOM     21  C   UNL     1      -3.983   0.835  -2.046  0.00  0.00    +0.051 A 
ATOM     22  C   UNL     1      -5.215   0.355  -2.461  0.00  0.00    +0.166 A 
ATOM     23  C   UNL     1      -5.475  -1.012  -2.430  0.00  0.00    +0.168 A 
ATOM     24  C   UNL     1      -4.499  -1.891  -1.989  0.00  0.00    +0.073 A 
ATOM     25  O   UNL     1      -6.744  -1.226  -2.885  0.00  0.00    -0.453 OA
ATOM     26  C   UNL     1      -7.401   0.053  -2.808  0.00  0.00    +0.466 C 
ATOM     27  O   UNL     1      -6.322   0.999  -2.936  0.00  0.00    -0.453 OA
ENDBRANCH  16  19
BRANCH   1  32
ATOM     28  C   UNL     1       1.439   1.244  -0.923  0.00  0.00    +0.000 A 
ATOM     29  C   UNL     1       1.751   1.557  -2.233  0.00  0.00    +0.003 A 
ATOM     30  C   UNL     1       1.946   0.549  -3.158  0.00  0.00    +0.039 A 
ATOM     31  C   UNL     1       1.828  -0.776  -2.772  0.00  0.00    +0.128 A 
ATOM     32  C   UNL     1       1.516  -1.089  -1.460  0.00  0.00    +0.010 A 
ATOM     33  C   UNL     1       1.321  -0.078  -0.537  0.00  0.00    +0.008 A 
ATOM     34  F   UNL     1       2.018  -1.763  -3.675  0.00  0.00    -0.205 F 
ENDBRANCH   1  32
TORSDOF 2
