REMARK  Name = ZINC40914198
REMARK  9 active torsions:
REMARK  status: ('A' for Active; 'I' for Inactive)
REMARK    1  A    between atoms: C_1  and  C_2
REMARK    2  A    between atoms: C_2  and  O_3
REMARK    3  A    between atoms: O_3  and  C_4
REMARK    4  A    between atoms: C_6  and  C_20
REMARK    5  A    between atoms: C_9  and  O_10
REMARK    6  A    between atoms: O_10  and  C_11
REMARK    7  A    between atoms: C_11  and  C_12
REMARK    8  A    between atoms: C_22  and  C_31
REMARK    9  A    between atoms: C_23  and  C_30
REMARK                            x       y       z     vdW  Elec       q    Type
REMARK                         _______ _______ _______ _____ _____    ______ ____
ROOT
ATOM      1  C   UNL     1       0.595  -1.743   1.160  0.00  0.00    +0.163 A 
ATOM      2  C   UNL     1       0.188  -2.642   0.187  0.00  0.00    +0.055 A 
ATOM      3  C   UNL     1       0.270  -4.002   0.424  0.00  0.00    -0.014 A 
ATOM      4  C   UNL     1       0.757  -4.468   1.631  0.00  0.00    +0.025 A 
ATOM      5  C   UNL     1       1.165  -3.577   2.606  0.00  0.00    +0.063 A 
ATOM      6  C   UNL     1       1.091  -2.212   2.372  0.00  0.00    +0.176 A 
ATOM      7 BR   UNL     1       1.830  -4.219   4.256  0.00  0.00    -0.046 Br
ENDROOT
BRANCH   3   8
ATOM      8  C   UNL     1      -0.174  -4.977  -0.635  0.00  0.00    +0.177 C 
ATOM      9  C   UNL     1      -1.291  -5.830  -0.096  0.00  0.00    +0.060 C 
ATOM     10  C   UNL     1      -1.136  -7.124   0.223  0.00  0.00    +0.018 C 
ATOM     11  N   UNL     1       0.062  -7.777   0.070  0.00  0.00    -0.287 N 
ATOM     12  C   UNL     1       1.048  -7.138  -0.671  0.00  0.00    +0.218 A 
ATOM     13  N   UNL     1       0.950  -5.830  -1.014  0.00  0.00    -0.221 N 
ATOM     14  N   UNL     1       2.093  -5.526  -1.751  0.00  0.00    -0.156 NA
ATOM     15  C   UNL     1       2.805  -6.624  -1.813  0.00  0.00    +0.247 A 
ATOM     16  N   UNL     1       2.168  -7.599  -1.156  0.00  0.00    -0.201 NA
ATOM     17  C   UNL     1      -2.316  -7.885   0.769  0.00  0.00    +0.061 C 
ATOM     18  H   UNL     1       0.214  -8.650   0.464  0.00  0.00    +0.155 HD
BRANCH   9  19
ATOM     19  C   UNL     1      -2.564  -5.240   0.084  0.00  0.00    +0.241 C 
ATOM     20  O   UNL     1      -3.316  -5.113  -0.866  0.00  0.00    -0.271 OA
ATOM     21  N   UNL     1      -2.945  -4.818   1.306  0.00  0.00    -0.325 N 
ATOM     22  H   UNL     1      -2.346  -4.919   2.062  0.00  0.00    +0.145 HD
ATOM     23  H   UNL     1      -3.818  -4.413   1.429  0.00  0.00    +0.145 HD
ENDBRANCH   9  19
ENDBRANCH   3   8
BRANCH   1  24
ATOM     24  O   UNL     1       0.515  -0.406   0.928  0.00  0.00    -0.489 OA
BRANCH  24  26
ATOM     25  C   UNL     1      -0.018   1.531  -0.415  0.00  0.00    +0.048 C 
ATOM     26  C   UNL     1      -0.004   0.003  -0.339  0.00  0.00    +0.226 C 
ENDBRANCH  24  26
ENDBRANCH   1  24
BRANCH   6  27
ATOM     27  O   UNL     1       1.497  -1.334   3.328  0.00  0.00    -0.483 OA
BRANCH  27  28
ATOM     28  C   UNL     1       0.515  -0.901   4.271  0.00  0.00    +0.267 C 
BRANCH  28  29
ATOM     29  C   UNL     1       1.143   0.062   5.245  0.00  0.00    +0.025 A 
ATOM     30  C   UNL     1       2.479   0.394   5.125  0.00  0.00    +0.010 A 
ATOM     31  C   UNL     1       3.056   1.277   6.019  0.00  0.00    +0.001 A 
ATOM     32  C   UNL     1       2.297   1.829   7.034  0.00  0.00    +0.003 A 
ATOM     33  C   UNL     1       0.961   1.499   7.156  0.00  0.00    +0.039 A 
ATOM     34  C   UNL     1       0.381   0.618   6.258  0.00  0.00    +0.130 A 
ATOM     35  F   UNL     1      -0.927   0.299   6.373  0.00  0.00    -0.205 F 
ENDBRANCH  28  29
ENDBRANCH  27  28
ENDBRANCH   6  27
TORSDOF 7
