REMARK  Name = ZINC04486598
REMARK  15 active torsions:
REMARK  status: ('A' for Active; 'I' for Inactive)
REMARK    1  A    between atoms: C_1  and  N_71
REMARK    2  A    between atoms: C_2  and  C_3
REMARK    3  A    between atoms: C_2  and  N_71
REMARK    4  A    between atoms: C_3  and  C_4
REMARK    5  A    between atoms: C_4  and  N_5
REMARK    6  A    between atoms: C_13  and  C_17
REMARK    7  A    between atoms: C_20  and  O_23
REMARK    8  A    between atoms: O_23  and  C_24
REMARK    9  A    between atoms: C_25  and  C_26
REMARK   10  A    between atoms: C_25  and  N_71
REMARK   11  A    between atoms: C_26  and  C_27
REMARK   12  A    between atoms: C_30  and  O_35
REMARK   13  A    between atoms: C_31  and  O_33
REMARK   14  A    between atoms: O_33  and  C_34
REMARK   15  A    between atoms: O_35  and  C_36
REMARK                            x       y       z     vdW  Elec       q    Type
REMARK                         _______ _______ _______ _____ _____    ______ ____
ROOT
ATOM      1  N   UNL     1      -0.281   2.450  -6.077  0.00  0.00    -0.267 N 
ATOM      2  C   UNL     1      -1.330   1.713  -6.632  0.00  0.00    +0.050 A 
ATOM      3  C   UNL     1      -1.449   0.442  -6.098  0.00  0.00    +0.024 A 
ATOM      4  C   UNL     1      -2.451  -0.400  -6.552  0.00  0.00    +0.002 A 
ATOM      5  C   UNL     1      -3.337   0.013  -7.529  0.00  0.00    +0.001 A 
ATOM      6  C   UNL     1      -3.231   1.288  -8.069  0.00  0.00    +0.017 A 
ATOM      7  C   UNL     1      -2.238   2.120  -7.617  0.00  0.00    +0.034 A 
ATOM      8  S   UNL     1      -2.231   3.711  -8.401  0.00  0.00    -0.087 S 
ATOM      9  C   UNL     1      -1.040   4.975  -7.990  0.00  0.00    +0.025 C 
ATOM     10  C   UNL     1      -0.056   4.789  -7.040  0.00  0.00    +0.083 C 
ATOM     11  C   UNL     1       0.211   3.668  -6.253  0.00  0.00    +0.245 C 
ATOM     12  O   UNL     1       1.164   3.865  -5.520  0.00  0.00    -0.270 OA
ENDROOT
BRANCH   9  13
ATOM     13  C   UNL     1      -1.110   6.270  -8.694  0.00  0.00    -0.011 A 
ATOM     14  C   UNL     1      -1.034   7.464  -7.972  0.00  0.00    +0.012 A 
ATOM     15  C   UNL     1      -1.095   8.671  -8.633  0.00  0.00    +0.046 A 
ATOM     16  C   UNL     1      -1.242   8.702 -10.014  0.00  0.00    +0.120 A 
ATOM     17  C   UNL     1      -1.324   7.517 -10.736  0.00  0.00    +0.046 A 
ATOM     18  C   UNL     1      -1.259   6.306 -10.083  0.00  0.00    +0.012 A 
BRANCH  16  19
ATOM     19  O   UNL     1      -1.308   9.894 -10.662  0.00  0.00    -0.495 OA
ATOM     20  C   UNL     1      -1.218  11.073  -9.860  0.00  0.00    +0.277 C 
ENDBRANCH  16  19
ENDBRANCH   9  13
BRANCH   1  21
ATOM     21  C   UNL     1       0.455   1.693  -5.061  0.00  0.00    +0.112 C 
BRANCH  21  22
ATOM     22  C   UNL     1      -0.291   1.770  -3.728  0.00  0.00    +0.001 C 
BRANCH  22  23
ATOM     23  C   UNL     1       0.478   0.979  -2.667  0.00  0.00    -0.078 C 
BRANCH  23  25
ATOM     24  C   UNL     1      -1.533   0.362  -1.467  0.00  0.00    -0.096 C 
ATOM     25  N   UNL     1      -0.244   1.080  -1.381  0.00  0.00    +0.378 N 
ATOM     26  H   UNL     1      -0.426   2.070  -1.178  0.00  0.00    -0.082 HD
BRANCH  25  27
ATOM     27  C   UNL     1       0.580   0.511  -0.293  0.00  0.00    -0.075 C 
BRANCH  27  28
ATOM     28  C   UNL     1      -0.086   0.828   1.047  0.00  0.00    +0.017 C 
BRANCH  28  29
ATOM     29  C   UNL     1       0.754   0.272   2.168  0.00  0.00    -0.045 A 
ATOM     30  C   UNL     1       0.528  -1.012   2.628  0.00  0.00    +0.007 A 
ATOM     31  C   UNL     1       1.299  -1.528   3.653  0.00  0.00    +0.049 A 
ATOM     32  C   UNL     1       2.294  -0.754   4.229  0.00  0.00    +0.161 A 
ATOM     33  C   UNL     1       2.518   0.540   3.770  0.00  0.00    +0.162 A 
ATOM     34  C   UNL     1       1.745   1.050   2.739  0.00  0.00    +0.053 A 
BRANCH  33  35
ATOM     35  O   UNL     1       3.493   1.304   4.332  0.00  0.00    -0.491 OA
ATOM     36  C   UNL     1       3.666   2.622   3.810  0.00  0.00    +0.277 C 
ENDBRANCH  33  35
BRANCH  32  37
ATOM     37  O   UNL     1       3.050  -1.259   5.240  0.00  0.00    -0.491 OA
ATOM     38  C   UNL     1       2.765  -2.595   5.660  0.00  0.00    +0.277 C 
ENDBRANCH  32  37
ENDBRANCH  28  29
ENDBRANCH  27  28
ENDBRANCH  25  27
ENDBRANCH  23  25
ENDBRANCH  22  23
ENDBRANCH  21  22
ENDBRANCH   1  21
TORSDOF 11
