REMARK  Name = ZINC66862323
REMARK  7 active torsions:
REMARK  status: ('A' for Active; 'I' for Inactive)
REMARK    1  A    between atoms: C_1  and  C_2
REMARK    2  A    between atoms: C_2  and  C_3
REMARK    3  A    between atoms: C_2  and  C_4
REMARK    4  A    between atoms: C_7  and  N_10
REMARK    5  A    between atoms: N_10  and  C_11
REMARK    6  A    between atoms: C_11  and  C_12
REMARK    7  A    between atoms: N_14  and  N_15
REMARK                            x       y       z     vdW  Elec       q    Type
REMARK                         _______ _______ _______ _____ _____    ______ ____
ROOT
ATOM      1  C   UNL     1      -7.230  -3.199  -0.803  0.00  0.00    +0.247 C 
ATOM      2  O   UNL     1      -7.799  -2.804   0.192  0.00  0.00    -0.273 OA
ATOM      3  N   UNL     1      -7.881  -3.982  -1.686  0.00  0.00    -0.222 N 
ATOM      4  H   UNL     1      -7.426  -4.298  -2.482  0.00  0.00    +0.174 HD
ENDROOT
BRANCH   3   5
ATOM      5  N   UNL     1      -9.216  -4.340  -1.454  0.00  0.00    -0.137 N 
ATOM      6  C   UNL     1      -9.612  -5.559  -1.034  0.00  0.00    +0.263 C 
ATOM      7  O   UNL     1      -8.909  -6.517  -0.795  0.00  0.00    -0.271 OA
ATOM      8  C   UNL     1     -11.118  -5.478  -0.924  0.00  0.00    +0.114 C 
ATOM      9  C   UNL     1     -11.560  -5.726   0.514  0.00  0.00    +0.035 C 
ATOM     10  C   UNL     1     -13.083  -5.609   0.609  0.00  0.00    +0.003 C 
ATOM     11  C   UNL     1     -13.731  -6.634  -0.325  0.00  0.00    +0.000 C 
ATOM     12  C   UNL     1     -13.297  -6.358  -1.766  0.00  0.00    +0.003 C 
ATOM     13  C   UNL     1     -11.774  -6.477  -1.871  0.00  0.00    +0.035 C 
ATOM     14  N   UNL     1     -11.431  -4.102  -1.330  0.00  0.00    -0.284 N 
ATOM     15  C   UNL     1     -10.255  -3.512  -1.616  0.00  0.00    +0.326 C 
ATOM     16  O   UNL     1     -10.150  -2.358  -1.984  0.00  0.00    -0.251 OA
ATOM     17  H   UNL     1     -12.312  -3.697  -1.378  0.00  0.00    +0.151 HD
ENDBRANCH   3   5
BRANCH   1  18
ATOM     18  C   UNL     1      -5.794  -2.815  -1.053  0.00  0.00    +0.199 C 
BRANCH  18  19
ATOM     19  N   UNL     1      -5.318  -1.967   0.043  0.00  0.00    -0.335 N 
ATOM     20  H   UNL     1      -5.912  -1.742   0.775  0.00  0.00    +0.147 HD
BRANCH  19  24
ATOM     21  C   UNL     1      -1.412  -0.526   0.013  0.00  0.00    -0.045 A 
ATOM     22  C   UNL     1      -2.258  -0.203   1.058  0.00  0.00    +0.006 A 
ATOM     23  C   UNL     1      -3.554  -0.679   1.071  0.00  0.00    +0.023 A 
ATOM     24  C   UNL     1      -4.008  -1.483   0.032  0.00  0.00    +0.028 A 
ATOM     25  C   UNL     1      -3.155  -1.805  -1.016  0.00  0.00    +0.023 A 
ATOM     26  C   UNL     1      -1.861  -1.321  -1.025  0.00  0.00    +0.006 A 
BRANCH  21  28
ATOM     27  C   UNL     1      -0.019   1.526   0.010  0.00  0.00    +0.012 C 
ATOM     28  C   UNL     1       0.002  -0.004   0.002  0.00  0.00    +0.013 C 
ATOM     29  C   UNL     1       0.742  -0.511   1.242  0.00  0.00    +0.012 C 
ENDBRANCH  21  28
ENDBRANCH  19  24
ENDBRANCH  18  19
ENDBRANCH   1  18
TORSDOF 5
