REMARK  Name = ZINC11813007
REMARK  9 active torsions:
REMARK  status: ('A' for Active; 'I' for Inactive)
REMARK    1  A    between atoms: C_1  and  O_2
REMARK    2  A    between atoms: O_2  and  C_3
REMARK    3  A    between atoms: C_3  and  C_4
REMARK    4  A    between atoms: C_4  and  N_5
REMARK    5  A    between atoms: C_8  and  C_12
REMARK    6  A    between atoms: C_8  and  C_20
REMARK    7  A    between atoms: C_12  and  C_13
REMARK    8  A    between atoms: C_25  and  C_26
REMARK    9  A    between atoms: C_25  and  N_66
REMARK                            x       y       z     vdW  Elec       q    Type
REMARK                         _______ _______ _______ _____ _____    ______ ____
ROOT
ATOM      1  N   UNL     1       0.710   3.076   0.011  0.00  0.00    -0.222 N 
ATOM      2  C   UNL     1      -0.628   3.232   0.024  0.00  0.00    +0.247 C 
ATOM      3  O   UNL     1      -1.244   4.276   0.034  0.00  0.00    -0.273 OA
ATOM      4  C   UNL     1      -1.204   1.830   0.017  0.00  0.00    +0.119 C 
ATOM      5  N   UNL     1      -0.011   0.966   0.007  0.00  0.00    -0.284 N 
ATOM      6  C   UNL     1       1.057   1.784   0.002  0.00  0.00    +0.309 C 
ATOM      7  O   UNL     1       2.207   1.393  -0.011  0.00  0.00    -0.252 OA
ATOM      8  H   UNL     1       0.002  -0.004   0.002  0.00  0.00    +0.151 HD
ENDROOT
BRANCH   4   9
ATOM      9  C   UNL     1      -2.036   1.585   1.278  0.00  0.00    +0.018 C 
ATOM     10  C   UNL     1      -3.320   2.417   1.213  0.00  0.00    -0.013 C 
ATOM     11  C   UNL     1      -4.117   2.217   2.504  0.00  0.00    -0.078 C 
ATOM     12  C   UNL     1      -2.087   1.810   3.764  0.00  0.00    -0.078 C 
ATOM     13  C   UNL     1      -1.228   1.999   2.511  0.00  0.00    -0.013 C 
ATOM     14  N   UNL     1      -3.294   2.656   3.651  0.00  0.00    +0.382 N 
ATOM     15  H   UNL     1      -3.005   3.630   3.500  0.00  0.00    -0.081 HD
BRANCH  14  16
ATOM     16  C   UNL     1      -4.083   2.579   4.898  0.00  0.00    -0.041 C 
BRANCH  16  17
ATOM     17  C   UNL     1      -5.180   3.610   4.842  0.00  0.00    -0.036 A 
ATOM     18  C   UNL     1      -5.030   4.803   5.481  0.00  0.00    +0.004 A 
ATOM     19  C   UNL     1      -6.033   5.769   5.440  0.00  0.00    +0.002 A 
ATOM     20  C   UNL     1      -7.192   5.548   4.761  0.00  0.00    +0.030 A 
ATOM     21  C   UNL     1      -7.384   4.328   4.090  0.00  0.00    +0.089 A 
ATOM     22  C   UNL     1      -6.361   3.347   4.126  0.00  0.00    +0.091 A 
ATOM     23  N   UNL     1      -6.540   2.182   3.494  0.00  0.00    -0.252 NA
ATOM     24  C   UNL     1      -7.657   1.963   2.838  0.00  0.00    +0.131 A 
ATOM     25  C   UNL     1      -8.662   2.932   2.797  0.00  0.00    +0.131 A 
ATOM     26  N   UNL     1      -8.512   4.081   3.415  0.00  0.00    -0.252 NA
ENDBRANCH  16  17
ENDBRANCH  14  16
ENDBRANCH   4   9
BRANCH   1  27
ATOM     27  C   UNL     1       1.668   4.185   0.007  0.00  0.00    +0.146 C 
BRANCH  27  28
ATOM     28  C   UNL     1       1.987   4.578  -1.437  0.00  0.00    +0.179 C 
BRANCH  28  30
ATOM     29  C   UNL     1       1.001   5.491  -3.422  0.00  0.00    +0.194 C 
ATOM     30  O   UNL     1       0.810   5.092  -2.062  0.00  0.00    -0.381 OA
ENDBRANCH  28  30
ENDBRANCH  27  28
ENDBRANCH   1  27
BRANCH   4  31
ATOM     31  C   UNL     1      -2.047   1.598  -1.239  0.00  0.00    +0.070 C 
BRANCH  31  32
ATOM     32  C   UNL     1      -1.186   1.779  -2.462  0.00  0.00    -0.045 A 
ATOM     33  C   UNL     1      -1.077   3.024  -3.052  0.00  0.00    +0.006 A 
ATOM     34  C   UNL     1      -0.284   3.192  -4.172  0.00  0.00    +0.038 A 
ATOM     35  C   UNL     1       0.394   2.110  -4.708  0.00  0.00    +0.123 A 
ATOM     36  C   UNL     1       0.280   0.862  -4.119  0.00  0.00    +0.038 A 
ATOM     37  C   UNL     1      -0.510   0.698  -2.997  0.00  0.00    +0.006 A 
ATOM     38  F   UNL     1       1.166   2.272  -5.805  0.00  0.00    -0.205 F 
ENDBRANCH  31  32
ENDBRANCH   4  31
TORSDOF 8
