REMARK  Name = ZINC08528979
REMARK  7 active torsions:
REMARK  status: ('A' for Active; 'I' for Inactive)
REMARK    1  A    between atoms: C_1  and  C_2
REMARK    2  A    between atoms: C_4  and  N_23
REMARK    3  A    between atoms: C_6  and  S_8
REMARK    4  A    between atoms: S_8  and  C_9
REMARK    5  A    between atoms: C_9  and  C_11
REMARK    6  A    between atoms: C_9  and  C_12
REMARK    7  A    between atoms: C_14  and  C_17
REMARK                            x       y       z     vdW  Elec       q    Type
REMARK                         _______ _______ _______ _____ _____    ______ ____
ROOT
ATOM      1  C   UNL     1       0.075  -4.610   2.222  0.00  0.00    +0.140 C 
ATOM      2  C   UNL     1       1.383  -4.928   1.496  0.00  0.00    +0.029 C 
ENDROOT
BRANCH   1   3
ATOM      3  C   UNL     1      -0.032  -5.461   3.461  0.00  0.00    +0.241 A 
ATOM      4  N   UNL     1      -0.799  -6.504   3.604  0.00  0.00    -0.190 NA
ATOM      5  C   UNL     1      -0.644  -7.024   4.835  0.00  0.00    +0.202 A 
ATOM      6  N   UNL     1       0.235  -6.303   5.487  0.00  0.00    -0.056 NA
ATOM      7  O   UNL     1       0.650  -5.276   4.599  0.00  0.00    -0.337 OA
BRANCH   5   8
ATOM      8  C   UNL     1      -1.351  -8.216   5.366  0.00  0.00    +0.022 A 
ATOM      9  C   UNL     1      -2.262  -8.903   4.567  0.00  0.00    +0.012 A 
ATOM     10  C   UNL     1      -2.917 -10.010   5.066  0.00  0.00    +0.001 A 
ATOM     11  C   UNL     1      -2.670 -10.440   6.357  0.00  0.00    +0.000 A 
ATOM     12  C   UNL     1      -1.765  -9.762   7.155  0.00  0.00    +0.001 A 
ATOM     13  C   UNL     1      -1.101  -8.657   6.664  0.00  0.00    +0.012 A 
ENDBRANCH   5   8
ENDBRANCH   1   3
BRANCH   1  14
ATOM     14  S   UNL     1       0.053  -2.857   2.690  0.00  0.00    -0.073 S 
BRANCH  14  20
ATOM     15  C   UNL     1      -0.018   1.503   0.010  0.00  0.00    +0.066 C 
ATOM     16  C   UNL     1       0.002  -0.004   0.002  0.00  0.00    +0.044 A 
ATOM     17  C   UNL     1       0.006  -0.696  -1.194  0.00  0.00    +0.066 A 
ATOM     18  C   UNL     1       0.025  -2.091  -1.157  0.00  0.00    +0.121 A 
ATOM     19  N   UNL     1       0.039  -2.705   0.022  0.00  0.00    -0.207 NA
ATOM     20  C   UNL     1       0.035  -2.005   1.147  0.00  0.00    +0.191 A 
ATOM     21  N   UNL     1       0.022  -0.679   1.141  0.00  0.00    -0.227 NA
BRANCH  18  22
ATOM     22  N   UNL     1       0.029  -2.826  -2.331  0.00  0.00    -0.343 N 
ATOM     23  H   UNL     1       0.018  -2.371  -3.188  0.00  0.00    +0.144 HD
ATOM     24  H   UNL     1       0.042  -3.795  -2.297  0.00  0.00    +0.144 HD
ENDBRANCH  18  22
ENDBRANCH  14  20
ENDBRANCH   1  14
TORSDOF 5
