REMARK  Name = ZINC02090185
REMARK  12 active torsions:
REMARK  status: ('A' for Active; 'I' for Inactive)
REMARK    1  A    between atoms: C_1  and  C_2
REMARK    2  A    between atoms: C_2  and  C_3
REMARK    3  A    between atoms: C_2  and  C_4
REMARK    4  A    between atoms: C_4  and  O_5
REMARK    5  A    between atoms: O_5  and  C_6
REMARK    6  A    between atoms: C_10  and  C_12
REMARK    7  A    between atoms: C_14  and  C_22
REMARK    8  A    between atoms: N_24  and  N_25
REMARK    9  A    between atoms: C_26  and  C_27
REMARK   10  A    between atoms: C_31  and  O_34
REMARK   11  A    between atoms: C_32  and  O_33
REMARK   12  A    between atoms: O_34  and  C_35
REMARK                            x       y       z     vdW  Elec       q    Type
REMARK                         _______ _______ _______ _____ _____    ______ ____
ROOT
ATOM      1  C   UNL     1      -0.076   5.330   0.047  0.00  0.00    +0.073 A 
ATOM      2  C   UNL     1      -1.315   5.987   0.063  0.00  0.00    +0.042 A 
ATOM      3  C   UNL     1      -1.352   7.374   0.057  0.00  0.00    +0.050 A 
ATOM      4  C   UNL     1      -0.070   8.080   0.034  0.00  0.00    +0.013 A 
ATOM      5  C   UNL     1      -0.004   9.477   0.027  0.00  0.00    +0.011 A 
ATOM      6  C   UNL     1       1.212  10.094   0.006  0.00  0.00    +0.001 A 
ATOM      7  C   UNL     1       2.390   9.350  -0.009  0.00  0.00    +0.002 A 
ATOM      8  C   UNL     1       2.361   7.989  -0.002  0.00  0.00    +0.028 A 
ATOM      9  C   UNL     1       1.125   7.317   0.019  0.00  0.00    +0.072 A 
ATOM     10  N   UNL     1       1.066   5.985   0.032  0.00  0.00    -0.247 NA
ENDROOT
BRANCH   1  15
ATOM     11  C   UNL     1       1.182   1.784   0.044  0.00  0.00    +0.121 A 
ATOM     12  C   UNL     1      -0.012   1.076   0.066  0.00  0.00    +0.045 A 
ATOM     13  C   UNL     1      -1.219   1.748   0.076  0.00  0.00    +0.004 A 
ATOM     14  C   UNL     1      -1.245   3.129   0.075  0.00  0.00    +0.010 A 
ATOM     15  C   UNL     1      -0.051   3.848   0.053  0.00  0.00    +0.004 A 
ATOM     16  C   UNL     1       1.166   3.169   0.037  0.00  0.00    +0.055 A 
BRANCH  11  17
ATOM     17  O   UNL     1       2.367   1.119   0.029  0.00  0.00    -0.492 OA
BRANCH  17  18
ATOM     18  C   UNL     1       2.309  -0.309   0.037  0.00  0.00    +0.232 C 
BRANCH  18  20
ATOM     19  C   UNL     1       3.671  -2.400   0.153  0.00  0.00    +0.010 C 
ATOM     20  C   UNL     1       3.729  -0.877   0.018  0.00  0.00    +0.020 C 
ATOM     21  C   UNL     1       4.409  -0.507  -1.302  0.00  0.00    +0.010 C 
ENDBRANCH  18  20
ENDBRANCH  17  18
ENDBRANCH  11  17
ENDBRANCH   1  15
BRANCH   3  22
ATOM     22  C   UNL     1      -2.634   8.110   0.074  0.00  0.00    +0.264 C 
ATOM     23  O   UNL     1      -2.638   9.322   0.173  0.00  0.00    -0.268 OA
ATOM     24  N   UNL     1      -3.798   7.437  -0.021  0.00  0.00    -0.203 N 
ATOM     25  H   UNL     1      -3.795   6.471  -0.100  0.00  0.00    +0.178 HD
BRANCH  24  26
ATOM     26  N   UNL     1      -5.013   8.134  -0.005  0.00  0.00    -0.187 NA
ATOM     27  C   UNL     1      -6.135   7.487  -0.097  0.00  0.00    +0.142 C 
BRANCH  27  28
ATOM     28  C   UNL     1      -7.413   8.220  -0.080  0.00  0.00    +0.040 A 
ATOM     29  C   UNL     1      -8.622   7.526  -0.178  0.00  0.00    +0.013 A 
ATOM     30  C   UNL     1      -9.816   8.215  -0.162  0.00  0.00    +0.004 A 
ATOM     31  C   UNL     1      -9.824   9.595  -0.048  0.00  0.00    +0.049 A 
ATOM     32  C   UNL     1      -8.633  10.297   0.050  0.00  0.00    +0.162 A 
ATOM     33  C   UNL     1      -7.422   9.615   0.040  0.00  0.00    +0.167 A 
BRANCH  33  34
ATOM     34  O   UNL     1      -6.252  10.299   0.141  0.00  0.00    -0.503 OA
ATOM     35  H   UNL     1      -5.882  10.573  -0.709  0.00  0.00    +0.292 HD
ENDBRANCH  33  34
BRANCH  32  36
ATOM     36  O   UNL     1      -8.649  11.652   0.161  0.00  0.00    -0.491 OA
ATOM     37  C   UNL     1      -9.929  12.287   0.170  0.00  0.00    +0.277 C 
ENDBRANCH  32  36
ENDBRANCH  27  28
ENDBRANCH  24  26
ENDBRANCH   3  22
TORSDOF 9
