REMARK  Name = ZINC20565920
REMARK  11 active torsions:
REMARK  status: ('A' for Active; 'I' for Inactive)
REMARK    1  A    between atoms: C_1  and  C_2
REMARK    2  A    between atoms: C_2  and  C_3
REMARK    3  A    between atoms: C_2  and  C_4
REMARK    4  A    between atoms: C_4  and  C_5
REMARK    5  A    between atoms: N_13  and  C_16
REMARK    6  A    between atoms: C_16  and  C_17
REMARK    7  A    between atoms: C_17  and  C_18
REMARK    8  A    between atoms: C_21  and  O_26
REMARK    9  A    between atoms: C_22  and  O_24
REMARK   10  A    between atoms: O_24  and  C_25
REMARK   11  A    between atoms: O_26  and  C_27
REMARK                            x       y       z     vdW  Elec       q    Type
REMARK                         _______ _______ _______ _____ _____    ______ ____
ROOT
ATOM      1  C   UNL     1      -1.405  -2.076   0.004  0.00  0.00    -0.057 C 
ATOM      2  C   UNL     1      -2.826  -2.643  -0.201  0.00  0.00    +0.073 C 
ATOM      3  C   UNL     1      -2.887  -3.903   0.708  0.00  0.00    +0.088 C 
ATOM      4  C   UNL     1      -3.932  -3.538   1.738  0.00  0.00    +0.225 C 
ATOM      5  O   UNL     1      -4.301  -4.252   2.646  0.00  0.00    -0.275 OA
ATOM      6  N   UNL     1      -4.387  -2.304   1.492  0.00  0.00    -0.241 N 
ATOM      7  C   UNL     1      -3.834  -1.700   0.415  0.00  0.00    +0.224 C 
ATOM      8  O   UNL     1      -4.094  -0.589   0.007  0.00  0.00    -0.275 OA
ATOM      9  C   UNL     1      -1.501  -3.974   1.362  0.00  0.00    +0.050 C 
ATOM     10  N   UNL     1      -0.973  -2.590   1.331  0.00  0.00    +0.394 N 
ATOM     11  C   UNL     1      -0.605  -4.944   0.645  0.00  0.00    -0.025 A 
ATOM     12  C   UNL     1      -0.141  -5.026  -0.648  0.00  0.00    +0.043 A 
ATOM     13  C   UNL     1       0.695  -6.067  -1.019  0.00  0.00    +0.124 A 
ATOM     14  C   UNL     1       1.061  -7.021  -0.085  0.00  0.00    +0.040 A 
ATOM     15  C   UNL     1       0.598  -6.941   1.212  0.00  0.00    +0.026 A 
ATOM     16  C   UNL     1      -0.242  -5.897   1.592  0.00  0.00    +0.036 A 
ATOM     17  N   UNL     1      -0.831  -5.601   2.825  0.00  0.00    -0.286 N 
ATOM     18  C   UNL     1      -1.585  -4.486   2.773  0.00  0.00    +0.211 C 
ATOM     19  O   UNL     1      -2.209  -3.991   3.688  0.00  0.00    -0.277 OA
ATOM     20  F   UNL     1       1.151  -6.150  -2.288  0.00  0.00    -0.205 F 
ATOM     21  H   UNL     1       0.034  -2.598   1.395  0.00  0.00    -0.083 HD
ATOM     22  H   UNL     1      -0.711  -6.137   3.624  0.00  0.00    +0.155 HD
ATOM     23  H   UNL     1      -1.372  -2.033   2.072  0.00  0.00    -0.083 HD
ENDROOT
BRANCH   1  24
ATOM     24  C   UNL     1      -1.439  -0.546   0.011  0.00  0.00    -0.012 C 
BRANCH  24  26
ATOM     25  C   UNL     1       0.821  -0.371  -1.042  0.00  0.00    +0.007 C 
ATOM     26  C   UNL     1      -0.018  -0.005   0.185  0.00  0.00    -0.019 C 
ATOM     27  C   UNL     1      -0.067   1.516   0.334  0.00  0.00    +0.007 C 
ENDBRANCH  24  26
ENDBRANCH   1  24
BRANCH   6  28
ATOM     28  C   UNL     1      -5.409  -1.657   2.319  0.00  0.00    +0.121 C 
BRANCH  28  29
ATOM     29  C   UNL     1      -4.733  -0.883   3.453  0.00  0.00    +0.054 C 
BRANCH  29  30
ATOM     30  C   UNL     1      -5.784  -0.218   4.303  0.00  0.00    -0.042 A 
ATOM     31  C   UNL     1      -6.216   1.058   3.993  0.00  0.00    +0.007 A 
ATOM     32  C   UNL     1      -7.181   1.673   4.770  0.00  0.00    +0.049 A 
ATOM     33  C   UNL     1      -7.716   1.010   5.862  0.00  0.00    +0.161 A 
ATOM     34  C   UNL     1      -7.282  -0.275   6.175  0.00  0.00    +0.162 A 
ATOM     35  C   UNL     1      -6.319  -0.887   5.389  0.00  0.00    +0.053 A 
BRANCH  34  36
ATOM     36  O   UNL     1      -7.805  -0.930   7.245  0.00  0.00    -0.491 OA
ATOM     37  C   UNL     1      -7.311  -2.245   7.506  0.00  0.00    +0.277 C 
ENDBRANCH  34  36
BRANCH  33  38
ATOM     38  O   UNL     1      -8.665   1.613   6.628  0.00  0.00    -0.491 OA
ATOM     39  C   UNL     1      -9.062   2.932   6.248  0.00  0.00    +0.277 C 
ENDBRANCH  33  38
ENDBRANCH  29  30
ENDBRANCH  28  29
ENDBRANCH   6  28
TORSDOF 7
