REMARK  Name = ZINC39711138
REMARK  10 active torsions:
REMARK  status: ('A' for Active; 'I' for Inactive)
REMARK    1  A    between atoms: C_1  and  C_2
REMARK    2  A    between atoms: C_4  and  C_42
REMARK    3  A    between atoms: C_7  and  C_14
REMARK    4  A    between atoms: C_14  and  C_16
REMARK    5  A    between atoms: C_14  and  N_28
REMARK    6  A    between atoms: N_21  and  C_22
REMARK    7  A    between atoms: N_28  and  C_29
REMARK    8  A    between atoms: N_28  and  C_36
REMARK    9  A    between atoms: C_29  and  C_30
REMARK   10  A    between atoms: C_36  and  C_37
REMARK                            x       y       z     vdW  Elec       q    Type
REMARK                         _______ _______ _______ _____ _____    ______ ____
ROOT
ATOM      1  C   UNL     1       1.376  -6.097   1.106  0.00  0.00    -0.010 C 
ENDROOT
BRANCH   1   8
ATOM      2  C   UNL     1      -5.191  -4.162   4.161  0.00  0.00    +0.044 C 
ATOM      3  C   UNL     1      -3.793  -4.194   3.599  0.00  0.00    -0.048 A 
ATOM      4  C   UNL     1      -2.784  -3.506   4.274  0.00  0.00    +0.007 A 
ATOM      5  C   UNL     1      -1.506  -3.498   3.816  0.00  0.00    -0.042 A 
ATOM      6  C   UNL     1      -1.191  -4.230   2.589  0.00  0.00    -0.004 A 
ATOM      7  C   UNL     1       0.079  -4.251   2.092  0.00  0.00    -0.006 C 
ATOM      8  C   UNL     1       0.313  -5.035   0.816  0.00  0.00    +0.088 C 
ATOM      9  C   UNL     1      -0.879  -5.730   0.198  0.00  0.00    +0.223 C 
ATOM     10  O   UNL     1      -0.748  -6.373  -0.827  0.00  0.00    -0.275 OA
ATOM     11  N   UNL     1      -2.065  -5.636   0.775  0.00  0.00    -0.285 N 
ATOM     12  C   UNL     1      -2.276  -4.948   1.897  0.00  0.00    +0.041 A 
ATOM     13  C   UNL     1      -3.565  -4.896   2.458  0.00  0.00    +0.027 A 
ATOM     14  C   UNL     1      -0.430  -2.749   4.559  0.00  0.00    +0.044 C 
ATOM     15  H   UNL     1      -2.817  -6.089   0.362  0.00  0.00    +0.155 HD
ENDBRANCH   1   8
BRANCH   1  16
ATOM     16  C   UNL     1       2.663  -5.415   1.576  0.00  0.00    +0.183 C 
ATOM     17  N   UNL     1       3.179  -4.503   0.539  0.00  0.00    -0.229 N 
ATOM     18  N   UNL     1       4.441  -4.997   0.188  0.00  0.00    -0.064 NA
ATOM     19  N   UNL     1       4.746  -6.006   0.817  0.00  0.00    -0.061 NA
ATOM     20  N   UNL     1       3.751  -6.401   1.725  0.00  0.00    -0.213 N 
ATOM     21  H   UNL     1       2.735  -3.721   0.174  0.00  0.00    +0.172 HD
BRANCH  20  22
ATOM     22  C   UNL     1       3.783  -7.550   2.632  0.00  0.00    +0.096 C 
ATOM     23  C   UNL     1       5.060  -7.501   3.473  0.00  0.00    +0.024 C 
ATOM     24  C   UNL     1       5.093  -8.702   4.421  0.00  0.00    +0.002 C 
ATOM     25  C   UNL     1       5.069  -9.996   3.605  0.00  0.00    +0.000 C 
ATOM     26  C   UNL     1       3.792 -10.045   2.764  0.00  0.00    +0.002 C 
ATOM     27  C   UNL     1       3.759  -8.845   1.816  0.00  0.00    +0.024 C 
ENDBRANCH  20  22
ENDBRANCH   1  16
BRANCH   1  28
ATOM     28  N   UNL     1       0.889  -7.003   2.155  0.00  0.00    +0.392 N 
ATOM     29  H   UNL     1       1.640  -7.608   2.451  0.00  0.00    -0.080 HD
BRANCH  28  30
ATOM     30  C   UNL     1       0.415  -6.215   3.301  0.00  0.00    -0.042 C 
BRANCH  30  31
ATOM     31  C   UNL     1       0.490  -7.052   4.552  0.00  0.00    -0.064 A 
ATOM     32  C   UNL     1      -0.588  -7.830   4.929  0.00  0.00    +0.002 A 
ATOM     33  C   UNL     1      -0.519  -8.598   6.076  0.00  0.00    +0.000 A 
ATOM     34  C   UNL     1       0.629  -8.588   6.846  0.00  0.00    +0.000 A 
ATOM     35  C   UNL     1       1.708  -7.810   6.469  0.00  0.00    +0.000 A 
ATOM     36  C   UNL     1       1.640  -7.046   5.319  0.00  0.00    +0.002 A 
ENDBRANCH  30  31
ENDBRANCH  28  30
BRANCH  28  37
ATOM     37  C   UNL     1      -0.215  -7.814   1.628  0.00  0.00    -0.002 C 
BRANCH  37  38
ATOM     38  C   UNL     1       0.292  -8.687   0.509  0.00  0.00    +0.089 A 
ATOM     39  C   UNL     1       0.685  -9.968   0.626  0.00  0.00    +0.042 A 
ATOM     40  C   UNL     1       1.081 -10.395  -0.662  0.00  0.00    +0.041 A 
ATOM     41  C   UNL     1       0.906  -9.349  -1.490  0.00  0.00    +0.195 A 
ATOM     42  O   UNL     1       0.423  -8.319  -0.776  0.00  0.00    -0.470 OA
ENDBRANCH  37  38
ENDBRANCH  28  37
ENDBRANCH   1  28
TORSDOF 8
