REMARK  Name = ZINC34787389
REMARK  11 active torsions:
REMARK  status: ('A' for Active; 'I' for Inactive)
REMARK    1  A    between atoms: C_1  and  C_2
REMARK    2  A    between atoms: C_2  and  C_3
REMARK    3  A    between atoms: C_4  and  C_35
REMARK    4  A    between atoms: C_8  and  N_19
REMARK    5  A    between atoms: C_13  and  C_18
REMARK    6  A    between atoms: C_15  and  C_17
REMARK    7  A    between atoms: N_19  and  N_20
REMARK    8  A    between atoms: N_19  and  N_27
REMARK    9  A    between atoms: N_20  and  C_21
REMARK   10  A    between atoms: N_27  and  C_28
REMARK   11  A    between atoms: C_31  and  C_34
REMARK                            x       y       z     vdW  Elec       q    Type
REMARK                         _______ _______ _______ _____ _____    ______ ____
ROOT
ATOM      1  C   UNL     1       3.536   0.290  -1.747  0.00  0.00    -0.025 A 
ATOM      2  C   UNL     1       4.609   0.264  -0.943  0.00  0.00    -0.007 A 
ATOM      3  S   UNL     1       4.052  -0.682   0.463  0.00  0.00    -0.073 S 
ATOM      4  C   UNL     1       2.393  -1.016  -0.069  0.00  0.00    +0.116 A 
ATOM      5  C   UNL     1       2.316  -0.376  -1.325  0.00  0.00    +0.054 A 
ATOM      6  C   UNL     1       1.063  -0.482  -1.989  0.00  0.00    +0.170 A 
ATOM      7  N   UNL     1       0.077  -1.146  -1.409  0.00  0.00    -0.192 NA
ATOM      8  C   UNL     1       0.217  -1.720  -0.222  0.00  0.00    +0.254 A 
ATOM      9  N   UNL     1       1.364  -1.663   0.439  0.00  0.00    -0.203 NA
ATOM     10  N   UNL     1      -0.861  -2.406   0.338  0.00  0.00    -0.202 N 
ATOM     11  C   UNL     1      -0.871  -3.037   1.542  0.00  0.00    +0.045 A 
ATOM     12  C   UNL     1      -2.101  -3.575   1.711  0.00  0.00    +0.048 A 
ATOM     13  C   UNL     1      -2.867  -3.266   0.581  0.00  0.00    +0.061 A 
ATOM     14  N   UNL     1      -2.128  -2.563  -0.238  0.00  0.00    -0.169 NA
ATOM     15  C   UNL     1      -4.300  -3.670   0.350  0.00  0.00    +0.067 C 
ATOM     16  C   UNL     1       0.279  -3.122   2.512  0.00  0.00    +0.066 C 
ATOM     17  C   UNL     1       5.963   0.884  -1.173  0.00  0.00    +0.052 C 
ENDROOT
BRANCH   1  19
ATOM     18  C   UNL     1       2.836   2.333  -2.967  0.00  0.00    +0.009 C 
ATOM     19  C   UNL     1       3.594   1.008  -3.071  0.00  0.00    +0.033 C 
ENDBRANCH   1  19
BRANCH   6  20
ATOM     20  N   UNL     1       0.876   0.103  -3.229  0.00  0.00    -0.151 N 
BRANCH  20  21
ATOM     21  N   UNL     1       1.868  -0.008  -4.212  0.00  0.00    -0.246 N 
ATOM     22  H   UNL     1       2.229   0.790  -4.630  0.00  0.00    +0.172 HD
BRANCH  21  23
ATOM     23  C   UNL     1       2.337  -1.268  -4.591  0.00  0.00    +0.046 A 
ATOM     24  C   UNL     1       1.740  -2.415  -4.084  0.00  0.00    +0.024 A 
ATOM     25  C   UNL     1       2.207  -3.659  -4.461  0.00  0.00    +0.002 A 
ATOM     26  C   UNL     1       3.267  -3.763  -5.343  0.00  0.00    +0.000 A 
ATOM     27  C   UNL     1       3.864  -2.623  -5.849  0.00  0.00    +0.002 A 
ATOM     28  C   UNL     1       3.399  -1.376  -5.481  0.00  0.00    +0.024 A 
ENDBRANCH  21  23
ENDBRANCH  20  21
BRANCH  20  29
ATOM     29  N   UNL     1      -0.304   0.806  -3.501  0.00  0.00    -0.246 N 
ATOM     30  H   UNL     1      -0.953   0.443  -4.123  0.00  0.00    +0.172 HD
BRANCH  29  31
ATOM     31  C   UNL     1      -0.547   2.032  -2.876  0.00  0.00    +0.046 A 
ATOM     32  C   UNL     1      -0.913   2.069  -1.536  0.00  0.00    +0.025 A 
ATOM     33  C   UNL     1      -1.152   3.283  -0.921  0.00  0.00    +0.005 A 
ATOM     34  C   UNL     1      -1.027   4.459  -1.637  0.00  0.00    -0.050 A 
ATOM     35  C   UNL     1      -0.663   4.425  -2.971  0.00  0.00    +0.005 A 
ATOM     36  C   UNL     1      -0.417   3.216  -3.591  0.00  0.00    +0.025 A 
ATOM     37  C   UNL     1      -1.289   5.781  -0.963  0.00  0.00    +0.044 C 
ENDBRANCH  29  31
ENDBRANCH  20  29
ENDBRANCH   6  20
TORSDOF 6
