REMARK  Name = ZINC16195635
REMARK  11 active torsions:
REMARK  status: ('A' for Active; 'I' for Inactive)
REMARK    1  A    between atoms: C_1  and  O_2
REMARK    2  A    between atoms: O_2  and  C_3
REMARK    3  A    between atoms: C_5  and  C_20
REMARK    4  A    between atoms: C_8  and  O_9
REMARK    5  A    between atoms: O_9  and  C_10
REMARK    6  A    between atoms: C_10  and  C_11
REMARK    7  A    between atoms: C_20  and  N_51
REMARK    8  A    between atoms: C_21  and  C_22
REMARK    9  A    between atoms: C_21  and  N_51
REMARK   10  A    between atoms: C_22  and  N_23
REMARK   11  A    between atoms: C_24  and  C_26
REMARK                            x       y       z     vdW  Elec       q    Type
REMARK                         _______ _______ _______ _____ _____    ______ ____
ROOT
ATOM      1  C   UNL     1      -1.976   1.163   1.348  0.00  0.00    +0.163 A 
ATOM      2  C   UNL     1      -2.590   0.365   0.396  0.00  0.00    +0.051 A 
ATOM      3  C   UNL     1      -3.904  -0.029   0.567  0.00  0.00    -0.059 A 
ATOM      4  C   UNL     1      -4.612   0.380   1.681  0.00  0.00    +0.025 A 
ATOM      5  C   UNL     1      -4.007   1.181   2.633  0.00  0.00    +0.086 A 
ATOM      6  C   UNL     1      -2.688   1.575   2.470  0.00  0.00    +0.181 A 
ATOM      7 CL   UNL     1      -4.899   1.693   4.032  0.00  0.00    -0.080 Cl
ENDROOT
BRANCH   1   9
ATOM      8  C   UNL     1      -0.013   1.086   0.008  0.00  0.00    +0.277 C 
ATOM      9  O   UNL     1      -0.682   1.547   1.184  0.00  0.00    -0.491 OA
ENDBRANCH   1   9
BRANCH   6  10
ATOM     10  O   UNL     1      -2.091   2.362   3.405  0.00  0.00    -0.482 OA
BRANCH  10  11
ATOM     11  C   UNL     1      -2.193   3.776   3.224  0.00  0.00    +0.266 C 
BRANCH  11  12
ATOM     12  C   UNL     1      -1.477   4.479   4.348  0.00  0.00    +0.008 A 
ATOM     13  C   UNL     1      -0.857   3.743   5.340  0.00  0.00    +0.010 A 
ATOM     14  C   UNL     1      -0.200   4.387   6.372  0.00  0.00    +0.020 A 
ATOM     15  C   UNL     1      -0.163   5.770   6.411  0.00  0.00    +0.042 A 
ATOM     16  C   UNL     1      -0.783   6.507   5.419  0.00  0.00    +0.040 A 
ATOM     17  C   UNL     1      -1.436   5.862   4.384  0.00  0.00    +0.049 A 
ATOM     18 CL   UNL     1      -2.209   6.786   3.134  0.00  0.00    -0.083 Cl
ATOM     19 CL   UNL     1       0.662   6.579   7.707  0.00  0.00    -0.083 Cl
ENDBRANCH  11  12
ENDBRANCH  10  11
ENDBRANCH   6  10
BRANCH   3  20
ATOM     20  C   UNL     1      -4.568  -0.901  -0.468  0.00  0.00    -0.047 C 
BRANCH  20  21
ATOM     21  N   UNL     1      -5.205  -0.045  -1.486  0.00  0.00    +0.383 N 
ATOM     22  H   UNL     1      -4.489   0.541  -1.931  0.00  0.00    -0.085 HD
ATOM     23  H   UNL     1      -5.905   0.555  -1.034  0.00  0.00    -0.085 HD
BRANCH  21  24
ATOM     24  C   UNL     1      -5.863  -0.874  -2.513  0.00  0.00    -0.063 C 
BRANCH  24  25
ATOM     25  C   UNL     1      -6.514   0.041  -3.553  0.00  0.00    +0.085 C 
BRANCH  25  26
ATOM     26  N   UNL     1      -7.171  -0.775  -4.577  0.00  0.00    -0.312 N 
ATOM     27  C   UNL     1      -7.814  -0.181  -5.602  0.00  0.00    +0.269 C 
ATOM     28  O   UNL     1      -7.849   1.031  -5.676  0.00  0.00    -0.268 OA
ATOM     29  H   UNL     1      -7.143  -1.743  -4.518  0.00  0.00    +0.149 HD
BRANCH  27  30
ATOM     30  C   UNL     1      -8.478  -1.006  -6.637  0.00  0.00    +0.209 A 
ATOM     31  C   UNL     1      -9.231  -0.563  -7.833  0.00  0.00    +0.192 A 
ATOM     32  N   UNL     1      -9.590  -1.701  -8.382  0.00  0.00    -0.033 NA
ATOM     33  O   UNL     1      -9.176  -2.619  -7.714  0.00  0.00    -0.240 OA
ATOM     34  N   UNL     1      -8.543  -2.317  -6.730  0.00  0.00    -0.042 NA
ATOM     35  N   UNL     1      -9.492   0.730  -8.265  0.00  0.00    -0.339 N 
ATOM     36  H   UNL     1      -9.162   1.487  -7.756  0.00  0.00    +0.144 HD
ATOM     37  H   UNL     1     -10.004   0.876  -9.075  0.00  0.00    +0.144 HD
ENDBRANCH  27  30
ENDBRANCH  25  26
ENDBRANCH  24  25
ENDBRANCH  21  24
ENDBRANCH  20  21
ENDBRANCH   3  20
TORSDOF 10
