REMARK  Name = ZINC08984465
REMARK  5 active torsions:
REMARK  status: ('A' for Active; 'I' for Inactive)
REMARK    1  A    between atoms: C_8  and  C_10
REMARK    2  A    between atoms: C_10  and  S_11
REMARK    3  A    between atoms: S_11  and  C_12
REMARK    4  A    between atoms: C_15  and  C_18
REMARK    5  A    between atoms: N_16  and  N_17
REMARK                            x       y       z     vdW  Elec       q    Type
REMARK                         _______ _______ _______ _____ _____    ______ ____
ROOT
ATOM      1  C   UNL     1      -2.307   9.513  -1.343  0.00  0.00    +0.209 A 
ATOM      2  N   UNL     1      -2.436  10.087  -0.169  0.00  0.00    -0.121 NA
ATOM      3  N   UNL     1      -2.738  11.327  -0.320  0.00  0.00    -0.132 NA
ATOM      4  C   UNL     1      -2.820  11.616  -1.588  0.00  0.00    +0.154 A 
ATOM      5  N   UNL     1      -2.542  10.473  -2.285  0.00  0.00    -0.228 N 
ENDROOT
BRANCH   4   6
ATOM      6  C   UNL     1      -3.152  12.963  -2.177  0.00  0.00    +0.059 C 
ATOM      7  C   UNL     1      -2.112  13.989  -1.723  0.00  0.00    +0.011 C 
ATOM      8  C   UNL     1      -2.450  15.357  -2.321  0.00  0.00    +0.001 C 
ATOM      9  C   UNL     1      -3.838  15.792  -1.846  0.00  0.00    +0.000 C 
ATOM     10  C   UNL     1      -4.878  14.766  -2.300  0.00  0.00    +0.001 C 
ATOM     11  C   UNL     1      -4.540  13.399  -1.702  0.00  0.00    +0.011 C 
ENDBRANCH   4   6
BRANCH   5  12
ATOM     12  N   UNL     1      -2.510  10.322  -3.643  0.00  0.00    -0.295 N 
ATOM     13  H   UNL     1      -3.417  10.061  -3.999  0.00  0.00    +0.163 HD
ATOM     14  H   UNL     1      -2.173  11.160  -4.092  0.00  0.00    +0.163 HD
ENDBRANCH   5  12
BRANCH   1  15
ATOM     15  S   UNL     1      -1.899   7.826  -1.645  0.00  0.00    -0.078 S 
BRANCH  15  16
ATOM     16  C   UNL     1      -1.740   7.231   0.057  0.00  0.00    +0.140 C 
BRANCH  16  24
ATOM     17  C   UNL     1       1.176   1.792   0.001  0.00  0.00    +0.002 A 
ATOM     18  C   UNL     1      -0.013   1.076   0.008  0.00  0.00    +0.001 A 
ATOM     19  C   UNL     1      -1.215   1.757   0.017  0.00  0.00    +0.017 A 
ATOM     20  C   UNL     1      -1.212   3.130   0.030  0.00  0.00    +0.039 A 
ATOM     21  C   UNL     1      -0.017   3.886   0.023  0.00  0.00    +0.079 A 
ATOM     22  C   UNL     1       1.190   3.152   0.007  0.00  0.00    +0.029 A 
ATOM     23  N   UNL     1      -0.201   5.223   0.032  0.00  0.00    -0.243 NA
ATOM     24  C   UNL     1      -1.385   5.767   0.046  0.00  0.00    +0.090 A 
ATOM     25  S   UNL     1      -2.454   4.399   0.049  0.00  0.00    -0.071 S 
ENDBRANCH  16  24
ENDBRANCH  15  16
ENDBRANCH   1  15
TORSDOF 5
