REMARK  Name = ZINC66106714
REMARK  4 active torsions:
REMARK  status: ('A' for Active; 'I' for Inactive)
REMARK    1  A    between atoms: C_4  and  C_7
REMARK    2  A    between atoms: C_14  and  C_16
REMARK    3  A    between atoms: C_16  and  C_18
REMARK    4  A    between atoms: C_20  and  C_23
REMARK                            x       y       z     vdW  Elec       q    Type
REMARK                         _______ _______ _______ _____ _____    ______ ____
ROOT
ATOM      1  C   UNL     1       3.699  -0.689  -0.037  0.00  0.00    -0.017 A 
ATOM      2  C   UNL     1       4.899   0.030  -0.040  0.00  0.00    +0.012 A 
ATOM      3  C   UNL     1       6.108  -0.625  -0.054  0.00  0.00    +0.047 A 
ATOM      4  C   UNL     1       6.150  -2.015  -0.068  0.00  0.00    +0.136 A 
ATOM      5  C   UNL     1       4.945  -2.744  -0.065  0.00  0.00    +0.021 A 
ATOM      6  C   UNL     1       3.720  -2.076  -0.045  0.00  0.00    +0.020 A 
ATOM      7  C   UNL     1       5.334  -4.154  -0.082  0.00  0.00    +0.062 A 
ATOM      8  C   UNL     1       6.694  -4.169  -0.092  0.00  0.00    +0.179 A 
ATOM      9  O   UNL     1       7.163  -2.905  -0.084  0.00  0.00    -0.451 OA
ENDROOT
BRANCH   1  13
ATOM     10  C   UNL     1      -0.017   1.379   0.010  0.00  0.00    +0.000 A 
ATOM     11  C   UNL     1       1.169   2.092   0.002  0.00  0.00    +0.001 A 
ATOM     12  C   UNL     1       2.377   1.426  -0.013  0.00  0.00    +0.008 A 
ATOM     13  C   UNL     1       2.402   0.033  -0.021  0.00  0.00    -0.018 A 
ATOM     14  C   UNL     1       1.205  -0.680  -0.013  0.00  0.00    +0.008 A 
ATOM     15  C   UNL     1       0.002  -0.004   0.002  0.00  0.00    +0.001 A 
ENDBRANCH   1  13
BRANCH   8  16
ATOM     16  C   UNL     1       7.526  -5.380  -0.109  0.00  0.00    +0.263 C 
ATOM     17  O   UNL     1       7.002  -6.480  -0.115  0.00  0.00    -0.280 OA
BRANCH  16  18
ATOM     18  C   UNL     1       8.989  -5.265  -0.119  0.00  0.00    +0.179 A 
ATOM     19  C   UNL     1       9.868  -6.306  -0.141  0.00  0.00    +0.066 A 
ATOM     20  C   UNL     1      11.166  -5.740  -0.143  0.00  0.00    +0.075 A 
ATOM     21  C   UNL     1      10.996  -4.372  -0.123  0.00  0.00    +0.209 A 
ATOM     22  O   UNL     1       9.687  -4.111  -0.115  0.00  0.00    -0.459 OA
BRANCH  20  23
ATOM     23  C   UNL     1      12.448  -6.470  -0.163  0.00  0.00    +0.245 C 
ATOM     24  O   UNL     1      12.454  -7.686  -0.179  0.00  0.00    -0.270 OA
ATOM     25  N   UNL     1      13.611  -5.790  -0.162  0.00  0.00    -0.325 N 
ATOM     26  H   UNL     1      13.606  -4.820  -0.149  0.00  0.00    +0.145 HD
ATOM     27  H   UNL     1      14.454  -6.270  -0.175  0.00  0.00    +0.145 HD
ENDBRANCH  20  23
ENDBRANCH  16  18
ENDBRANCH   8  16
TORSDOF 4
