REMARK  Name = ZINC00651980
REMARK  12 active torsions:
REMARK  status: ('A' for Active; 'I' for Inactive)
REMARK    1  A    between atoms: C_1  and  C_2
REMARK    2  A    between atoms: C_3  and  C_34
REMARK    3  A    between atoms: C_4  and  C_22
REMARK    4  A    between atoms: C_10  and  C_15
REMARK    5  A    between atoms: C_24  and  O_32
REMARK    6  A    between atoms: C_25  and  O_30
REMARK    7  A    between atoms: C_26  and  O_28
REMARK    8  A    between atoms: O_28  and  C_29
REMARK    9  A    between atoms: O_30  and  C_31
REMARK   10  A    between atoms: O_32  and  C_33
REMARK   11  A    between atoms: C_34  and  O_36
REMARK   12  A    between atoms: O_36  and  C_37
REMARK                            x       y       z     vdW  Elec       q    Type
REMARK                         _______ _______ _______ _____ _____    ______ ____
ROOT
ATOM      1  C   UNL     1      -0.211  10.649  -3.712  0.00  0.00    +0.061 C 
ATOM      2  C   UNL     1      -0.602  10.026  -2.397  0.00  0.00    +0.016 C 
ATOM      3  C   UNL     1      -0.623  10.778  -1.283  0.00  0.00    +0.065 C 
ATOM      4  C   UNL     1      -1.014  10.194   0.043  0.00  0.00    +0.092 C 
ATOM      5  C   UNL     1      -0.932   8.688   0.016  0.00  0.00    +0.024 C 
ATOM      6  C   UNL     1      -0.904   8.021  -1.157  0.00  0.00    +0.016 C 
ATOM      7  N   UNL     1      -0.932   8.701  -2.345  0.00  0.00    -0.321 N 
ATOM      8  C   UNL     1      -0.840   6.514  -1.192  0.00  0.00    +0.059 C 
ATOM      9  C   UNL     1      -0.079   6.003   0.034  0.00  0.00    +0.032 C 
ATOM     10  C   UNL     1      -0.796   6.502   1.293  0.00  0.00    +0.088 C 
ATOM     11  C   UNL     1      -0.888   8.003   1.242  0.00  0.00    +0.162 C 
ATOM     12  O   UNL     1      -0.927   8.634   2.280  0.00  0.00    -0.292 OA
ATOM     13  H   UNL     1      -1.223   8.170  -3.263  0.00  0.00    +0.152 HD
ENDROOT
BRANCH   9  14
ATOM     14  C   UNL     1      -0.059   4.497   0.026  0.00  0.00    -0.043 A 
ATOM     15  C   UNL     1       1.148   3.822   0.012  0.00  0.00    +0.005 A 
ATOM     16  C   UNL     1       1.167   2.440   0.004  0.00  0.00    +0.020 A 
ATOM     17  C   UNL     1      -0.021   1.732   0.012  0.00  0.00    +0.041 A 
ATOM     18  C   UNL     1      -1.229   2.407   0.021  0.00  0.00    +0.020 A 
ATOM     19  C   UNL     1      -1.247   3.789   0.034  0.00  0.00    +0.005 A 
ATOM     20 CL   UNL     1       0.002  -0.004   0.002  0.00  0.00    -0.084 Cl
ENDBRANCH   9  14
BRANCH   4  21
ATOM     21  C   UNL     1      -2.426  10.607   0.369  0.00  0.00    -0.028 A 
ATOM     22  C   UNL     1      -3.464  10.230  -0.463  0.00  0.00    +0.054 A 
ATOM     23  C   UNL     1      -4.766  10.603  -0.164  0.00  0.00    +0.165 A 
ATOM     24  C   UNL     1      -5.025  11.367   0.969  0.00  0.00    +0.204 A 
ATOM     25  C   UNL     1      -3.978  11.748   1.800  0.00  0.00    +0.165 A 
ATOM     26  C   UNL     1      -2.680  11.366   1.496  0.00  0.00    +0.054 A 
BRANCH  25  27
ATOM     27  O   UNL     1      -4.226  12.494   2.909  0.00  0.00    -0.491 OA
ATOM     28  C   UNL     1      -3.102  12.849   3.717  0.00  0.00    +0.277 C 
ENDBRANCH  25  27
BRANCH  24  29
ATOM     29  O   UNL     1      -6.300  11.740   1.263  0.00  0.00    -0.488 OA
ATOM     30  C   UNL     1      -6.754  12.981   0.721  0.00  0.00    +0.277 C 
ENDBRANCH  24  29
BRANCH  23  31
ATOM     31  O   UNL     1      -5.786  10.228  -0.980  0.00  0.00    -0.491 OA
ATOM     32  C   UNL     1      -5.446   9.444  -2.126  0.00  0.00    +0.277 C 
ENDBRANCH  23  31
ENDBRANCH   4  21
BRANCH   3  33
ATOM     33  C   UNL     1      -0.271  12.146  -1.362  0.00  0.00    +0.337 C 
ATOM     34  O   UNL     1       0.048  12.631  -2.431  0.00  0.00    -0.245 OA
BRANCH  33  35
ATOM     35  O   UNL     1      -0.287  12.912  -0.251  0.00  0.00    -0.465 OA
ATOM     36  C   UNL     1       0.080  14.284  -0.404  0.00  0.00    +0.280 C 
ENDBRANCH  33  35
ENDBRANCH   3  33
TORSDOF 7
