REMARK  Name = ZINC35973891
REMARK  8 active torsions:
REMARK  status: ('A' for Active; 'I' for Inactive)
REMARK    1  A    between atoms: C_1  and  C_2
REMARK    2  A    between atoms: C_2  and  C_3
REMARK    3  A    between atoms: C_3  and  N_4
REMARK    4  A    between atoms: C_5  and  C_7
REMARK    5  A    between atoms: C_7  and  C_9
REMARK    6  A    between atoms: C_7  and  N_20
REMARK    7  A    between atoms: C_9  and  C_10
REMARK    8  A    between atoms: C_21  and  C_23
REMARK                            x       y       z     vdW  Elec       q    Type
REMARK                         _______ _______ _______ _____ _____    ______ ____
ROOT
ATOM      1  C   UNL     1      -2.551  -4.195   0.004  0.00  0.00    +0.163 C 
ENDROOT
BRANCH   1   3
ATOM      2  N   UNL     1      -1.413  -1.998   0.005  0.00  0.00    -0.314 N 
ATOM      3  C   UNL     1      -2.571  -2.688   0.012  0.00  0.00    +0.234 C 
ATOM      4  O   UNL     1      -3.630  -2.096   0.025  0.00  0.00    -0.274 OA
ATOM      5  H   UNL     1      -0.567  -2.472  -0.006  0.00  0.00    +0.149 HD
BRANCH   2   6
ATOM      6  C   UNL     1      -1.433  -0.534   0.013  0.00  0.00    +0.104 C 
BRANCH   6   8
ATOM      7  C   UNL     1      -0.019   1.526   0.010  0.00  0.00    +0.005 C 
ATOM      8  C   UNL     1       0.002  -0.004   0.002  0.00  0.00    +0.015 C 
ENDBRANCH   6   8
ENDBRANCH   2   6
ENDBRANCH   1   3
BRANCH   1   9
ATOM      9  N   UNL     1      -3.925  -4.702   0.014  0.00  0.00    -0.302 N 
ATOM     10  C   UNL     1      -4.582  -4.846   1.183  0.00  0.00    +0.231 C 
ATOM     11  O   UNL     1      -4.034  -4.556   2.225  0.00  0.00    -0.274 OA
ATOM     12  H   UNL     1      -4.363  -4.934  -0.820  0.00  0.00    +0.150 HD
BRANCH  10  13
ATOM     13  C   UNL     1      -5.995  -5.368   1.193  0.00  0.00    +0.145 C 
ATOM     14  C   UNL     1      -5.982  -6.892   1.069  0.00  0.00    +0.063 C 
ATOM     15  C   UNL     1      -7.363  -7.441   1.321  0.00  0.00    -0.041 A 
ATOM     16  C   UNL     1      -7.644  -8.736   0.913  0.00  0.00    +0.004 A 
ATOM     17  C   UNL     1      -8.895  -9.278   1.127  0.00  0.00    +0.000 A 
ATOM     18  C   UNL     1      -9.872  -8.527   1.752  0.00  0.00    +0.000 A 
ATOM     19  C   UNL     1      -9.594  -7.237   2.158  0.00  0.00    +0.005 A 
ATOM     20  C   UNL     1      -8.338  -6.690   1.940  0.00  0.00    -0.030 A 
ATOM     21  C   UNL     1      -8.085  -5.274   2.390  0.00  0.00    +0.117 C 
ATOM     22  N   UNL     1      -6.647  -5.004   2.462  0.00  0.00    -0.301 NA
ATOM     23  H   UNL     1      -6.228  -5.495   3.237  0.00  0.00    +0.123 HD
ENDBRANCH  10  13
ENDBRANCH   1   9
BRANCH   1  24
ATOM     24  C   UNL     1      -1.835  -4.688  -1.255  0.00  0.00    +0.069 C 
BRANCH  24  25
ATOM     25  C   UNL     1      -1.706  -6.189  -1.204  0.00  0.00    -0.020 A 
ATOM     26  C   UNL     1      -0.649  -6.885  -0.755  0.00  0.00    +0.087 A 
ATOM     27  N   UNL     1      -0.894  -8.227  -0.863  0.00  0.00    -0.360 N 
ATOM     28  H   UNL     1      -0.278  -8.928  -0.602  0.00  0.00    +0.165 HD
ATOM     29  C   UNL     1      -2.146  -8.432  -1.398  0.00  0.00    +0.047 A 
ATOM     30  C   UNL     1      -2.712  -7.165  -1.629  0.00  0.00    +0.003 A 
ATOM     31  C   UNL     1      -3.995  -7.063  -2.169  0.00  0.00    +0.010 A 
ATOM     32  C   UNL     1      -4.698  -8.197  -2.467  0.00  0.00    +0.001 A 
ATOM     33  C   UNL     1      -4.146  -9.449  -2.237  0.00  0.00    +0.002 A 
ATOM     34  C   UNL     1      -2.877  -9.573  -1.714  0.00  0.00    +0.026 A 
ENDBRANCH  24  25
ENDBRANCH   1  24
TORSDOF 7
