REMARK  Name = ZINC39227617
REMARK  13 active torsions:
REMARK  status: ('A' for Active; 'I' for Inactive)
REMARK    1  A    between atoms: C_1  and  C_2
REMARK    2  A    between atoms: C_2  and  C_4
REMARK    3  A    between atoms: C_2  and  O_38
REMARK    4  A    between atoms: C_4  and  N_5
REMARK    5  A    between atoms: N_5  and  C_6
REMARK    6  A    between atoms: C_6  and  C_7
REMARK    7  A    between atoms: C_7  and  C_9
REMARK    8  A    between atoms: C_7  and  O_10
REMARK    9  A    between atoms: C_11  and  C_13
REMARK   10  A    between atoms: C_16  and  C_19
REMARK   11  A    between atoms: N_32  and  C_35
REMARK   12  A    between atoms: C_35  and  C_36
REMARK   13  A    between atoms: C_35  and  C_37
REMARK                            x       y       z     vdW  Elec       q    Type
REMARK                         _______ _______ _______ _____ _____    ______ ____
ROOT
ATOM      1  C   UNL     1       0.805  -8.463  -0.767  0.00  0.00    -0.017 A 
ATOM      2  C   UNL     1      -0.256  -9.058  -1.455  0.00  0.00    +0.012 A 
ATOM      3  C   UNL     1      -0.401 -10.427  -1.469  0.00  0.00    +0.047 A 
ATOM      4  C   UNL     1       0.510 -11.235  -0.799  0.00  0.00    +0.132 A 
ATOM      5  C   UNL     1       1.581 -10.643  -0.109  0.00  0.00    +0.060 A 
ATOM      6  C   UNL     1       1.730  -9.257  -0.096  0.00  0.00    +0.023 A 
ATOM      7  C   UNL     1       2.549 -11.508   0.589  0.00  0.00    +0.170 C 
ATOM      8  O   UNL     1       3.598 -11.075   1.018  0.00  0.00    -0.292 OA
ATOM      9  C   UNL     1       2.164 -12.968   0.744  0.00  0.00    +0.127 C 
ATOM     10  C   UNL     1       1.497 -13.401  -0.568  0.00  0.00    +0.114 C 
ATOM     11  O   UNL     1       0.356 -12.580  -0.815  0.00  0.00    -0.485 OA
ATOM     12  C   UNL     1       2.498 -13.251  -1.717  0.00  0.00    +0.030 C 
ATOM     13  C   UNL     1       1.862 -13.767  -3.010  0.00  0.00    -0.075 C 
ATOM     14  N   UNL     1       1.501 -15.180  -2.852  0.00  0.00    +0.381 N 
ATOM     15  C   UNL     1       0.486 -15.321  -1.801  0.00  0.00    -0.075 C 
ATOM     16  C   UNL     1       1.067 -14.866  -0.461  0.00  0.00    +0.030 C 
ATOM     17  H   UNL     1       2.322 -15.710  -2.598  0.00  0.00    -0.081 HD
ENDROOT
BRANCH   1  21
ATOM     18  C   UNL     1       1.218  -4.228  -0.739  0.00  0.00    +0.037 A 
ATOM     19  C   UNL     1       0.154  -4.822  -1.422  0.00  0.00    +0.013 A 
ATOM     20  C   UNL     1       0.021  -6.192  -1.430  0.00  0.00    +0.009 A 
ATOM     21  C   UNL     1       0.949  -6.987  -0.757  0.00  0.00    -0.018 A 
ATOM     22  C   UNL     1       2.013  -6.395  -0.075  0.00  0.00    +0.009 A 
ATOM     23  C   UNL     1       2.150  -5.026  -0.070  0.00  0.00    +0.013 A 
BRANCH  18  25
ATOM     24  N   UNL     1       0.266  -1.974  -0.733  0.00  0.00    -0.293 N 
ATOM     25  C   UNL     1       1.362  -2.758  -0.730  0.00  0.00    +0.247 C 
ATOM     26  O   UNL     1       2.469  -2.255  -0.719  0.00  0.00    -0.270 OA
BRANCH  24  27
ATOM     27  C   UNL     1      -1.067  -2.578  -0.662  0.00  0.00    +0.139 C 
BRANCH  27  29
ATOM     28  C   UNL     1      -3.350  -2.596  -1.677  0.00  0.00    +0.039 C 
ATOM     29  C   UNL     1      -1.923  -2.064  -1.821  0.00  0.00    +0.129 C 
BRANCH  29  30
ATOM     30  O   UNL     1      -1.369  -2.515  -3.059  0.00  0.00    -0.391 OA
ATOM     31  H   UNL     1      -1.861  -2.226  -3.839  0.00  0.00    +0.210 HD
ENDBRANCH  29  30
ENDBRANCH  27  29
ENDBRANCH  24  27
BRANCH  24  32
ATOM     32  C   UNL     1       0.407  -0.518  -0.808  0.00  0.00    +0.139 C 
BRANCH  32  33
ATOM     33  C   UNL     1       0.362   0.072   0.603  0.00  0.00    +0.129 C 
ATOM     34  C   UNL     1       0.386   1.600   0.518  0.00  0.00    +0.039 C 
BRANCH  33  35
ATOM     35  O   UNL     1       1.496  -0.381   1.345  0.00  0.00    -0.391 OA
ATOM     36  H   UNL     1       2.342  -0.056   1.008  0.00  0.00    +0.210 HD
ENDBRANCH  33  35
ENDBRANCH  32  33
ENDBRANCH  24  32
ENDBRANCH  18  25
ENDBRANCH   1  21
BRANCH  14  37
ATOM     37  C   UNL     1       0.965 -15.692  -4.120  0.00  0.00    -0.075 C 
ATOM     38  C   UNL     1       2.026 -15.555  -5.214  0.00  0.00    -0.014 C 
ATOM     39  C   UNL     1       0.588 -17.166  -3.957  0.00  0.00    -0.014 C 
ENDBRANCH  14  37
TORSDOF 9
