REMARK  Name = ZINC16809415
REMARK  7 active torsions:
REMARK  status: ('A' for Active; 'I' for Inactive)
REMARK    1  A    between atoms: C_1  and  C_2
REMARK    2  A    between atoms: C_5  and  C_8
REMARK    3  A    between atoms: C_8  and  C_9
REMARK    4  A    between atoms: C_10  and  C_35
REMARK    5  A    between atoms: C_23  and  C_27
REMARK    6  A    between atoms: C_24  and  C_26
REMARK    7  A    between atoms: C_27  and  C_28
REMARK                            x       y       z     vdW  Elec       q    Type
REMARK                         _______ _______ _______ _____ _____    ______ ____
ROOT
ATOM      1  C   UNL     1      -5.491   1.635   6.234  0.00  0.00    +0.042 A 
ATOM      2  C   UNL     1      -4.736   1.030   5.271  0.00  0.00    +0.050 A 
ATOM      3  N   UNL     1      -3.809   1.724   4.615  0.00  0.00    -0.221 NA
ATOM      4  C   UNL     1      -3.598   2.999   4.871  0.00  0.00    +0.202 A 
ATOM      5  N   UNL     1      -4.315   3.654   5.823  0.00  0.00    -0.295 N 
ATOM      6  H   UNL     1      -4.144   4.592   6.002  0.00  0.00    +0.172 HD
ATOM      7  C   UNL     1      -5.270   2.996   6.514  0.00  0.00    +0.256 A 
ATOM      8  O   UNL     1      -5.926   3.569   7.368  0.00  0.00    -0.267 OA
ATOM      9  N   UNL     1      -2.630   3.677   4.169  0.00  0.00    -0.255 N 
ATOM     10  C   UNL     1      -1.894   3.025   3.209  0.00  0.00    +0.202 A 
ATOM     11  N   UNL     1      -0.940   3.708   2.521  0.00  0.00    -0.295 N 
ATOM     12  H   UNL     1      -0.783   4.646   2.708  0.00  0.00    +0.172 HD
ATOM     13  C   UNL     1      -0.209   3.073   1.579  0.00  0.00    +0.256 A 
ATOM     14  O   UNL     1       0.654   3.669   0.956  0.00  0.00    -0.267 OA
ATOM     15  C   UNL     1      -0.466   1.713   1.327  0.00  0.00    +0.042 A 
ATOM     16  C   UNL     1      -1.436   1.081   2.049  0.00  0.00    +0.050 A 
ATOM     17  N   UNL     1      -2.125   1.751   2.971  0.00  0.00    -0.221 NA
ATOM     18  C   UNL     1      -1.727  -0.377   1.803  0.00  0.00    +0.066 C 
ATOM     19  C   UNL     1      -4.952  -0.427   4.952  0.00  0.00    +0.066 C 
ATOM     20  H   UNL     1      -2.467   4.616   4.351  0.00  0.00    +0.158 HD
ENDROOT
BRANCH   1  21
ATOM     21  C   UNL     1      -6.542   0.859   6.984  0.00  0.00    +0.077 C 
BRANCH  21  26
ATOM     22  C   UNL     1      -4.314  -1.111  11.939  0.00  0.00    +0.044 C 
ATOM     23  C   UNL     1      -4.895  -0.597  10.647  0.00  0.00    -0.050 A 
ATOM     24  C   UNL     1      -5.506   0.642  10.608  0.00  0.00    +0.003 A 
ATOM     25  C   UNL     1      -6.040   1.113   9.423  0.00  0.00    +0.004 A 
ATOM     26  C   UNL     1      -5.961   0.345   8.276  0.00  0.00    -0.043 A 
ATOM     27  C   UNL     1      -5.354  -0.896   8.316  0.00  0.00    +0.004 A 
ATOM     28  C   UNL     1      -4.817  -1.365   9.500  0.00  0.00    +0.003 A 
ENDBRANCH  21  26
ENDBRANCH   1  21
BRANCH  15  29
ATOM     29  C   UNL     1       0.322   0.966   0.282  0.00  0.00    +0.077 C 
BRANCH  29  30
ATOM     30  C   UNL     1       1.600   0.448   0.891  0.00  0.00    -0.043 A 
ATOM     31  C   UNL     1       2.721   1.256   0.934  0.00  0.00    +0.005 A 
ATOM     32  C   UNL     1       3.891   0.784   1.498  0.00  0.00    +0.020 A 
ATOM     33  C   UNL     1       3.944  -0.501   2.008  0.00  0.00    +0.041 A 
ATOM     34  C   UNL     1       2.824  -1.311   1.959  0.00  0.00    +0.020 A 
ATOM     35  C   UNL     1       1.652  -0.836   1.401  0.00  0.00    +0.005 A 
ATOM     36 CL   UNL     1       5.416  -1.097   2.709  0.00  0.00    -0.084 Cl
ENDBRANCH  29  30
ENDBRANCH  15  29
TORSDOF 4
