REMARK  Name = ZINC27904165
REMARK  9 active torsions:
REMARK  status: ('A' for Active; 'I' for Inactive)
REMARK    1  A    between atoms: C_1  and  O_2
REMARK    2  A    between atoms: O_2  and  C_3
REMARK    3  A    between atoms: C_6  and  O_41
REMARK    4  A    between atoms: C_7  and  C_9
REMARK    5  A    between atoms: C_11  and  C_29
REMARK    6  A    between atoms: C_24  and  C_25
REMARK    7  A    between atoms: C_24  and  C_27
REMARK    8  A    between atoms: C_29  and  C_31
REMARK    9  A    between atoms: O_41  and  C_42
REMARK                            x       y       z     vdW  Elec       q    Type
REMARK                         _______ _______ _______ _____ _____    ______ ____
ROOT
ATOM      1  C   UNL     1      -3.584   2.456   0.358  0.00  0.00    +0.085 C 
ATOM      2  C   UNL     1      -2.267   1.775   0.809  0.00  0.00    +0.134 C 
ATOM      3  N   UNL     1      -1.258   2.167  -0.177  0.00  0.00    -0.383 NA
ATOM      4  C   UNL     1       0.020   1.657  -0.346  0.00  0.00    +0.054 C 
ATOM      5  C   UNL     1       0.979   2.551  -0.663  0.00  0.00    +0.022 C 
ATOM      6  C   UNL     1       0.625   3.981  -0.779  0.00  0.00    -0.019 A 
ATOM      7  C   UNL     1       1.622   4.957  -0.732  0.00  0.00    +0.008 A 
ATOM      8  C   UNL     1       1.282   6.290  -0.846  0.00  0.00    +0.001 A 
ATOM      9  C   UNL     1      -0.040   6.663  -1.007  0.00  0.00    +0.000 A 
ATOM     10  C   UNL     1      -1.036   5.701  -1.053  0.00  0.00    +0.006 A 
ATOM     11  C   UNL     1      -0.711   4.370  -0.937  0.00  0.00    -0.019 A 
ATOM     12  C   UNL     1      -1.772   3.301  -0.969  0.00  0.00    +0.122 C 
ATOM     13  C   UNL     1      -3.068   3.782  -0.293  0.00  0.00    +0.173 C 
ATOM     14  H   UNL     1      -0.459   1.416  -0.256  0.00  0.00    +0.127 HD
ENDROOT
BRANCH   1  19
ATOM     15  C   UNL     1      -4.784   3.701   3.718  0.00  0.00    +0.121 A 
ATOM     16  C   UNL     1      -6.107   3.282   3.713  0.00  0.00    +0.049 A 
ATOM     17  C   UNL     1      -6.610   2.598   2.624  0.00  0.00    +0.049 A 
ATOM     18  C   UNL     1      -5.794   2.329   1.535  0.00  0.00    +0.124 A 
ATOM     19  C   UNL     1      -4.471   2.748   1.541  0.00  0.00    +0.005 A 
ATOM     20  C   UNL     1      -3.966   3.428   2.632  0.00  0.00    +0.053 A 
BRANCH  15  22
ATOM     21  C   UNL     1      -5.186   4.616   5.876  0.00  0.00    +0.277 C 
ATOM     22  O   UNL     1      -4.289   4.375   4.790  0.00  0.00    -0.495 OA
ENDBRANCH  15  22
BRANCH  18  23
ATOM     23  O   UNL     1      -6.289   1.656   0.463  0.00  0.00    -0.495 OA
ATOM     24  C   UNL     1      -7.660   1.255   0.526  0.00  0.00    +0.277 C 
ENDBRANCH  18  23
ENDBRANCH   1  19
BRANCH  13  25
ATOM     25  C   UNL     1      -2.780   4.802   0.728  0.00  0.00    +0.087 C 
ATOM     26  N   UNL     1      -2.557   5.590   1.516  0.00  0.00    -0.195 NA
ENDBRANCH  13  25
BRANCH  13  27
ATOM     27  C   UNL     1      -4.022   4.294  -1.290  0.00  0.00    +0.087 C 
ATOM     28  N   UNL     1      -4.758   4.689  -2.059  0.00  0.00    -0.195 NA
ENDBRANCH  13  27
BRANCH   2  29
ATOM     29  C   UNL     1      -2.432   0.277   0.816  0.00  0.00    +0.159 C 
ATOM     30  O   UNL     1      -2.894  -0.284  -0.149  0.00  0.00    -0.295 OA
BRANCH  29  31
ATOM     31  C   UNL     1      -2.022  -0.521   2.026  0.00  0.00    +0.032 C 
ATOM     32  C   UNL     1      -0.563  -0.213   2.369  0.00  0.00    +0.018 C 
ATOM     33  C   UNL     1      -0.146  -1.023   3.599  0.00  0.00    -0.010 C 
ATOM     34  C   UNL     1      -0.295  -2.516   3.300  0.00  0.00    +0.007 C 
ATOM     35  C   UNL     1      -1.754  -2.825   2.956  0.00  0.00    -0.010 C 
ATOM     36  C   UNL     1      -2.171  -2.014   1.727  0.00  0.00    +0.018 C 
ATOM     37  C   UNL     1      -2.647  -2.450   4.141  0.00  0.00    +0.007 C 
ATOM     38  C   UNL     1      -2.498  -0.957   4.440  0.00  0.00    -0.010 C 
ATOM     39  C   UNL     1      -1.039  -0.648   4.783  0.00  0.00    +0.007 C 
ATOM     40  C   UNL     1      -2.915  -0.147   3.211  0.00  0.00    +0.018 C 
ENDBRANCH  29  31
ENDBRANCH   2  29
TORSDOF 7
