REMARK  Name = ZINC01387930
REMARK  8 active torsions:
REMARK  status: ('A' for Active; 'I' for Inactive)
REMARK    1  A    between atoms: C_1  and  N_2
REMARK    2  A    between atoms: C_4  and  C_21
REMARK    3  A    between atoms: C_6  and  C_7
REMARK    4  A    between atoms: N_9  and  N_10
REMARK    5  A    between atoms: C_11  and  C_12
REMARK    6  A    between atoms: C_12  and  O_13
REMARK    7  A    between atoms: O_13  and  C_14
REMARK    8  A    between atoms: C_21  and  C_23
REMARK                            x       y       z     vdW  Elec       q    Type
REMARK                         _______ _______ _______ _____ _____    ______ ____
ROOT
ATOM      1  C   UNL     1       3.632   7.465  -0.405  0.00  0.00    +0.277 C 
ATOM      2  O   UNL     1       2.907   6.499  -0.553  0.00  0.00    -0.267 OA
ATOM      3  N   UNL     1       4.971   7.314  -0.430  0.00  0.00    -0.230 N 
ATOM      4  H   UNL     1       5.548   8.092  -0.384  0.00  0.00    +0.173 HD
ENDROOT
BRANCH   1  10
ATOM      5  C   UNL     1       0.625   8.087  -0.101  0.00  0.00    +0.149 C 
ATOM      6  N   UNL     1       1.705   9.076  -0.063  0.00  0.00    -0.345 N 
ATOM      7  C   UNL     1       1.544  10.397   0.113  0.00  0.00    +0.097 A 
ATOM      8  C   UNL     1       2.791  10.996   0.084  0.00  0.00    +0.040 A 
ATOM      9  C   UNL     1       3.740   9.968  -0.116  0.00  0.00    +0.044 A 
ATOM     10  C   UNL     1       3.048   8.796  -0.199  0.00  0.00    +0.106 A 
BRANCH   8  11
ATOM     11  C   UNL     1       3.075  12.434   0.232  0.00  0.00    +0.196 C 
ATOM     12  O   UNL     1       2.175  13.208   0.494  0.00  0.00    -0.287 OA
BRANCH  11  13
ATOM     13  C   UNL     1       4.454  12.935   0.063  0.00  0.00    +0.041 A 
ATOM     14  C   UNL     1       5.212  13.295   1.181  0.00  0.00    +0.014 A 
ATOM     15  C   UNL     1       6.500  13.757   1.017  0.00  0.00    +0.021 A 
ATOM     16  C   UNL     1       7.041  13.875  -0.254  0.00  0.00    +0.042 A 
ATOM     17  C   UNL     1       6.295  13.526  -1.366  0.00  0.00    +0.040 A 
ATOM     18  C   UNL     1       5.005  13.056  -1.216  0.00  0.00    +0.053 A 
ATOM     19 CL   UNL     1       4.070  12.619  -2.612  0.00  0.00    -0.083 Cl
ATOM     20 CL   UNL     1       8.662  14.464  -0.451  0.00  0.00    -0.083 Cl
ENDBRANCH  11  13
ENDBRANCH   8  11
ENDBRANCH   1  10
BRANCH   3  21
ATOM     21  N   UNL     1       5.529   6.032  -0.521  0.00  0.00    -0.251 N 
ATOM     22  C   UNL     1       6.890   5.878  -0.546  0.00  0.00    +0.120 C 
ATOM     23  H   UNL     1       4.952   5.254  -0.567  0.00  0.00    +0.171 HD
ATOM     24  H   UNL     1       7.368   7.844  -0.420  0.00  0.00    +0.157 HD
ATOM     25  N   UNL     1       7.726   6.891  -0.488  0.00  0.00    -0.387 N 
ATOM     26  H   UNL     1       8.739   6.723  -0.510  0.00  0.00    +0.157 HD
BRANCH  22  27
ATOM     27  C   UNL     1       7.490   4.499  -0.645  0.00  0.00    +0.299 C 
BRANCH  27  28
ATOM     28  O   UNL     1       8.916   4.599  -0.654  0.00  0.00    -0.485 OA
BRANCH  28  29
ATOM     29  C   UNL     1       9.616   3.438  -0.739  0.00  0.00    +0.121 A 
ATOM     30  C   UNL     1      11.003   3.462  -0.752  0.00  0.00    +0.047 A 
ATOM     31  C   UNL     1      11.713   2.280  -0.838  0.00  0.00    +0.023 A 
ATOM     32  C   UNL     1      11.041   1.072  -0.911  0.00  0.00    +0.041 A 
ATOM     33  C   UNL     1       9.658   1.046  -0.898  0.00  0.00    +0.023 A 
ATOM     34  C   UNL     1       8.944   2.226  -0.813  0.00  0.00    +0.047 A 
ATOM     35 CL   UNL     1      11.935  -0.412  -1.019  0.00  0.00    -0.084 Cl
ENDBRANCH  28  29
ENDBRANCH  27  28
ENDBRANCH  22  27
ENDBRANCH   3  21
TORSDOF 7
