REMARK  Name = ZINC10152745
REMARK  4 active torsions:
REMARK  status: ('A' for Active; 'I' for Inactive)
REMARK    1  A    between atoms: C_1  and  C_2
REMARK    2  A    between atoms: C_6  and  C_8
REMARK    3  A    between atoms: C_8  and  C_9
REMARK    4  A    between atoms: C_10  and  C_31
REMARK                            x       y       z     vdW  Elec       q    Type
REMARK                         _______ _______ _______ _____ _____    ______ ____
ROOT
ATOM      1  C   UNL     1      -0.057   5.655  -1.480  0.00  0.00    +0.023 A 
ATOM      2  C   UNL     1       1.057   6.202  -2.000  0.00  0.00    +0.022 A 
ATOM      3  N   UNL     1       1.056   6.865  -3.187  0.00  0.00    -0.343 N 
ATOM      4  H   UNL     1       1.888   7.237  -3.518  0.00  0.00    +0.167 HD
ATOM      5  C   UNL     1      -0.076   7.028  -3.918  0.00  0.00    +0.140 A 
ATOM      6  C   UNL     1      -1.281   6.495  -3.450  0.00  0.00    +0.130 A 
ATOM      7  C   UNL     1      -1.288   5.776  -2.179  0.00  0.00    +0.200 A 
ATOM      8  O   UNL     1      -2.318   5.295  -1.731  0.00  0.00    -0.287 OA
ATOM      9  C   UNL     1      -2.307   6.826  -4.439  0.00  0.00    +0.286 A 
ATOM     10  O   UNL     1      -3.487   6.535  -4.386  0.00  0.00    -0.265 OA
ATOM     11  N   UNL     1      -1.692   7.518  -5.421  0.00  0.00    -0.193 N 
ATOM     12  N   UNL     1      -0.334   7.643  -5.109  0.00  0.00    -0.273 N 
ATOM     13  H   UNL     1       0.325   8.099  -5.656  0.00  0.00    +0.189 HD
ATOM     14  C   UNL     1      -2.305   8.022  -6.555  0.00  0.00    +0.196 A 
ATOM     15  N   UNL     1      -3.565   7.939  -6.916  0.00  0.00    -0.221 NA
ATOM     16  C   UNL     1      -4.030   8.486  -8.059  0.00  0.00    +0.081 A 
ATOM     17  C   UNL     1      -5.353   8.472  -8.559  0.00  0.00    +0.029 A 
ATOM     18  C   UNL     1      -5.658   9.076  -9.751  0.00  0.00    +0.002 A 
ATOM     19  C   UNL     1      -4.688   9.719 -10.507  0.00  0.00    +0.001 A 
ATOM     20  C   UNL     1      -3.384   9.753 -10.048  0.00  0.00    +0.017 A 
ATOM     21  C   UNL     1      -3.069   9.150  -8.855  0.00  0.00    +0.041 A 
ATOM     22  S   UNL     1      -1.583   8.945  -7.904  0.00  0.00    -0.048 S 
ATOM     23  C   UNL     1       2.353   6.069  -1.243  0.00  0.00    +0.064 C 
ENDROOT
BRANCH   1  24
ATOM     24  C   UNL     1      -0.001   4.924  -0.164  0.00  0.00    +0.076 C 
BRANCH  24  30
ATOM     25  C   UNL     1      -1.929   0.376  -0.964  0.00  0.00    +0.044 C 
ATOM     26  C   UNL     1      -0.731   1.275  -0.797  0.00  0.00    -0.050 A 
ATOM     27  C   UNL     1       0.545   0.748  -0.875  0.00  0.00    +0.003 A 
ATOM     28  C   UNL     1       1.644   1.573  -0.728  0.00  0.00    +0.001 A 
ATOM     29  C   UNL     1       1.467   2.925  -0.498  0.00  0.00    +0.004 A 
ATOM     30  C   UNL     1       0.192   3.451  -0.415  0.00  0.00    -0.043 A 
ATOM     31  C   UNL     1      -0.907   2.625  -0.561  0.00  0.00    +0.007 A 
ENDBRANCH  24  30
ENDBRANCH   1  24
TORSDOF 2
