REMARK  Name = ZINC36304089
REMARK  15 active torsions:
REMARK  status: ('A' for Active; 'I' for Inactive)
REMARK    1  A    between atoms: C_1  and  C_2
REMARK    2  A    between atoms: C_3  and  C_22
REMARK    3  A    between atoms: C_4  and  O_13
REMARK    4  A    between atoms: N_5  and  C_7
REMARK    5  A    between atoms: O_13  and  C_14
REMARK    6  A    between atoms: C_22  and  N_23
REMARK    7  A    between atoms: N_23  and  C_24
REMARK    8  A    between atoms: N_23  and  C_36
REMARK    9  A    between atoms: C_24  and  C_25
REMARK   10  A    between atoms: C_25  and  C_27
REMARK   11  A    between atoms: C_25  and  O_35
REMARK   12  A    between atoms: C_27  and  O_28
REMARK   13  A    between atoms: O_28  and  C_29
REMARK   14  A    between atoms: C_36  and  C_37
REMARK   15  A    between atoms: C_36  and  C_38
REMARK                            x       y       z     vdW  Elec       q    Type
REMARK                         _______ _______ _______ _____ _____    ______ ____
ROOT
ATOM      1  C   UNL     1      -1.328  -0.417  -0.242  0.00  0.00    +0.068 C 
ATOM      2  C   UNL     1      -1.082  -1.508  -1.252  0.00  0.00    +0.065 A 
ATOM      3  C   UNL     1      -0.510  -1.339  -2.516  0.00  0.00    +0.021 A 
ATOM      4  C   UNL     1      -0.460  -2.556  -3.119  0.00  0.00    +0.225 A 
ATOM      5  N   UNL     1      -0.987  -3.463  -2.253  0.00  0.00    -0.200 N 
ATOM      6  N   UNL     1      -1.363  -2.776  -1.091  0.00  0.00    -0.168 NA
ENDROOT
BRANCH   5   7
ATOM      7  C   UNL     1      -1.125  -4.839  -2.480  0.00  0.00    +0.069 A 
ATOM      8  C   UNL     1      -1.538  -5.301  -3.723  0.00  0.00    +0.028 A 
ATOM      9  C   UNL     1      -1.673  -6.657  -3.944  0.00  0.00    +0.002 A 
ATOM     10  C   UNL     1      -1.397  -7.556  -2.930  0.00  0.00    +0.000 A 
ATOM     11  C   UNL     1      -0.985  -7.099  -1.691  0.00  0.00    +0.002 A 
ATOM     12  C   UNL     1      -0.844  -5.744  -1.465  0.00  0.00    +0.028 A 
ENDBRANCH   5   7
BRANCH   4  13
ATOM     13  O   UNL     1       0.028  -2.819  -4.358  0.00  0.00    -0.435 OA
BRANCH  13  14
ATOM     14  C   UNL     1       1.273  -3.357  -4.453  0.00  0.00    +0.166 A 
ATOM     15  C   UNL     1       2.006  -3.618  -3.306  0.00  0.00    +0.052 A 
ATOM     16  C   UNL     1       3.272  -4.164  -3.404  0.00  0.00    +0.042 A 
ATOM     17  C   UNL     1       3.809  -4.451  -4.647  0.00  0.00    +0.126 A 
ATOM     18  C   UNL     1       3.080  -4.191  -5.795  0.00  0.00    +0.080 A 
ATOM     19  C   UNL     1       1.810  -3.650  -5.701  0.00  0.00    +0.168 A 
ATOM     20  F   UNL     1       1.096  -3.401  -6.820  0.00  0.00    -0.202 F 
ATOM     21  F   UNL     1       5.047  -4.984  -4.741  0.00  0.00    -0.205 F 
ENDBRANCH  13  14
ENDBRANCH   4  13
BRANCH   3  22
ATOM     22  C   UNL     1      -0.034  -0.036  -3.106  0.00  0.00    -0.035 C 
BRANCH  22  23
ATOM     23  N   UNL     1       1.433  -0.046  -3.194  0.00  0.00    +0.386 N 
ATOM     24  H   UNL     1       1.746  -0.959  -3.488  0.00  0.00    -0.081 HD
BRANCH  23  25
ATOM     25  C   UNL     1       2.004   0.268  -1.878  0.00  0.00    -0.074 C 
ATOM     26  C   UNL     1       1.372   1.553  -1.341  0.00  0.00    -0.014 C 
ATOM     27  C   UNL     1       1.720  -0.883  -0.911  0.00  0.00    -0.014 C 
ENDBRANCH  23  25
BRANCH  23  28
ATOM     28  C   UNL     1       1.871   0.960  -4.171  0.00  0.00    -0.043 C 
BRANCH  28  29
ATOM     29  C   UNL     1       3.370   0.799  -4.431  0.00  0.00    +0.135 C 
BRANCH  29  30
ATOM     30  O   UNL     1       4.105   1.312  -3.318  0.00  0.00    -0.390 OA
ATOM     31  H   UNL     1       3.914   2.237  -3.114  0.00  0.00    +0.210 HD
ENDBRANCH  29  30
BRANCH  29  32
ATOM     32  C   UNL     1       3.754   1.571  -5.695  0.00  0.00    +0.258 C 
BRANCH  32  33
ATOM     33  O   UNL     1       5.128   1.326  -6.004  0.00  0.00    -0.489 OA
BRANCH  33  34
ATOM     34  C   UNL     1       5.631   1.942  -7.106  0.00  0.00    +0.121 A 
ATOM     35  C   UNL     1       4.822   2.769  -7.871  0.00  0.00    +0.045 A 
ATOM     36  C   UNL     1       5.337   3.394  -8.990  0.00  0.00    +0.004 A 
ATOM     37  C   UNL     1       6.657   3.196  -9.348  0.00  0.00    +0.000 A 
ATOM     38  C   UNL     1       7.466   2.371  -8.588  0.00  0.00    +0.004 A 
ATOM     39  C   UNL     1       6.958   1.749  -7.464  0.00  0.00    +0.045 A 
ENDBRANCH  33  34
ENDBRANCH  32  33
ENDBRANCH  29  32
ENDBRANCH  28  29
ENDBRANCH  23  28
ENDBRANCH  22  23
ENDBRANCH   3  22
TORSDOF 12
