REMARK  Name = ZINC60348564
REMARK  13 active torsions:
REMARK  status: ('A' for Active; 'I' for Inactive)
REMARK    1  A    between atoms: C_1  and  C_2
REMARK    2  A    between atoms: C_2  and  N_3
REMARK    3  A    between atoms: C_7  and  C_9
REMARK    4  A    between atoms: C_9  and  N_10
REMARK    5  A    between atoms: N_10  and  C_11
REMARK    6  A    between atoms: N_10  and  S_16
REMARK    7  A    between atoms: C_11  and  C_12
REMARK    8  A    between atoms: C_12  and  N_13
REMARK    9  A    between atoms: N_13  and  C_14
REMARK   10  A    between atoms: N_13  and  C_15
REMARK   11  A    between atoms: S_16  and  C_19
REMARK   12  A    between atoms: C_22  and  O_25
REMARK   13  A    between atoms: O_25  and  C_26
REMARK                            x       y       z     vdW  Elec       q    Type
REMARK                         _______ _______ _______ _____ _____    ______ ____
ROOT
ATOM      1  N   UNL     1      -1.655  -1.643   2.515  0.00  0.00    -0.180 NA
ENDROOT
BRANCH   1   2
ATOM      2  S   UNL     1      -0.419  -2.079   3.528  0.00  0.00    +0.061 S 
ATOM      3  O   UNL     1      -0.522  -1.247   4.675  0.00  0.00    -0.153 OA
ATOM      4  O   UNL     1      -0.445  -3.498   3.611  0.00  0.00    -0.153 OA
BRANCH   2   5
ATOM      5  C   UNL     1       1.089  -1.648   2.726  0.00  0.00    +0.106 A 
ATOM      6  C   UNL     1       1.714  -2.560   1.895  0.00  0.00    +0.032 A 
ATOM      7  C   UNL     1       2.897  -2.225   1.266  0.00  0.00    +0.048 A 
ATOM      8  C   UNL     1       3.458  -0.972   1.467  0.00  0.00    +0.130 A 
ATOM      9  C   UNL     1       2.828  -0.059   2.300  0.00  0.00    +0.048 A 
ATOM     10  C   UNL     1       1.643  -0.397   2.924  0.00  0.00    +0.032 A 
BRANCH   8  11
ATOM     11  O   UNL     1       4.622  -0.640   0.849  0.00  0.00    -0.406 OA
BRANCH  11  12
ATOM     12  C   UNL     1       5.141   0.667   1.102  0.00  0.00    +0.575 C 
ATOM     13  F   UNL     1       5.387   0.814   2.472  0.00  0.00    -0.133 F 
ATOM     14  F   UNL     1       6.334   0.841   0.393  0.00  0.00    -0.133 F 
ATOM     15  F   UNL     1       4.210   1.627   0.691  0.00  0.00    -0.133 F 
ENDBRANCH  11  12
ENDBRANCH   8  11
ENDBRANCH   2   5
ENDBRANCH   1   2
BRANCH   1  16
ATOM     16  C   UNL     1      -2.277  -2.643   1.645  0.00  0.00    +0.094 C 
BRANCH  16  21
ATOM     17  N   UNL     1      -3.357  -3.714   3.578  0.00  0.00    +0.382 N 
ATOM     18  C   UNL     1      -3.802  -5.123   3.531  0.00  0.00    -0.078 C 
ATOM     19  C   UNL     1      -4.857  -5.168   2.397  0.00  0.00    -0.020 C 
ATOM     20  C   UNL     1      -4.250  -4.179   1.366  0.00  0.00    -0.016 C 
ATOM     21  C   UNL     1      -3.602  -3.100   2.260  0.00  0.00    -0.053 C 
ATOM     22  H   UNL     1      -2.372  -3.678   3.792  0.00  0.00    -0.081 HD
BRANCH  17  24
ATOM     23  C   UNL     1      -3.763  -3.550   5.987  0.00  0.00    -0.017 C 
ATOM     24  C   UNL     1      -4.115  -2.991   4.608  0.00  0.00    -0.082 C 
ENDBRANCH  17  24
ENDBRANCH  16  21
ENDBRANCH   1  16
BRANCH   1  25
ATOM     25  C   UNL     1      -2.125  -0.255   2.489  0.00  0.00    +0.091 C 
BRANCH  25  26
ATOM     26  C   UNL     1      -3.303  -0.098   3.452  0.00  0.00    -0.062 C 
BRANCH  26  27
ATOM     27  N   UNL     1      -3.775   1.293   3.426  0.00  0.00    +0.377 N 
ATOM     28  C   UNL     1      -4.316   1.602   2.096  0.00  0.00    -0.097 C 
ATOM     29  C   UNL     1      -4.826   1.473   4.437  0.00  0.00    -0.097 C 
ATOM     30  H   UNL     1      -3.005   1.913   3.628  0.00  0.00    -0.083 HD
ENDBRANCH  26  27
ENDBRANCH  25  26
ENDBRANCH   1  25
TORSDOF 10
