REMARK  Name = ZINC02725406
REMARK  7 active torsions:
REMARK  status: ('A' for Active; 'I' for Inactive)
REMARK    1  A    between atoms: C_4  and  C_7
REMARK    2  A    between atoms: C_7  and  C_8
REMARK    3  A    between atoms: C_7  and  C_28
REMARK    4  A    between atoms: C_8  and  C_9
REMARK    5  A    between atoms: C_9  and  N_10
REMARK    6  A    between atoms: N_13  and  C_14
REMARK    7  A    between atoms: C_14  and  C_24
REMARK                            x       y       z     vdW  Elec       q    Type
REMARK                         _______ _______ _______ _____ _____    ______ ____
ROOT
ATOM      1  N   UNL     1       2.356   1.087   4.237  0.00  0.00    -0.299 N 
ATOM      2  C   UNL     1       2.180   0.871   2.919  0.00  0.00    +0.305 C 
ATOM      3  O   UNL     1       1.152   1.227   2.376  0.00  0.00    -0.253 OA
ATOM      4  N   UNL     1       3.144   0.260   2.201  0.00  0.00    -0.220 N 
ATOM      5  H   UNL     1       3.177   0.802   4.670  0.00  0.00    +0.150 HD
ATOM      6  H   UNL     1       3.964  -0.025   2.634  0.00  0.00    +0.158 HD
ENDROOT
BRANCH   4   7
ATOM      7  C   UNL     1       2.953   0.025   0.768  0.00  0.00    +0.436 C 
ATOM      8  O   UNL     1       2.647   1.258   0.090  0.00  0.00    -0.426 OA
ATOM      9  C   UNL     1       1.285   1.348   0.094  0.00  0.00    +0.169 A 
ATOM     10  C   UNL     1       0.435   2.421  -0.119  0.00  0.00    +0.051 A 
ATOM     11  C   UNL     1      -0.934   2.243  -0.057  0.00  0.00    +0.024 A 
ATOM     12  C   UNL     1      -1.460   0.991   0.211  0.00  0.00    +0.045 A 
ATOM     13  C   UNL     1      -0.617  -0.083   0.431  0.00  0.00    +0.069 A 
ATOM     14  C   UNL     1       0.756   0.090   0.371  0.00  0.00    +0.170 A 
ATOM     15  O   UNL     1       1.787  -0.789   0.540  0.00  0.00    -0.426 OA
ATOM     16 CL   UNL     1      -3.180   0.771   0.279  0.00  0.00    -0.083 Cl
BRANCH   7  17
ATOM     17  C   UNL     1       4.195  -0.633   0.162  0.00  0.00    +0.490 C 
ATOM     18  F   UNL     1       4.007  -0.804  -1.214  0.00  0.00    -0.162 F 
ATOM     19  F   UNL     1       5.309   0.184   0.383  0.00  0.00    -0.162 F 
ATOM     20  F   UNL     1       4.403  -1.879   0.763  0.00  0.00    -0.162 F 
ENDBRANCH   7  17
ENDBRANCH   4   7
BRANCH   1  21
ATOM     21  C   UNL     1       1.309   1.751   5.017  0.00  0.00    +0.106 C 
BRANCH  21  22
ATOM     22  C   UNL     1       1.757   1.871   6.475  0.00  0.00    +0.031 C 
BRANCH  22  23
ATOM     23  C   UNL     1       0.663   2.565   7.289  0.00  0.00    +0.050 C 
BRANCH  23  27
ATOM     24  C   UNL     1       1.761   2.592  11.417  0.00  0.00    +0.000 A 
ATOM     25  C   UNL     1       2.644   3.063  10.464  0.00  0.00    +0.000 A 
ATOM     26  C   UNL     1       2.289   3.055   9.128  0.00  0.00    +0.004 A 
ATOM     27  C   UNL     1       1.050   2.574   8.745  0.00  0.00    -0.040 A 
ATOM     28  C   UNL     1       0.165   2.108   9.699  0.00  0.00    +0.004 A 
ATOM     29  C   UNL     1       0.522   2.112  11.034  0.00  0.00    +0.000 A 
ENDBRANCH  23  27
BRANCH  23  30
ATOM     30  C   UNL     1       0.498   3.982   6.804  0.00  0.00    -0.040 A 
ATOM     31  C   UNL     1       1.599   4.814   6.712  0.00  0.00    +0.004 A 
ATOM     32  C   UNL     1       1.448   6.113   6.263  0.00  0.00    +0.000 A 
ATOM     33  C   UNL     1       0.196   6.583   5.915  0.00  0.00    +0.000 A 
ATOM     34  C   UNL     1      -0.905   5.753   6.011  0.00  0.00    +0.000 A 
ATOM     35  C   UNL     1      -0.754   4.452   6.456  0.00  0.00    +0.004 A 
ENDBRANCH  23  30
ENDBRANCH  22  23
ENDBRANCH  21  22
ENDBRANCH   1  21
TORSDOF 7
