REMARK  Name = ZINC43193622
REMARK  16 active torsions:
REMARK  status: ('A' for Active; 'I' for Inactive)
REMARK    1  A    between atoms: C_4  and  C_7
REMARK    2  A    between atoms: C_7  and  C_8
REMARK    3  A    between atoms: C_8  and  C_9
REMARK    4  A    between atoms: C_9  and  O_10
REMARK    5  A    between atoms: O_10  and  C_11
REMARK    6  A    between atoms: C_13  and  O_42
REMARK    7  A    between atoms: C_15  and  O_41
REMARK    8  A    between atoms: C_17  and  O_24
REMARK    9  A    between atoms: C_19  and  C_22
REMARK   10  A    between atoms: C_22  and  O_23
REMARK   11  A    between atoms: O_24  and  C_25
REMARK   12  A    between atoms: C_27  and  O_40
REMARK   13  A    between atoms: C_29  and  O_39
REMARK   14  A    between atoms: C_31  and  O_38
REMARK   15  A    between atoms: C_33  and  C_36
REMARK   16  A    between atoms: C_36  and  O_37
REMARK                            x       y       z     vdW  Elec       q    Type
REMARK                         _______ _______ _______ _____ _____    ______ ____
ROOT
ATOM      1  C   UNL     1       4.498  -4.467  -4.820  0.00  0.00    +0.282 C 
ATOM      2  C   UNL     1       4.683  -5.971  -4.606  0.00  0.00    +0.201 C 
ATOM      3  C   UNL     1       3.308  -6.636  -4.487  0.00  0.00    +0.179 C 
ATOM      4  C   UNL     1       2.492  -6.324  -5.746  0.00  0.00    +0.183 C 
ATOM      5  C   UNL     1       2.392  -4.806  -5.916  0.00  0.00    +0.178 C 
ATOM      6  O   UNL     1       3.705  -4.248  -5.989  0.00  0.00    -0.341 OA
ENDROOT
BRANCH   2   7
ATOM      7  O   UNL     1       5.428  -6.194  -3.406  0.00  0.00    -0.384 OA
ATOM      8  H   UNL     1       6.309  -5.797  -3.411  0.00  0.00    +0.210 HD
ENDBRANCH   2   7
BRANCH   3   9
ATOM      9  O   UNL     1       3.469  -8.049  -4.358  0.00  0.00    -0.386 OA
ATOM     10  H   UNL     1       3.983  -8.318  -3.583  0.00  0.00    +0.210 HD
ENDBRANCH   3   9
BRANCH   4  11
ATOM     11  O   UNL     1       3.139  -6.892  -6.886  0.00  0.00    -0.340 OA
BRANCH  11  12
ATOM     12  C   UNL     1       2.724  -8.227  -7.185  0.00  0.00    +0.282 C 
ATOM     13  C   UNL     1       3.645  -8.820  -8.254  0.00  0.00    +0.201 C 
ATOM     14  C   UNL     1       3.159 -10.228  -8.612  0.00  0.00    +0.179 C 
ATOM     15  C   UNL     1       1.702 -10.149  -9.078  0.00  0.00    +0.177 C 
ATOM     16  C   UNL     1       0.856  -9.505  -7.977  0.00  0.00    +0.178 C 
ATOM     17  O   UNL     1       1.381  -8.211  -7.670  0.00  0.00    -0.341 OA
BRANCH  13  18
ATOM     18  O   UNL     1       3.618  -7.994  -9.420  0.00  0.00    -0.384 OA
ATOM     19  H   UNL     1       3.911  -7.085  -9.264  0.00  0.00    +0.210 HD
ENDBRANCH  13  18
BRANCH  14  20
ATOM     20  O   UNL     1       3.970 -10.762  -9.660  0.00  0.00    -0.386 OA
ATOM     21  H   UNL     1       4.907 -10.834  -9.435  0.00  0.00    +0.210 HD
ENDBRANCH  14  20
BRANCH  15  22
ATOM     22  O   UNL     1       1.622  -9.360 -10.266  0.00  0.00    -0.386 OA
ATOM     23  H   UNL     1       2.139  -9.709 -11.005  0.00  0.00    +0.210 HD
ENDBRANCH  15  22
BRANCH  16  24
ATOM     24  C   UNL     1      -0.590  -9.368  -8.458  0.00  0.00    +0.190 C 
BRANCH  24  25
ATOM     25  O   UNL     1      -1.403  -8.875  -7.391  0.00  0.00    -0.392 OA
ATOM     26  H   UNL     1      -2.334  -8.763  -7.625  0.00  0.00    +0.210 HD
ENDBRANCH  24  25
ENDBRANCH  16  24
ENDBRANCH  11  12
ENDBRANCH   4  11
BRANCH   5  27
ATOM     27  C   UNL     1       1.629  -4.487  -7.204  0.00  0.00    +0.190 C 
BRANCH  27  28
ATOM     28  O   UNL     1       1.434  -3.074  -7.304  0.00  0.00    -0.392 OA
ATOM     29  H   UNL     1       0.956  -2.799  -8.098  0.00  0.00    +0.210 HD
ENDBRANCH  27  28
ENDBRANCH   5  27
BRANCH   1  30
ATOM     30  O   UNL     1       3.839  -3.901  -3.685  0.00  0.00    -0.349 OA
BRANCH  30  31
ATOM     31  C   UNL     1       3.717  -2.478  -3.733  0.00  0.00    +0.163 C 
BRANCH  31  32
ATOM     32  C   UNL     1       3.001  -1.985  -2.475  0.00  0.00    +0.028 C 
BRANCH  32  33
ATOM     33  C   UNL     1       2.870  -0.461  -2.526  0.00  0.00    +0.006 C 
BRANCH  33  37
ATOM     34  C   UNL     1      -0.019   1.526   0.010  0.00  0.00    +0.000 C 
ATOM     35  C   UNL     1       1.417   2.055  -0.000  0.00  0.00    +0.000 C 
ATOM     36  C   UNL     1       2.133   1.562  -1.259  0.00  0.00    +0.003 C 
ATOM     37  C   UNL     1       2.154   0.032  -1.268  0.00  0.00    -0.011 C 
ATOM     38  C   UNL     1       0.718  -0.497  -1.257  0.00  0.00    +0.003 C 
ATOM     39  C   UNL     1       0.002  -0.004   0.002  0.00  0.00    +0.000 C 
ENDBRANCH  33  37
ENDBRANCH  32  33
ENDBRANCH  31  32
ENDBRANCH  30  31
ENDBRANCH   1  30
TORSDOF 16
