REMARK  Name = ZINC02532330
REMARK  17 active torsions:
REMARK  status: ('A' for Active; 'I' for Inactive)
REMARK    1  A    between atoms: C_1  and  C_2
REMARK    2  A    between atoms: C_2  and  O_3
REMARK    3  A    between atoms: O_3  and  C_4
REMARK    4  A    between atoms: C_5  and  C_6
REMARK    5  A    between atoms: C_5  and  C_18
REMARK    6  A    between atoms: C_6  and  O_8
REMARK    7  A    between atoms: O_8  and  C_9
REMARK    8  A    between atoms: C_11  and  C_16
REMARK    9  A    between atoms: C_11  and  C_17
REMARK   10  A    between atoms: C_12  and  C_14
REMARK   11  A    between atoms: C_12  and  C_15
REMARK   12  A    between atoms: C_18  and  O_20
REMARK   13  A    between atoms: O_20  and  C_21
REMARK   14  A    between atoms: C_23  and  C_28
REMARK   15  A    between atoms: C_23  and  C_29
REMARK   16  A    between atoms: C_24  and  C_26
REMARK   17  A    between atoms: C_24  and  C_27
REMARK                            x       y       z     vdW  Elec       q    Type
REMARK                         _______ _______ _______ _____ _____    ______ ____
ROOT
ATOM      1  C   UNL     1      -1.210   2.131   0.019  0.00  0.00    +0.209 C 
ATOM      2  C   UNL     1      -0.018   1.464   0.010  0.00  0.00    +0.177 C 
ENDROOT
BRANCH   2   3
ATOM      3  C   UNL     1       0.002  -0.004   0.002  0.00  0.00    +0.349 C 
ATOM      4  O   UNL     1      -1.042  -0.626   0.009  0.00  0.00    -0.245 OA
BRANCH   3   5
ATOM      5  O   UNL     1       1.179  -0.662  -0.013  0.00  0.00    -0.458 OA
BRANCH   5   6
ATOM      6  C   UNL     1       1.122  -2.116  -0.020  0.00  0.00    +0.174 C 
ATOM      7  C   UNL     1       1.153  -2.628   1.420  0.00  0.00    +0.032 C 
ATOM      8  C   UNL     1       1.118  -4.155   1.442  0.00  0.00    -0.070 C 
ATOM      9  C   UNL     1       2.322  -4.190  -0.761  0.00  0.00    -0.070 C 
ATOM     10  C   UNL     1       2.345  -2.664  -0.756  0.00  0.00    +0.032 C 
ATOM     11  C   UNL     1       1.280  -4.685  -1.772  0.00  0.00    -0.010 C 
ATOM     12  C   UNL     1       3.704  -4.674  -1.255  0.00  0.00    -0.010 C 
ATOM     13  C   UNL     1      -0.302  -4.639   1.125  0.00  0.00    -0.010 C 
ATOM     14  C   UNL     1       1.443  -4.606   2.884  0.00  0.00    -0.010 C 
ATOM     15  N   UNL     1       2.127  -4.818   0.574  0.00  0.00    +0.386 N 
ATOM     16  H   UNL     1       1.831  -5.790   0.428  0.00  0.00    -0.084 HD
ATOM     17  H   UNL     1       3.028  -4.805   1.066  0.00  0.00    -0.084 HD
ENDBRANCH   5   6
ENDBRANCH   3   5
ENDBRANCH   2   3
BRANCH   2  18
ATOM     18  C   UNL     1       1.244   2.216   0.002  0.00  0.00    +0.349 C 
ATOM     19  O   UNL     1       1.227   3.432   0.009  0.00  0.00    -0.245 OA
BRANCH  18  20
ATOM     20  O   UNL     1       2.420   1.558  -0.013  0.00  0.00    -0.458 OA
BRANCH  20  21
ATOM     21  C   UNL     1       3.630   2.367  -0.020  0.00  0.00    +0.174 C 
ATOM     22  C   UNL     1       4.055   2.624  -1.465  0.00  0.00    +0.032 C 
ATOM     23  C   UNL     1       5.336   3.453  -1.504  0.00  0.00    -0.070 C 
ATOM     24  C   UNL     1       6.039   2.422   0.676  0.00  0.00    -0.070 C 
ATOM     25  C   UNL     1       4.750   1.604   0.687  0.00  0.00    +0.032 C 
ATOM     26  C   UNL     1       5.934   3.558   1.701  0.00  0.00    -0.010 C 
ATOM     27  C   UNL     1       7.184   1.493   1.138  0.00  0.00    -0.010 C 
ATOM     28  C   UNL     1       5.013   4.913  -1.164  0.00  0.00    -0.010 C 
ATOM     29  C   UNL     1       5.863   3.428  -2.956  0.00  0.00    -0.010 C 
ATOM     30  N   UNL     1       6.446   2.931  -0.661  0.00  0.00    +0.386 N 
ATOM     31  H   UNL     1       7.122   3.691  -0.520  0.00  0.00    -0.084 HD
ATOM     32  H   UNL     1       6.897   2.162  -1.171  0.00  0.00    -0.084 HD
ENDBRANCH  20  21
ENDBRANCH  18  20
ENDBRANCH   2  18
BRANCH   1  33
ATOM     33  O   UNL     1      -2.363   1.445   0.021  0.00  0.00    -0.499 OA
BRANCH  33  35
ATOM     34  C   UNL     1      -4.792   1.270   0.032  0.00  0.00    +0.048 C 
ATOM     35  C   UNL     1      -3.591   2.219   0.031  0.00  0.00    +0.225 C 
ENDBRANCH  33  35
ENDBRANCH   1  33
TORSDOF 8
