REMARK  Name = ZINC00954532
REMARK  7 active torsions:
REMARK  status: ('A' for Active; 'I' for Inactive)
REMARK    1  A    between atoms: C_1  and  C_2
REMARK    2  A    between atoms: C_2  and  C_4
REMARK    3  A    between atoms: C_2  and  O_21
REMARK    4  A    between atoms: N_6  and  C_7
REMARK    5  A    between atoms: C_8  and  C_18
REMARK    6  A    between atoms: C_10  and  C_12
REMARK    7  A    between atoms: O_21  and  C_22
REMARK                            x       y       z     vdW  Elec       q    Type
REMARK                         _______ _______ _______ _____ _____    ______ ____
ROOT
ATOM      1  C   UNL     1       3.324  -5.856  -1.951  0.00  0.00    +0.085 A 
ATOM      2  C   UNL     1       4.311  -6.770  -2.313  0.00  0.00    +0.066 A 
ATOM      3  C   UNL     1       3.925  -7.873  -3.074  0.00  0.00    +0.031 A 
ATOM      4  C   UNL     1       2.611  -7.981  -3.409  0.00  0.00    +0.022 A 
ATOM      5  S   UNL     1       1.892  -6.535  -2.655  0.00  0.00    -0.073 S 
ENDROOT
BRANCH   4   6
ATOM      6  C   UNL     1       1.944  -9.038  -4.199  0.00  0.00    -0.011 A 
ATOM      7  C   UNL     1       2.685 -10.103  -4.712  0.00  0.00    +0.009 A 
ATOM      8  C   UNL     1       2.056 -11.089  -5.443  0.00  0.00    +0.001 A 
ATOM      9  C   UNL     1       0.694 -11.017  -5.678  0.00  0.00    +0.000 A 
ATOM     10  C   UNL     1      -0.046  -9.961  -5.177  0.00  0.00    +0.001 A 
ATOM     11  C   UNL     1       0.570  -8.972  -4.439  0.00  0.00    +0.009 A 
ENDBRANCH   4   6
BRANCH   2  12
ATOM     12  C   UNL     1       5.708  -6.577  -1.909  0.00  0.00    +0.244 C 
ATOM     13  O   UNL     1       6.022  -5.606  -1.245  0.00  0.00    -0.270 OA
ATOM     14  N   UNL     1       6.645  -7.476  -2.272  0.00  0.00    -0.325 N 
ATOM     15  H   UNL     1       6.395  -8.250  -2.801  0.00  0.00    +0.145 HD
ATOM     16  H   UNL     1       7.568  -7.349  -2.005  0.00  0.00    +0.145 HD
ENDBRANCH   2  12
BRANCH   1  19
ATOM     17  C   UNL     1       2.370  -3.932  -0.957  0.00  0.00    +0.258 C 
ATOM     18  O   UNL     1       1.284  -4.261  -1.383  0.00  0.00    -0.271 OA
ATOM     19  N   UNL     1       3.452  -4.695  -1.207  0.00  0.00    -0.276 N 
ATOM     20  H   UNL     1       4.321  -4.432  -0.866  0.00  0.00    +0.155 HD
BRANCH  17  22
ATOM     21  C   UNL     1       3.051  -3.011   1.243  0.00  0.00    +0.062 C 
ATOM     22  C   UNL     1       2.511  -2.668  -0.147  0.00  0.00    +0.256 C 
BRANCH  22  23
ATOM     23  O   UNL     1       1.234  -2.039  -0.020  0.00  0.00    -0.480 OA
BRANCH  23  24
ATOM     24  C   UNL     1       1.226  -0.699   0.200  0.00  0.00    +0.123 A 
ATOM     25  C   UNL     1       2.419  -0.021   0.404  0.00  0.00    +0.046 A 
ATOM     26  C   UNL     1       2.409   1.342   0.627  0.00  0.00    +0.005 A 
ATOM     27  C   UNL     1       1.211   2.032   0.648  0.00  0.00    +0.015 A 
ATOM     28  C   UNL     1       0.019   1.359   0.446  0.00  0.00    +0.021 A 
ATOM     29  C   UNL     1       0.025  -0.005   0.222  0.00  0.00    +0.061 A 
ATOM     30 BR   UNL     1      -1.618   2.305   0.475  0.00  0.00    -0.050 Br
ENDBRANCH  23  24
ENDBRANCH  22  23
ENDBRANCH  17  22
ENDBRANCH   1  19
TORSDOF 6
