REMARK  Name = ZINC21238350
REMARK  6 active torsions:
REMARK  status: ('A' for Active; 'I' for Inactive)
REMARK    1  A    between atoms: C_1  and  C_2
REMARK    2  A    between atoms: C_2  and  O_3
REMARK    3  A    between atoms: O_3  and  C_4
REMARK    4  A    between atoms: C_6  and  C_12
REMARK    5  A    between atoms: C_9  and  O_10
REMARK    6  A    between atoms: C_17  and  C_22
REMARK                            x       y       z     vdW  Elec       q    Type
REMARK                         _______ _______ _______ _____ _____    ______ ____
ROOT
ATOM      1  C   UNL     1       3.672   2.193  -0.021  0.00  0.00    +0.136 C 
ATOM      2  C   UNL     1       3.935   2.703   1.377  0.00  0.00    +0.036 C 
ATOM      3  C   UNL     1       3.866   3.980   1.778  0.00  0.00    +0.017 C 
ATOM      4  C   UNL     1       4.111   4.342   3.234  0.00  0.00    +0.059 C 
ATOM      5  C   UNL     1       5.154   3.401   3.834  0.00  0.00    +0.032 C 
ATOM      6  C   UNL     1       4.609   1.972   3.732  0.00  0.00    +0.088 C 
ATOM      7  C   UNL     1       4.289   1.683   2.296  0.00  0.00    +0.163 C 
ATOM      8  O   UNL     1       4.333   0.533   1.906  0.00  0.00    -0.292 OA
ATOM      9  N   UNL     1       3.571   5.036   0.977  0.00  0.00    -0.316 N 
ATOM     10  C   UNL     1       2.514   5.075   0.073  0.00  0.00    +0.052 A 
ATOM     11  C   UNL     1       1.477   5.983   0.185  0.00  0.00    +0.025 A 
ATOM     12  C   UNL     1       0.497   6.018  -0.793  0.00  0.00    +0.002 A 
ATOM     13  C   UNL     1       0.558   5.152  -1.870  0.00  0.00    +0.002 A 
ATOM     14  C   UNL     1       1.583   4.229  -1.971  0.00  0.00    +0.025 A 
ATOM     15  C   UNL     1       2.556   4.178  -0.984  0.00  0.00    +0.049 A 
ATOM     16  N   UNL     1       3.578   3.233  -1.023  0.00  0.00    -0.331 N 
ATOM     17  H   UNL     1       4.189   5.946   1.017  0.00  0.00    +0.152 HD
ATOM     18  H   UNL     1       4.321   3.287  -1.832  0.00  0.00    +0.147 HD
ENDROOT
BRANCH   1  21
ATOM     19  C   UNL     1       1.202  -0.656  -0.261  0.00  0.00    +0.163 A 
ATOM     20  C   UNL     1       2.389   0.059  -0.268  0.00  0.00    +0.055 A 
ATOM     21  C   UNL     1       2.380   1.417  -0.013  0.00  0.00    -0.018 A 
ATOM     22  C   UNL     1       1.188   2.066   0.250  0.00  0.00    +0.029 A 
ATOM     23  C   UNL     1      -0.001   1.359   0.258  0.00  0.00    +0.086 A 
ATOM     24  C   UNL     1       0.002  -0.004   0.003  0.00  0.00    +0.177 A 
ATOM     25 CL   UNL     1      -1.497   2.178   0.581  0.00  0.00    -0.080 Cl
BRANCH  24  26
ATOM     26  O   UNL     1      -1.165  -0.702   0.011  0.00  0.00    -0.502 OA
ATOM     27  H   UNL     1      -2.114  -0.185   0.221  0.00  0.00    +0.292 HD
ENDBRANCH  24  26
BRANCH  19  28
ATOM     28  O   UNL     1       1.210  -1.993  -0.512  0.00  0.00    -0.489 OA
BRANCH  28  30
ATOM     29  C   UNL     1       2.289  -4.092  -1.031  0.00  0.00    +0.048 C 
ATOM     30  C   UNL     1       2.479  -2.596  -0.775  0.00  0.00    +0.226 C 
ENDBRANCH  28  30
ENDBRANCH  19  28
ENDBRANCH   1  21
BRANCH   5  31
ATOM     31  C   UNL     1       5.390   3.756   5.280  0.00  0.00    -0.043 A 
ATOM     32  C   UNL     1       4.343   3.711   6.182  0.00  0.00    +0.007 A 
ATOM     33  C   UNL     1       4.559   4.031   7.508  0.00  0.00    +0.038 A 
ATOM     34  C   UNL     1       5.823   4.406   7.933  0.00  0.00    +0.123 A 
ATOM     35  C   UNL     1       6.870   4.455   7.028  0.00  0.00    +0.038 A 
ATOM     36  C   UNL     1       6.652   4.130   5.702  0.00  0.00    +0.007 A 
ATOM     37  F   UNL     1       6.034   4.724   9.229  0.00  0.00    -0.205 F 
ENDBRANCH   5  31
TORSDOF 5
