REMARK  Name = ZINC03595665
REMARK  3 active torsions:
REMARK  status: ('A' for Active; 'I' for Inactive)
REMARK    1  A    between atoms: C_1  and  C_2
REMARK    2  A    between atoms: N_11  and  C_15
REMARK    3  A    between atoms: C_15  and  C_16
REMARK                            x       y       z     vdW  Elec       q    Type
REMARK                         _______ _______ _______ _____ _____    ______ ____
ROOT
ATOM      1  C   UNL     1       0.837   7.476   0.561  0.00  0.00    +0.214 C 
ENDROOT
BRANCH   1  11
ATOM      2  C   UNL     1       2.608  11.135   2.330  0.00  0.00    +0.010 C 
ATOM      3  C   UNL     1       3.424  10.270   3.293  0.00  0.00    +0.018 C 
ATOM      4  C   UNL     1       2.758  10.274   4.671  0.00  0.00    +0.006 C 
ATOM      5  C   UNL     1       3.563   9.393   5.628  0.00  0.00    +0.000 C 
ATOM      6  C   UNL     1       3.599   7.959   5.094  0.00  0.00    +0.003 C 
ATOM      7  C   UNL     1       4.269   7.946   3.718  0.00  0.00    +0.035 C 
ATOM      8  C   UNL     1       3.491   8.842   2.762  0.00  0.00    +0.115 C 
ATOM      9  C   UNL     1       2.097   8.301   2.540  0.00  0.00    +0.247 C 
ATOM     10  O   UNL     1       1.230   8.143   3.373  0.00  0.00    -0.273 OA
ATOM     11  N   UNL     1       2.022   8.027   1.221  0.00  0.00    -0.215 N 
ATOM     12  C   UNL     1       3.164   8.327   0.590  0.00  0.00    +0.310 C 
ATOM     13  O   UNL     1       3.338   8.171  -0.603  0.00  0.00    -0.252 OA
ATOM     14  N   UNL     1       4.099   8.819   1.425  0.00  0.00    -0.285 N 
ATOM     15  H   UNL     1       4.996   9.103   1.190  0.00  0.00    +0.151 HD
ENDBRANCH   1  11
BRANCH   1  16
ATOM     16  C   UNL     1       0.908   5.970   0.575  0.00  0.00    +0.238 C 
ATOM     17  O   UNL     1       1.856   5.413   1.086  0.00  0.00    -0.273 OA
ATOM     18  N   UNL     1      -0.082   5.244   0.019  0.00  0.00    -0.260 N 
ATOM     19  C   UNL     1      -1.242   5.895  -0.607  0.00  0.00    +0.209 C 
ATOM     20  C   UNL     1      -2.493   5.149  -0.219  0.00  0.00    +0.235 C 
ATOM     21  O   UNL     1      -3.548   5.743  -0.151  0.00  0.00    -0.274 OA
ATOM     22  N   UNL     1      -2.453   3.831   0.052  0.00  0.00    -0.283 N 
ATOM     23  C   UNL     1      -1.241   3.132   0.030  0.00  0.00    +0.055 A 
ATOM     24  C   UNL     1      -0.038   3.841   0.019  0.00  0.00    +0.058 A 
ATOM     25  C   UNL     1       1.168   3.163   0.005  0.00  0.00    +0.025 A 
ATOM     26  C   UNL     1       1.177   1.780   0.000  0.00  0.00    +0.002 A 
ATOM     27  C   UNL     1      -0.013   1.076   0.008  0.00  0.00    +0.002 A 
ATOM     28  C   UNL     1      -1.222   1.747   0.017  0.00  0.00    +0.025 A 
ATOM     29  H   UNL     1      -3.274   3.360   0.265  0.00  0.00    +0.155 HD
ENDBRANCH   1  16
TORSDOF 2
