REMARK  Name = ZINC57344492
REMARK  5 active torsions:
REMARK  status: ('A' for Active; 'I' for Inactive)
REMARK    1  A    between atoms: C_3  and  O_25
REMARK    2  A    between atoms: C_6  and  C_7
REMARK    3  A    between atoms: C_7  and  N_8
REMARK    4  A    between atoms: C_21  and  N_24
REMARK    5  A    between atoms: O_25  and  C_26
REMARK                            x       y       z     vdW  Elec       q    Type
REMARK                         _______ _______ _______ _____ _____    ______ ____
ROOT
ATOM      1  N   UNL     1      -1.610  -0.830  -1.452  0.00  0.00    -0.276 N 
ATOM      2  C   UNL     1      -2.345   0.157  -2.018  0.00  0.00    +0.270 A 
ATOM      3  O   UNL     1      -2.452   1.245  -1.478  0.00  0.00    -0.266 OA
ATOM      4  C   UNL     1      -2.974  -0.103  -3.233  0.00  0.00    +0.102 A 
ATOM      5  C   UNL     1      -2.860  -1.352  -3.869  0.00  0.00    +0.087 A 
ATOM      6  C   UNL     1      -3.545  -1.475  -5.086  0.00  0.00    +0.036 A 
ATOM      7  C   UNL     1      -4.254  -0.435  -5.574  0.00  0.00    +0.048 A 
ATOM      8  S   UNL     1      -4.008   0.826  -4.334  0.00  0.00    -0.090 S 
ATOM      9  N   UNL     1      -2.096  -2.291  -3.222  0.00  0.00    -0.215 NA
ATOM     10  C   UNL     1      -1.506  -2.034  -2.086  0.00  0.00    +0.202 A 
ATOM     11  N   UNL     1      -0.753  -3.022  -1.500  0.00  0.00    -0.301 N 
ATOM     12  C   UNL     1       0.274  -3.737  -2.270  0.00  0.00    +0.106 C 
ATOM     13  C   UNL     1       0.018  -5.243  -2.154  0.00  0.00    +0.003 C 
ATOM     14  C   UNL     1      -0.044  -5.633  -0.675  0.00  0.00    -0.072 C 
ATOM     15  C   UNL     1      -1.200  -4.894   0.001  0.00  0.00    +0.003 C 
ATOM     16  C   UNL     1      -0.955  -3.380  -0.089  0.00  0.00    +0.106 C 
ENDROOT
BRANCH  14  17
ATOM     17  N   UNL     1      -0.256  -7.082  -0.561  0.00  0.00    +0.380 N 
ATOM     18  H   UNL     1       0.506  -7.570  -1.006  0.00  0.00    -0.090 HD
ATOM     19  H   UNL     1      -0.297  -7.340   0.414  0.00  0.00    -0.090 HD
ATOM     20  H   UNL     1      -1.124  -7.332  -1.012  0.00  0.00    -0.090 HD
ENDBRANCH  14  17
BRANCH   1  21
ATOM     21  C   UNL     1      -0.929  -0.606  -0.174  0.00  0.00    +0.163 C 
BRANCH  21  27
ATOM     22  C   UNL     1       0.727   1.207  -0.659  0.00  0.00    +0.009 A 
ATOM     23  C   UNL     1       2.017   1.642  -0.896  0.00  0.00    +0.046 A 
ATOM     24  C   UNL     1       3.064   0.732  -0.904  0.00  0.00    +0.130 A 
ATOM     25  C   UNL     1       2.812  -0.613  -0.675  0.00  0.00    +0.046 A 
ATOM     26  C   UNL     1       1.521  -1.043  -0.440  0.00  0.00    +0.009 A 
ATOM     27  C   UNL     1       0.479  -0.134  -0.432  0.00  0.00    -0.027 A 
BRANCH  24  28
ATOM     28  O   UNL     1       4.333   1.157  -1.137  0.00  0.00    -0.406 OA
BRANCH  28  29
ATOM     29  C   UNL     1       5.361   0.165  -1.131  0.00  0.00    +0.575 C 
ATOM     30  F   UNL     1       5.096  -0.787  -2.121  0.00  0.00    -0.133 F 
ATOM     31  F   UNL     1       6.596   0.771  -1.385  0.00  0.00    -0.133 F 
ATOM     32  F   UNL     1       5.398  -0.461   0.120  0.00  0.00    -0.133 F 
ENDBRANCH  28  29
ENDBRANCH  24  28
ENDBRANCH  21  27
ENDBRANCH   1  21
TORSDOF 5
