REMARK  Name = ZINC20745389
REMARK  6 active torsions:
REMARK  status: ('A' for Active; 'I' for Inactive)
REMARK    1  A    between atoms: C_1  and  C_2
REMARK    2  A    between atoms: C_5  and  C_31
REMARK    3  A    between atoms: C_6  and  N_8
REMARK    4  A    between atoms: C_15  and  O_17
REMARK    5  A    between atoms: N_24  and  C_27
REMARK    6  A    between atoms: C_27  and  C_28
REMARK                            x       y       z     vdW  Elec       q    Type
REMARK                         _______ _______ _______ _____ _____    ______ ____
ROOT
ATOM      1  N   UNL     1       0.286  -3.105   2.170  0.00  0.00    -0.214 N 
ATOM      2  C   UNL     1       0.354  -2.739   3.470  0.00  0.00    +0.164 A 
ATOM      3  C   UNL     1       0.472  -3.906   4.217  0.00  0.00    +0.036 A 
ATOM      4  C   UNL     1       0.481  -4.973   3.338  0.00  0.00    +0.142 A 
ATOM      5  N   UNL     1       0.367  -4.506   2.115  0.00  0.00    -0.173 NA
ATOM      6  C   UNL     1       0.558  -3.866   5.717  0.00  0.00    +0.112 C 
ATOM      7  C   UNL     1       1.189  -2.539   6.136  0.00  0.00    +0.121 C 
ATOM      8  C   UNL     1       0.663  -1.398   5.313  0.00  0.00    +0.191 C 
ATOM      9  N   UNL     1       0.304  -1.515   4.069  0.00  0.00    -0.197 NA
ATOM     10  C   UNL     1      -0.785  -4.050   6.346  0.00  0.00    -0.006 A 
ATOM     11  C   UNL     1      -1.947  -3.313   6.257  0.00  0.00    +0.007 A 
ATOM     12  C   UNL     1      -3.041  -3.769   6.985  0.00  0.00    +0.000 A 
ATOM     13  C   UNL     1      -2.964  -4.909   7.759  0.00  0.00    +0.002 A 
ATOM     14  C   UNL     1      -1.800  -5.655   7.853  0.00  0.00    +0.024 A 
ATOM     15  C   UNL     1      -0.694  -5.208   7.128  0.00  0.00    +0.041 A 
ATOM     16  N   UNL     1       0.577  -5.750   7.040  0.00  0.00    -0.261 N 
ATOM     17  C   UNL     1       1.380  -5.026   6.231  0.00  0.00    +0.236 C 
ATOM     18  O   UNL     1       2.540  -5.261   5.968  0.00  0.00    -0.274 OA
ENDROOT
BRANCH   1  24
ATOM     19  C   UNL     1       1.716   0.944  -0.228  0.00  0.00    +0.044 C 
ATOM     20  C   UNL     1       0.833  -0.272  -0.112  0.00  0.00    -0.048 A 
ATOM     21  C   UNL     1      -0.110  -0.536  -1.089  0.00  0.00    +0.004 A 
ATOM     22  C   UNL     1      -0.922  -1.651  -0.986  0.00  0.00    +0.006 A 
ATOM     23  C   UNL     1      -0.793  -2.504   0.093  0.00  0.00    -0.025 A 
ATOM     24  C   UNL     1       0.153  -2.241   1.075  0.00  0.00    +0.071 A 
ATOM     25  C   UNL     1       0.970  -1.124   0.966  0.00  0.00    +0.031 A 
ATOM     26  C   UNL     1      -1.679  -3.718   0.204  0.00  0.00    +0.046 C 
ENDBRANCH   1  24
BRANCH   8  27
ATOM     27  O   UNL     1       0.556  -0.186   5.896  0.00  0.00    -0.495 OA
ATOM     28  H   UNL     1       0.211   0.503   5.311  0.00  0.00    +0.293 HD
ENDBRANCH   8  27
BRANCH  16  29
ATOM     29  C   UNL     1       1.000  -6.965   7.739  0.00  0.00    +0.209 C 
BRANCH  29  30
ATOM     30  C   UNL     1       0.733  -8.165   6.868  0.00  0.00    +0.228 C 
ATOM     31  O   UNL     1       0.238  -8.020   5.770  0.00  0.00    -0.274 OA
ATOM     32  N   UNL     1       1.044  -9.400   7.309  0.00  0.00    -0.328 N 
ATOM     33  H   UNL     1       1.440  -9.517   8.187  0.00  0.00    +0.145 HD
ATOM     34  H   UNL     1       0.873 -10.173   6.747  0.00  0.00    +0.145 HD
ENDBRANCH  29  30
ENDBRANCH  16  29
TORSDOF 4
