REMARK  Name = ZINC12750123
REMARK  5 active torsions:
REMARK  status: ('A' for Active; 'I' for Inactive)
REMARK    1  A    between atoms: N_12  and  C_13
REMARK    2  A    between atoms: C_13  and  C_14
REMARK    3  A    between atoms: N_16  and  C_17
REMARK    4  A    between atoms: C_17  and  C_18
REMARK    5  A    between atoms: C_18  and  N_59
REMARK                            x       y       z     vdW  Elec       q    Type
REMARK                         _______ _______ _______ _____ _____    ______ ____
ROOT
ATOM      1  C   UNL     1       0.251   0.906  -2.284  0.00  0.00    +0.230 C 
ATOM      2  O   UNL     1       1.271   0.253  -2.204  0.00  0.00    -0.274 OA
ATOM      3  N   UNL     1      -0.397   1.283  -1.164  0.00  0.00    -0.315 N 
ATOM      4  H   UNL     1      -1.212   1.804  -1.228  0.00  0.00    +0.149 HD
ENDROOT
BRANCH   1   5
ATOM      5  C   UNL     1      -0.290   1.294  -3.635  0.00  0.00    +0.198 C 
BRANCH   5  17
ATOM      6  C   UNL     1       3.012  -0.667  -8.127  0.00  0.00    +0.001 A 
ATOM      7  C   UNL     1       2.533  -0.321  -9.378  0.00  0.00    +0.002 A 
ATOM      8  C   UNL     1       1.368   0.426  -9.481  0.00  0.00    +0.030 A 
ATOM      9  C   UNL     1       0.710   0.809  -8.349  0.00  0.00    +0.123 A 
ATOM     10  C   UNL     1       1.173   0.480  -7.068  0.00  0.00    +0.043 A 
ATOM     11  C   UNL     1       2.350  -0.281  -6.983  0.00  0.00    +0.013 A 
ATOM     12  C   UNL     1       0.294   0.999  -6.009  0.00  0.00    +0.150 C 
ATOM     13  N   UNL     1      -0.757   1.680  -6.338  0.00  0.00    -0.113 NA
ATOM     14  S   UNL     1      -0.761   1.737  -8.010  0.00  0.00    +0.101 S 
ATOM     15  O   UNL     1      -1.870   0.973  -8.467  0.00  0.00    -0.146 OA
ATOM     16  O   UNL     1      -0.525   3.083  -8.399  0.00  0.00    -0.146 OA
ATOM     17  N   UNL     1       0.588   0.768  -4.683  0.00  0.00    -0.319 N 
ATOM     18  H   UNL     1       1.377   0.258  -4.444  0.00  0.00    +0.148 HD
ENDBRANCH   5  17
ENDBRANCH   1   5
BRANCH   3  19
ATOM     19  C   UNL     1       0.129   0.905   0.150  0.00  0.00    +0.092 C 
BRANCH  19  20
ATOM     20  C   UNL     1      -0.867   1.315   1.236  0.00  0.00    -0.050 C 
ATOM     21  C   UNL     1      -1.215   2.796   1.076  0.00  0.00    -0.010 C 
ATOM     22  C   UNL     1       0.057   3.636   1.208  0.00  0.00    -0.001 C 
ATOM     23  C   UNL     1       0.680   3.404   2.586  0.00  0.00    -0.000 C 
ATOM     24  C   UNL     1       1.028   1.922   2.746  0.00  0.00    -0.001 C 
ATOM     25  C   UNL     1      -0.244   1.083   2.614  0.00  0.00    -0.010 C 
BRANCH  20  31
ATOM     26  C   UNL     1      -1.788  -0.924   1.222  0.00  0.00    -0.078 C 
ATOM     27  C   UNL     1      -3.094  -1.722   1.232  0.00  0.00    -0.019 C 
ATOM     28  C   UNL     1      -3.865  -1.444  -0.061  0.00  0.00    -0.004 C 
ATOM     29  C   UNL     1      -4.124   0.061  -0.180  0.00  0.00    -0.019 C 
ATOM     30  C   UNL     1      -2.788   0.806  -0.148  0.00  0.00    -0.078 C 
ATOM     31  N   UNL     1      -2.107   0.517   1.132  0.00  0.00    +0.384 N 
ATOM     32  H   UNL     1      -2.732   0.769   1.906  0.00  0.00    -0.081 HD
ENDBRANCH  20  31
ENDBRANCH  19  20
ENDBRANCH   3  19
TORSDOF 5
