REMARK  Name = ZINC01755661
REMARK  5 active torsions:
REMARK  status: ('A' for Active; 'I' for Inactive)
REMARK    1  A    between atoms: C_5  and  N_7
REMARK    2  A    between atoms: N_10  and  N_11
REMARK    3  A    between atoms: C_12  and  C_14
REMARK    4  A    between atoms: C_14  and  N_15
REMARK    5  A    between atoms: C_16  and  C_18
REMARK                            x       y       z     vdW  Elec       q    Type
REMARK                         _______ _______ _______ _____ _____    ______ ____
ROOT
ATOM      1  N   UNL     1       1.125   3.301   0.031  0.00  0.00    -0.232 N 
ATOM      2  C   UNL     1       2.284   3.990   0.034  0.00  0.00    +0.246 C 
ATOM      3  O   UNL     1       3.342   3.397   0.028  0.00  0.00    -0.273 OA
ATOM      4  H   UNL     1       0.279   3.775   0.036  0.00  0.00    +0.173 HD
ENDROOT
BRANCH   1   8
ATOM      5  N   UNL     1      -1.191   1.870   0.018  0.00  0.00    -0.266 N 
ATOM      6  C   UNL     1      -0.015   1.211   0.016  0.00  0.00    +0.320 C 
ATOM      7  O   UNL     1       0.001  -0.005   0.007  0.00  0.00    -0.251 OA
ATOM      8  N   UNL     1       1.144   1.900   0.020  0.00  0.00    -0.218 N 
ATOM      9  H   UNL     1      -1.205   2.837   0.091  0.00  0.00    +0.157 HD
ATOM     10  H   UNL     1       1.990   1.426   0.015  0.00  0.00    +0.174 HD
BRANCH   5  15
ATOM     11  C   UNL     1      -3.699  -0.793   0.400  0.00  0.00    +0.002 A 
ATOM     12  C   UNL     1      -4.767  -0.250  -0.291  0.00  0.00    +0.003 A 
ATOM     13  C   UNL     1      -4.652   0.995  -0.880  0.00  0.00    +0.040 A 
ATOM     14  C   UNL     1      -3.467   1.702  -0.780  0.00  0.00    +0.145 A 
ATOM     15  C   UNL     1      -2.392   1.157  -0.086  0.00  0.00    +0.070 A 
ATOM     16  C   UNL     1      -2.511  -0.096   0.499  0.00  0.00    +0.026 A 
ATOM     17  F   UNL     1      -3.354   2.919  -1.356  0.00  0.00    -0.204 F 
ENDBRANCH   5  15
ENDBRANCH   1   8
BRANCH   2  18
ATOM     18  C   UNL     1       2.264   5.497   0.046  0.00  0.00    +0.202 C 
BRANCH  18  19
ATOM     19  N   UNL     1       3.639   6.003   0.048  0.00  0.00    -0.303 N 
ATOM     20  C   UNL     1       3.867   7.331   0.058  0.00  0.00    +0.246 C 
ATOM     21  O   UNL     1       2.933   8.109   0.066  0.00  0.00    -0.270 OA
ATOM     22  H   UNL     1       4.384   5.383   0.042  0.00  0.00    +0.150 HD
BRANCH  20  23
ATOM     23  C   UNL     1       5.253   7.842   0.060  0.00  0.00    +0.055 A 
ATOM     24  C   UNL     1       6.329   6.951   0.051  0.00  0.00    +0.016 A 
ATOM     25  C   UNL     1       7.620   7.433   0.052  0.00  0.00    +0.021 A 
ATOM     26  C   UNL     1       7.853   8.799   0.062  0.00  0.00    +0.042 A 
ATOM     27  C   UNL     1       6.793   9.689   0.071  0.00  0.00    +0.040 A 
ATOM     28  C   UNL     1       5.494   9.218   0.064  0.00  0.00    +0.054 A 
ATOM     29 CL   UNL     1       4.165  10.334   0.068  0.00  0.00    -0.083 Cl
ATOM     30 CL   UNL     1       9.483   9.398   0.064  0.00  0.00    -0.083 Cl
ENDBRANCH  20  23
ENDBRANCH  18  19
ENDBRANCH   2  18
TORSDOF 5
