REMARK  Name = ZINC06349442
REMARK  6 active torsions:
REMARK  status: ('A' for Active; 'I' for Inactive)
REMARK    1  A    between atoms: C_1  and  C_2
REMARK    2  A    between atoms: C_2  and  N_3
REMARK    3  A    between atoms: N_7  and  C_8
REMARK    4  A    between atoms: C_8  and  C_9
REMARK    5  A    between atoms: C_14  and  S_16
REMARK    6  A    between atoms: S_16  and  C_17
REMARK                            x       y       z     vdW  Elec       q    Type
REMARK                         _______ _______ _______ _____ _____    ______ ____
ROOT
ATOM      1  N   UNL     1      -0.749   3.044   1.275  0.00  0.00    -0.315 N 
ATOM      2  C   UNL     1      -1.341   3.715   2.312  0.00  0.00    +0.199 A 
ATOM      3  N   UNL     1      -1.351   5.089   2.304  0.00  0.00    -0.300 N 
ATOM      4  C   UNL     1      -2.327   5.756   3.045  0.00  0.00    +0.200 A 
ATOM      5  N   UNL     1      -2.798   6.924   2.711  0.00  0.00    -0.315 N 
ATOM      6  N   UNL     1      -2.749   5.064   4.167  0.00  0.00    -0.166 N 
ATOM      7  C   UNL     1      -2.532   3.707   4.271  0.00  0.00    +0.259 A 
ATOM      8  N   UNL     1      -1.896   3.026   3.295  0.00  0.00    -0.179 NA
ATOM      9  N   UNL     1      -3.040   3.319   5.415  0.00  0.00    -0.183 NA
ATOM     10  C   UNL     1      -3.569   4.373   6.054  0.00  0.00    +0.212 A 
ATOM     11  N   UNL     1      -3.407   5.457   5.320  0.00  0.00    -0.134 NA
ATOM     12  H   UNL     1      -0.288   3.605   0.449  0.00  0.00    +0.149 HD
ATOM     13  H   UNL     1      -3.568   7.405   3.333  0.00  0.00    +0.149 HD
ATOM     14  H   UNL     1      -0.600   5.642   1.721  0.00  0.00    +0.171 HD
ENDROOT
BRANCH   1  16
ATOM     15  C   UNL     1      -0.013   1.086   0.008  0.00  0.00    +0.024 C 
ATOM     16  C   UNL     1      -0.729   1.579   1.267  0.00  0.00    +0.101 C 
ENDBRANCH   1  16
BRANCH   5  17
ATOM     17  C   UNL     1      -2.302   7.598   1.508  0.00  0.00    +0.101 C 
ATOM     18  C   UNL     1      -3.464   7.834   0.541  0.00  0.00    +0.024 C 
ENDBRANCH   5  17
BRANCH  10  19
ATOM     19  S   UNL     1      -4.357   4.318   7.629  0.00  0.00    -0.073 S 
BRANCH  19  20
ATOM     20  C   UNL     1      -4.261   2.571   8.107  0.00  0.00    +0.126 C 
ATOM     21  C   UNL     1      -5.025   2.346   9.418  0.00  0.00    +0.027 C 
ATOM     22  C   UNL     1      -5.010   0.860   9.765  0.00  0.00    +0.037 C 
ATOM     23  C   UNL     1      -3.605   0.324   9.808  0.00  0.00    -0.037 A 
ATOM     24  C   UNL     1      -3.343  -0.821  10.538  0.00  0.00    +0.004 A 
ATOM     25  C   UNL     1      -2.062  -1.337  10.593  0.00  0.00    +0.000 A 
ATOM     26  C   UNL     1      -1.026  -0.717   9.916  0.00  0.00    +0.001 A 
ATOM     27  C   UNL     1      -1.268   0.426   9.184  0.00  0.00    +0.011 A 
ATOM     28  C   UNL     1      -2.561   0.953   9.128  0.00  0.00    +0.022 A 
ATOM     29  C   UNL     1      -2.817   2.183   8.352  0.00  0.00    +0.177 C 
ATOM     30  O   UNL     1      -1.905   2.858   7.927  0.00  0.00    -0.291 OA
ENDBRANCH  19  20
ENDBRANCH  10  19
TORSDOF 4
