REMARK  Name = ZINC39448885
REMARK  8 active torsions:
REMARK  status: ('A' for Active; 'I' for Inactive)
REMARK    1  A    between atoms: C_1  and  O_2
REMARK    2  A    between atoms: O_2  and  C_3
REMARK    3  A    between atoms: C_7  and  C_11
REMARK    4  A    between atoms: C_8  and  O_9
REMARK    5  A    between atoms: O_9  and  C_10
REMARK    6  A    between atoms: C_16  and  S_18
REMARK    7  A    between atoms: S_18  and  C_19
REMARK    8  A    between atoms: C_19  and  C_20
REMARK                            x       y       z     vdW  Elec       q    Type
REMARK                         _______ _______ _______ _____ _____    ______ ____
ROOT
ATOM      1  C   UNL     1       1.329  -4.110  -2.298  0.00  0.00    +0.204 C 
ATOM      2  N   UNL     1       1.493  -4.676  -0.954  0.00  0.00    -0.336 N 
ATOM      3  C   UNL     1       2.686  -4.930  -0.485  0.00  0.00    +0.190 C 
ATOM      4  N   UNL     1       3.796  -4.731  -1.215  0.00  0.00    -0.195 NA
ATOM      5  C   UNL     1       3.722  -4.511  -2.516  0.00  0.00    +0.159 C 
ATOM      6  N   UNL     1       2.483  -4.517  -3.115  0.00  0.00    -0.300 N 
ATOM      7  N   UNL     1       2.809  -5.418   0.801  0.00  0.00    -0.329 N 
ATOM      8  H   UNL     1       2.018  -5.568   1.341  0.00  0.00    +0.145 HD
ATOM      9  H   UNL     1       3.688  -5.612   1.163  0.00  0.00    +0.145 HD
ATOM     10  H   UNL     1       2.373  -4.781  -4.042  0.00  0.00    +0.150 HD
ATOM     11  H   UNL     1       0.711  -4.862  -0.410  0.00  0.00    +0.164 HD
ENDROOT
BRANCH   1  16
ATOM     12  C   UNL     1       0.606  -0.608  -1.056  0.00  0.00    +0.162 A 
ATOM     13  C   UNL     1       1.173   0.159  -2.062  0.00  0.00    +0.049 A 
ATOM     14  C   UNL     1       1.787  -0.456  -3.137  0.00  0.00    +0.004 A 
ATOM     15  C   UNL     1       1.837  -1.836  -3.212  0.00  0.00    +0.011 A 
ATOM     16  C   UNL     1       1.273  -2.606  -2.212  0.00  0.00    +0.038 A 
ATOM     17  C   UNL     1       0.662  -1.996  -1.129  0.00  0.00    +0.168 A 
BRANCH  12  19
ATOM     18  C   UNL     1      -0.017   1.425   0.010  0.00  0.00    +0.277 C 
ATOM     19  O   UNL     1       0.002  -0.004   0.002  0.00  0.00    -0.491 OA
ENDBRANCH  12  19
BRANCH  17  20
ATOM     20  O   UNL     1       0.112  -2.753  -0.142  0.00  0.00    -0.491 OA
ATOM     21  C   UNL     1      -1.259  -3.125  -0.297  0.00  0.00    +0.277 C 
ENDBRANCH  17  20
ENDBRANCH   1  16
BRANCH   5  22
ATOM     22  S   UNL     1       5.178  -4.217  -3.463  0.00  0.00    -0.081 S 
BRANCH  22  23
ATOM     23  C   UNL     1       6.519  -4.309  -2.246  0.00  0.00    +0.173 C 
BRANCH  23  24
ATOM     24  C   UNL     1       7.839  -4.072  -2.934  0.00  0.00    +0.234 C 
ATOM     25  O   UNL     1       7.872  -3.861  -4.128  0.00  0.00    -0.274 OA
ATOM     26  N   UNL     1       8.984  -4.093  -2.222  0.00  0.00    -0.239 N 
ATOM     27  C   UNL     1       8.973  -4.340  -0.842  0.00  0.00    +0.044 A 
ATOM     28  C   UNL     1       8.384  -5.518  -0.396  0.00  0.00    +0.024 A 
ATOM     29  C   UNL     1       8.375  -5.832   0.947  0.00  0.00    +0.002 A 
ATOM     30  C   UNL     1       8.964  -4.962   1.846  0.00  0.00    +0.000 A 
ATOM     31  C   UNL     1       9.534  -3.789   1.406  0.00  0.00    +0.005 A 
ATOM     32  C   UNL     1       9.536  -3.443   0.053  0.00  0.00    -0.025 A 
ATOM     33  C   UNL     1      10.123  -2.084  -0.251  0.00  0.00    +0.042 C 
ATOM     34  C   UNL     1      10.038  -1.707  -1.720  0.00  0.00    +0.042 C 
ATOM     35  C   UNL     1      10.822  -2.665  -2.581  0.00  0.00    -0.025 A 
ATOM     36  C   UNL     1      10.223  -3.875  -2.839  0.00  0.00    +0.044 A 
ATOM     37  C   UNL     1      10.832  -4.813  -3.655  0.00  0.00    +0.024 A 
ATOM     38  C   UNL     1      12.076  -4.519  -4.190  0.00  0.00    +0.002 A 
ATOM     39  C   UNL     1      12.693  -3.313  -3.909  0.00  0.00    +0.000 A 
ATOM     40  C   UNL     1      12.062  -2.365  -3.094  0.00  0.00    +0.005 A 
ENDBRANCH  23  24
ENDBRANCH  22  23
ENDBRANCH   5  22
TORSDOF 6
