REMARK  Name = ZINC63491727
REMARK  8 active torsions:
REMARK  status: ('A' for Active; 'I' for Inactive)
REMARK    1  A    between atoms: C_1  and  C_2
REMARK    2  A    between atoms: C_2  and  O_3
REMARK    3  A    between atoms: O_3  and  C_4
REMARK    4  A    between atoms: C_4  and  C_6
REMARK    5  A    between atoms: C_6  and  C_7
REMARK    6  A    between atoms: C_7  and  N_8
REMARK    7  A    between atoms: C_24  and  C_26
REMARK    8  A    between atoms: C_29  and  C_32
REMARK                            x       y       z     vdW  Elec       q    Type
REMARK                         _______ _______ _______ _____ _____    ______ ____
ROOT
ATOM      1  N   UNL     1       2.464  -4.272  -3.931  0.00  0.00    -0.299 N 
ATOM      2  C   UNL     1       2.423  -5.618  -3.992  0.00  0.00    +0.303 C 
ATOM      3  O   UNL     1       1.937  -6.253  -3.076  0.00  0.00    -0.253 OA
ATOM      4  N   UNL     1       2.920  -6.259  -5.068  0.00  0.00    -0.276 N 
ATOM      5  C   UNL     1       3.613  -5.497  -6.111  0.00  0.00    +0.114 C 
ATOM      6  C   UNL     1       5.040  -6.048  -6.287  0.00  0.00    +0.052 C 
ATOM      7  C   UNL     1       4.921  -7.551  -6.325  0.00  0.00    -0.035 C 
ATOM      8  C   UNL     1       5.375  -8.445  -7.195  0.00  0.00    -0.001 A 
ATOM      9  C   UNL     1       6.247  -8.311  -8.373  0.00  0.00    +0.010 A 
ATOM     10  C   UNL     1       6.500  -9.454  -9.065  0.00  0.00    +0.001 A 
ATOM     11  C   UNL     1       5.978 -10.701  -8.707  0.00  0.00    +0.002 A 
ATOM     12  C   UNL     1       5.175 -10.918  -7.636  0.00  0.00    +0.026 A 
ATOM     13  C   UNL     1       4.845  -9.793  -6.825  0.00  0.00    +0.043 A 
ATOM     14  N   UNL     1       4.126  -9.717  -5.744  0.00  0.00    -0.375 N 
ATOM     15  C   UNL     1       4.161  -8.336  -5.262  0.00  0.00    +0.131 C 
ATOM     16  C   UNL     1       2.766  -7.718  -5.181  0.00  0.00    +0.134 C 
ATOM     17  H   UNL     1       2.916  -3.769  -4.627  0.00  0.00    +0.150 HD
ATOM     18  H   UNL     1       3.648 -10.451  -5.327  0.00  0.00    +0.160 HD
ENDROOT
BRANCH  16  19
ATOM     19  C   UNL     1       1.989  -8.055  -6.427  0.00  0.00    -0.025 A 
ATOM     20  C   UNL     1       0.821  -8.790  -6.336  0.00  0.00    +0.006 A 
ATOM     21  C   UNL     1       0.108  -9.099  -7.479  0.00  0.00    +0.004 A 
ATOM     22  C   UNL     1       0.563  -8.673  -8.713  0.00  0.00    -0.050 A 
ATOM     23  C   UNL     1       1.730  -7.937  -8.804  0.00  0.00    +0.004 A 
ATOM     24  C   UNL     1       2.440  -7.625  -7.660  0.00  0.00    +0.006 A 
ATOM     25  C   UNL     1      -0.214  -9.010  -9.960  0.00  0.00    +0.044 C 
ENDBRANCH  16  19
BRANCH   1  26
ATOM     26  C   UNL     1       1.828  -3.569  -2.814  0.00  0.00    +0.117 C 
BRANCH  26  27
ATOM     27  C   UNL     1       2.019  -2.061  -2.985  0.00  0.00    +0.139 C 
BRANCH  27  28
ATOM     28  C   UNL     1       1.364  -1.338  -1.836  0.00  0.00    +0.309 C 
ATOM     29  O   UNL     1       0.802  -1.965  -0.970  0.00  0.00    -0.251 OA
BRANCH  28  30
ATOM     30  O   UNL     1       1.406   0.002  -1.776  0.00  0.00    -0.465 OA
BRANCH  30  32
ATOM     31  C   UNL     1       0.915   2.140  -0.762  0.00  0.00    +0.048 C 
ATOM     32  C   UNL     1       0.764   0.621  -0.659  0.00  0.00    +0.229 C 
ENDBRANCH  30  32
ENDBRANCH  28  30
ENDBRANCH  27  28
ENDBRANCH  26  27
ENDBRANCH   1  26
TORSDOF 6
