REMARK  Name = ZINC06878992
REMARK  10 active torsions:
REMARK  status: ('A' for Active; 'I' for Inactive)
REMARK    1  A    between atoms: C_1  and  O_2
REMARK    2  A    between atoms: O_2  and  C_3
REMARK    3  A    between atoms: C_3  and  C_5
REMARK    4  A    between atoms: C_5  and  N_49
REMARK    5  A    between atoms: C_6  and  C_8
REMARK    6  A    between atoms: C_6  and  C_14
REMARK    7  A    between atoms: C_6  and  N_49
REMARK    8  A    between atoms: C_19  and  N_20
REMARK    9  A    between atoms: C_21  and  C_22
REMARK   10  A    between atoms: C_27  and  O_28
REMARK                            x       y       z     vdW  Elec       q    Type
REMARK                         _______ _______ _______ _____ _____    ______ ____
ROOT
ATOM      1  C   UNL     1       3.288   7.469  -0.752  0.00  0.00    -0.031 A 
ATOM      2  C   UNL     1       4.396   8.181  -1.162  0.00  0.00    +0.019 A 
ATOM      3  C   UNL     1       5.639   7.573  -1.195  0.00  0.00    +0.018 A 
ATOM      4  C   UNL     1       5.780   6.248  -0.816  0.00  0.00    +0.017 A 
ATOM      5  C   UNL     1       4.681   5.528  -0.398  0.00  0.00    +0.029 A 
ATOM      6  C   UNL     1       3.422   6.133  -0.369  0.00  0.00    +0.066 A 
ATOM      7 BR   UNL     1       7.153   8.556  -1.760  0.00  0.00    -0.050 Br
ENDROOT
BRANCH   6   8
ATOM      8  N   UNL     1       2.327   5.421   0.040  0.00  0.00    -0.255 NA
ATOM      9  C   UNL     1       2.097   4.238  -0.456  0.00  0.00    +0.123 C 
BRANCH   9  10
ATOM     10  C   UNL     1       0.946   3.454   0.017  0.00  0.00    +0.034 A 
ATOM     11  C   UNL     1       0.708   2.174  -0.496  0.00  0.00    +0.013 A 
ATOM     12  C   UNL     1      -0.372   1.445  -0.048  0.00  0.00    +0.001 A 
ATOM     13  C   UNL     1      -1.227   1.976   0.905  0.00  0.00    +0.004 A 
ATOM     14  C   UNL     1      -1.000   3.236   1.424  0.00  0.00    +0.046 A 
ATOM     15  C   UNL     1       0.081   3.984   0.985  0.00  0.00    +0.125 A 
BRANCH  15  16
ATOM     16  O   UNL     1       0.301   5.224   1.491  0.00  0.00    -0.506 OA
ATOM     17  H   UNL     1      -0.143   5.932   1.004  0.00  0.00    +0.292 HD
ENDBRANCH  15  16
ENDBRANCH   9  10
ENDBRANCH   6   8
BRANCH   1  18
ATOM     18  C   UNL     1       1.935   8.132  -0.717  0.00  0.00    -0.007 C 
BRANCH  18  19
ATOM     19  C   UNL     1       1.210   7.863  -2.010  0.00  0.00    -0.057 A 
ATOM     20  C   UNL     1       1.588   8.522  -3.165  0.00  0.00    +0.002 A 
ATOM     21  C   UNL     1       0.926   8.272  -4.352  0.00  0.00    +0.000 A 
ATOM     22  C   UNL     1      -0.121   7.370  -4.383  0.00  0.00    +0.000 A 
ATOM     23  C   UNL     1      -0.502   6.715  -3.227  0.00  0.00    +0.000 A 
ATOM     24  C   UNL     1       0.163   6.961  -2.041  0.00  0.00    +0.002 A 
ENDBRANCH  18  19
BRANCH  18  25
ATOM     25  N   UNL     1       2.113   9.587  -0.545  0.00  0.00    +0.393 N 
ATOM     26  H   UNL     1       2.926   9.759   0.058  0.00  0.00    -0.084 HD
ATOM     27  H   UNL     1       2.269  10.019  -1.463  0.00  0.00    -0.084 HD
BRANCH  25  28
ATOM     28  C   UNL     1       0.913  10.180   0.074  0.00  0.00    +0.041 C 
BRANCH  28  29
ATOM     29  C   UNL     1       1.123  11.663   0.236  0.00  0.00    +0.290 C 
ATOM     30  O   UNL     1       2.159  12.170  -0.124  0.00  0.00    -0.253 OA
BRANCH  29  32
ATOM     31  C   UNL     1       0.431  13.843   0.907  0.00  0.00    +0.280 C 
ATOM     32  O   UNL     1       0.160  12.422   0.782  0.00  0.00    -0.469 OA
ENDBRANCH  29  32
ENDBRANCH  28  29
ENDBRANCH  25  28
ENDBRANCH  18  25
ENDBRANCH   1  18
TORSDOF 9
