REMARK  Name = ZINC41261558
REMARK  5 active torsions:
REMARK  status: ('A' for Active; 'I' for Inactive)
REMARK    1  A    between atoms: C_1  and  C_2
REMARK    2  A    between atoms: C_5  and  C_22
REMARK    3  A    between atoms: C_6  and  S_8
REMARK    4  A    between atoms: S_8  and  N_11
REMARK    5  A    between atoms: N_11  and  C_12
REMARK                            x       y       z     vdW  Elec       q    Type
REMARK                         _______ _______ _______ _____ _____    ______ ____
ROOT
ATOM      1  N   UNL     1      -1.234  -4.248   2.538  0.00  0.00    -0.216 N 
ATOM      2  H   UNL     1      -1.033  -5.196   2.488  0.00  0.00    +0.174 HD
ENDROOT
BRANCH   1   3
ATOM      3  C   UNL     1      -2.562  -3.812   2.500  0.00  0.00    +0.052 A 
ATOM      4  C   UNL     1      -3.005  -2.857   3.409  0.00  0.00    +0.027 A 
ATOM      5  C   UNL     1      -4.315  -2.423   3.375  0.00  0.00    +0.031 A 
ATOM      6  C   UNL     1      -5.190  -2.941   2.433  0.00  0.00    +0.087 A 
ATOM      7  C   UNL     1      -4.751  -3.898   1.520  0.00  0.00    +0.159 A 
ATOM      8  C   UNL     1      -3.434  -4.328   1.553  0.00  0.00    +0.073 A 
ATOM      9  O   UNL     1      -5.807  -4.217   0.731  0.00  0.00    -0.408 OA
ATOM     10  C   UNL     1      -6.876  -3.503   1.114  0.00  0.00    +0.419 A 
ATOM     11  O   UNL     1      -7.979  -3.560   0.604  0.00  0.00    -0.223 OA
ATOM     12  N   UNL     1      -6.540  -2.711   2.152  0.00  0.00    -0.288 N 
ATOM     13  H   UNL     1      -7.126  -2.095   2.618  0.00  0.00    +0.172 HD
ENDBRANCH   1   3
BRANCH   1  14
ATOM     14  S   UNL     1      -0.004  -3.147   2.668  0.00  0.00    +0.073 S 
ATOM     15  O   UNL     1       1.210  -3.880   2.567  0.00  0.00    -0.150 OA
ATOM     16  O   UNL     1      -0.308  -2.329   3.789  0.00  0.00    -0.150 OA
BRANCH  14  22
ATOM     17  C   UNL     1      -0.743   1.521   0.436  0.00  0.00    +0.044 C 
ATOM     18  C   UNL     1      -0.433   0.055   0.279  0.00  0.00    -0.049 A 
ATOM     19  C   UNL     1      -0.210  -0.474  -0.979  0.00  0.00    +0.004 A 
ATOM     20  C   UNL     1       0.075  -1.819  -1.123  0.00  0.00    +0.005 A 
ATOM     21  C   UNL     1       0.138  -2.635  -0.009  0.00  0.00    -0.024 A 
ATOM     22  C   UNL     1      -0.084  -2.107   1.249  0.00  0.00    +0.112 A 
ATOM     23  C   UNL     1      -0.364  -0.761   1.393  0.00  0.00    +0.032 A 
ATOM     24  C   UNL     1       0.448  -4.101  -0.166  0.00  0.00    +0.046 C 
ENDBRANCH  14  22
ENDBRANCH   1  14
TORSDOF 3
