REMARK  Name = ZINC13739445
REMARK  5 active torsions:
REMARK  status: ('A' for Active; 'I' for Inactive)
REMARK    1  A    between atoms: C_1  and  C_2
REMARK    2  A    between atoms: C_4  and  C_26
REMARK    3  A    between atoms: C_6  and  N_25
REMARK    4  A    between atoms: C_7  and  C_11
REMARK    5  A    between atoms: C_11  and  N_13
REMARK                            x       y       z     vdW  Elec       q    Type
REMARK                         _______ _______ _______ _____ _____    ______ ____
ROOT
ATOM      1  C   UNL     1      -0.018   1.503   0.010  0.00  0.00    +0.065 C 
ATOM      2  C   UNL     1       0.002  -0.004   0.002  0.00  0.00    +0.040 A 
ATOM      3  C   UNL     1       0.006  -0.686  -1.206  0.00  0.00    +0.036 A 
ATOM      4  C   UNL     1       0.024  -2.061  -1.228  0.00  0.00    +0.068 A 
ATOM      5  C   UNL     1       0.040  -2.768   0.000  0.00  0.00    +0.041 A 
ATOM      6  C   UNL     1       0.061  -4.206   0.221  0.00  0.00    +0.054 A 
ATOM      7  C   UNL     1       0.073  -4.668   1.516  0.00  0.00    +0.099 A 
ATOM      8  S   UNL     1       0.058  -3.174   2.488  0.00  0.00    -0.062 S 
ATOM      9  C   UNL     1       0.035  -1.980   1.174  0.00  0.00    +0.112 A 
ATOM     10  N   UNL     1       0.022  -0.665   1.143  0.00  0.00    -0.245 NA
ENDROOT
BRANCH   4  11
ATOM     11  C   UNL     1       0.028  -2.805  -2.538  0.00  0.00    +0.418 C 
ATOM     12  F   UNL     1       0.010  -1.888  -3.595  0.00  0.00    -0.166 F 
ATOM     13  F   UNL     1       1.180  -3.593  -2.624  0.00  0.00    -0.166 F 
ATOM     14  F   UNL     1      -1.104  -3.624  -2.613  0.00  0.00    -0.166 F 
ENDBRANCH   4  11
BRANCH   6  15
ATOM     15  N   UNL     1       0.067  -5.091  -0.851  0.00  0.00    -0.356 N 
ATOM     16  H   UNL     1       0.058  -4.752  -1.760  0.00  0.00    +0.142 HD
ATOM     17  H   UNL     1       0.081  -6.047  -0.690  0.00  0.00    +0.142 HD
ENDBRANCH   6  15
BRANCH   7  18
ATOM     18  C   UNL     1       0.095  -6.056   1.985  0.00  0.00    +0.278 C 
ATOM     19  O   UNL     1       0.104  -6.973   1.179  0.00  0.00    -0.267 OA
BRANCH  18  20
ATOM     20  N   UNL     1       0.105  -6.320   3.301  0.00  0.00    -0.152 NA
ATOM     21  C   UNL     1       0.125  -7.577   3.725  0.00  0.00    +0.164 A 
ATOM     22  N   UNL     1       0.143  -8.726   2.991  0.00  0.00    -0.335 N 
ATOM     23  H   UNL     1       0.142  -8.681   2.022  0.00  0.00    +0.168 HD
ATOM     24  C   UNL     1       0.162  -9.957   3.623  0.00  0.00    +0.056 A 
ATOM     25  C   UNL     1       0.182 -11.227   3.023  0.00  0.00    +0.042 A 
ATOM     26  C   UNL     1       0.199 -12.369   3.788  0.00  0.00    +0.020 A 
ATOM     27  C   UNL     1       0.198 -12.307   5.172  0.00  0.00    +0.016 A 
ATOM     28  C   UNL     1       0.179 -11.070   5.790  0.00  0.00    +0.018 A 
ATOM     29  C   UNL     1       0.162  -9.928   5.026  0.00  0.00    +0.039 A 
ATOM     30  S   UNL     1       0.142  -8.191   5.401  0.00  0.00    -0.052 S 
ATOM     31 BR   UNL     1       0.225 -14.057   2.935  0.00  0.00    -0.050 Br
ENDBRANCH  18  20
ENDBRANCH   7  18
TORSDOF 4
