REMARK  Name = ZINC26474801
REMARK  7 active torsions:
REMARK  status: ('A' for Active; 'I' for Inactive)
REMARK    1  A    between atoms: C_1  and  C_2
REMARK    2  A    between atoms: N_11  and  C_14
REMARK    3  A    between atoms: C_14  and  C_15
REMARK    4  A    between atoms: C_15  and  C_16
REMARK    5  A    between atoms: C_27  and  C_36
REMARK    6  A    between atoms: C_28  and  C_29
REMARK    7  A    between atoms: C_32  and  O_35
REMARK                            x       y       z     vdW  Elec       q    Type
REMARK                         _______ _______ _______ _____ _____    ______ ____
ROOT
ATOM      1  C   UNL     1       0.025   1.183   4.921  0.00  0.00    +0.194 C 
ATOM      2  C   UNL     1      -0.676   1.777   6.152  0.00  0.00    +0.167 C 
ATOM      3  N   UNL     1       0.114   1.421   7.338  0.00  0.00    -0.333 N 
ATOM      4  C   UNL     1       1.453   1.145   7.179  0.00  0.00    +0.092 A 
ATOM      5  C   UNL     1       2.023   0.832   8.420  0.00  0.00    +0.007 A 
ATOM      6  C   UNL     1       3.387   0.518   8.472  0.00  0.00    +0.010 A 
ATOM      7  C   UNL     1       4.075   0.539   7.280  0.00  0.00    +0.004 A 
ATOM      8  C   UNL     1       3.491   0.852   6.054  0.00  0.00    +0.048 A 
ATOM      9  C   UNL     1       2.155   1.165   5.971  0.00  0.00    +0.145 A 
ATOM     10  O   UNL     1       1.425   1.494   4.881  0.00  0.00    -0.485 OA
ATOM     11  C   UNL     1       0.933   0.935   9.367  0.00  0.00    -0.017 A 
ATOM     12  C   UNL     1      -0.190   1.291   8.661  0.00  0.00    +0.053 A 
ATOM     13  C   UNL     1       1.016   0.696  10.852  0.00  0.00    +0.046 C 
ENDROOT
BRANCH  12  14
ATOM     14  C   UNL     1      -1.530   1.503   9.249  0.00  0.00    -0.001 A 
ATOM     15  C   UNL     1      -2.288   2.615   8.881  0.00  0.00    +0.013 A 
ATOM     16  C   UNL     1      -3.540   2.805   9.427  0.00  0.00    +0.046 A 
ATOM     17  C   UNL     1      -4.041   1.899  10.351  0.00  0.00    +0.117 A 
ATOM     18  C   UNL     1      -3.288   0.793  10.724  0.00  0.00    +0.046 A 
ATOM     19  C   UNL     1      -2.038   0.593  10.178  0.00  0.00    +0.013 A 
BRANCH  17  20
ATOM     20  O   UNL     1      -5.273   2.093  10.891  0.00  0.00    -0.507 OA
ATOM     21  H   UNL     1      -5.671   1.375  11.623  0.00  0.00    +0.292 HD
ENDBRANCH  17  20
ENDBRANCH  12  14
BRANCH   1  22
ATOM     22  C   UNL     1      -0.640   1.734   3.658  0.00  0.00    +0.061 C 
BRANCH  22  23
ATOM     23  C   UNL     1      -0.062   1.031   2.429  0.00  0.00    +0.088 C 
BRANCH  23  34
ATOM     24  C   UNL     1      -2.333   6.904  -3.864  0.00  0.00    +0.044 C 
ATOM     25  C   UNL     1      -2.158   5.422  -3.653  0.00  0.00    -0.046 A 
ATOM     26  C   UNL     1      -2.598   4.513  -4.606  0.00  0.00    +0.021 A 
ATOM     27  C   UNL     1      -2.422   3.162  -4.383  0.00  0.00    +0.084 A 
ATOM     28  N   UNL     1      -1.843   2.728  -3.279  0.00  0.00    -0.350 N 
ATOM     29  C   UNL     1      -1.410   3.563  -2.348  0.00  0.00    +0.099 A 
ATOM     30  C   UNL     1      -1.560   4.937  -2.504  0.00  0.00    +0.045 A 
ATOM     31  N   UNL     1      -0.806   3.062  -1.200  0.00  0.00    -0.314 N 
ATOM     32  C   UNL     1      -0.754   1.593  -1.231  0.00  0.00    +0.122 C 
ATOM     33  C   UNL     1      -0.013   1.086   0.008  0.00  0.00    +0.103 C 
ATOM     34  N   UNL     1      -0.701   1.560   1.216  0.00  0.00    -0.299 NA
ATOM     35  C   UNL     1      -0.754   3.029   1.247  0.00  0.00    +0.103 C 
ATOM     36  C   UNL     1      -1.495   3.536   0.008  0.00  0.00    +0.122 C 
ATOM     37  H   UNL     1      -1.711   1.648  -3.116  0.00  0.00    +0.166 HD
ENDBRANCH  23  34
ENDBRANCH  22  23
ENDBRANCH   1  22
TORSDOF 5
