REMARK  Name = ZINC63654921
REMARK  9 active torsions:
REMARK  status: ('A' for Active; 'I' for Inactive)
REMARK    1  A    between atoms: C_1  and  O_2
REMARK    2  A    between atoms: O_2  and  C_3
REMARK    3  A    between atoms: C_6  and  C_9
REMARK    4  A    between atoms: C_9  and  C_10
REMARK    5  A    between atoms: N_12  and  C_13
REMARK    6  A    between atoms: C_13  and  C_14
REMARK    7  A    between atoms: C_14  and  S_15
REMARK    8  A    between atoms: S_15  and  C_16
REMARK    9  A    between atoms: C_24  and  C_26
REMARK                            x       y       z     vdW  Elec       q    Type
REMARK                         _______ _______ _______ _____ _____    ______ ____
ROOT
ATOM      1  C   UNL     1       9.185  -5.312  -6.800  0.00  0.00    +0.021 C 
ATOM      2  C   UNL     1       8.485  -5.643  -7.957  0.00  0.00    +0.010 A 
ATOM      3  C   UNL     1       7.163  -5.381  -8.377  0.00  0.00    +0.011 A 
ATOM      4  C   UNL     1       6.737  -5.835  -9.584  0.00  0.00    +0.001 A 
ATOM      5  C   UNL     1       7.578  -6.560 -10.429  0.00  0.00    +0.002 A 
ATOM      6  C   UNL     1       8.860  -6.847 -10.089  0.00  0.00    +0.026 A 
ATOM      7  C   UNL     1       9.375  -6.406  -8.845  0.00  0.00    +0.044 A 
ATOM      8  N   UNL     1      10.565  -6.553  -8.291  0.00  0.00    -0.373 N 
ATOM      9  C   UNL     1      10.571  -5.891  -6.982  0.00  0.00    +0.147 C 
ATOM     10  H   UNL     1      11.316  -7.020  -8.688  0.00  0.00    +0.161 HD
ENDROOT
BRANCH   9  11
ATOM     11  C   UNL     1      11.601  -4.791  -6.958  0.00  0.00    -0.020 A 
ATOM     12  C   UNL     1      11.815  -4.021  -8.086  0.00  0.00    +0.007 A 
ATOM     13  C   UNL     1      12.759  -3.012  -8.065  0.00  0.00    +0.015 A 
ATOM     14  C   UNL     1      13.489  -2.772  -6.915  0.00  0.00    +0.018 A 
ATOM     15  C   UNL     1      13.274  -3.542  -5.786  0.00  0.00    +0.015 A 
ATOM     16  C   UNL     1      12.326  -4.548  -5.807  0.00  0.00    +0.007 A 
ATOM     17 BR   UNL     1      14.780  -1.391  -6.885  0.00  0.00    -0.050 Br
ENDBRANCH   9  11
BRANCH   1  18
ATOM     18  S   UNL     1       8.620  -4.455  -5.496  0.00  0.00    -0.125 S 
BRANCH  18  19
ATOM     19  C   UNL     1       6.862  -4.203  -5.865  0.00  0.00    +0.093 C 
BRANCH  19  20
ATOM     20  C   UNL     1       6.179  -3.542  -4.667  0.00  0.00    +0.115 C 
BRANCH  20  23
ATOM     21  C   UNL     1       3.953  -2.768  -4.048  0.00  0.00    +0.217 C 
ATOM     22  O   UNL     1       4.403  -2.423  -2.976  0.00  0.00    -0.275 OA
ATOM     23  N   UNL     1       4.759  -3.339  -4.965  0.00  0.00    -0.314 N 
ATOM     24  H   UNL     1       4.399  -3.615  -5.822  0.00  0.00    +0.149 HD
BRANCH  21  25
ATOM     25  C   UNL     1       2.492  -2.559  -4.354  0.00  0.00    +0.130 C 
BRANCH  25  29
ATOM     26  C   UNL     1       0.583  -0.713  -1.006  0.00  0.00    +0.120 A 
ATOM     27  C   UNL     1       1.144   0.070  -2.005  0.00  0.00    +0.046 A 
ATOM     28  C   UNL     1       1.761  -0.529  -3.086  0.00  0.00    +0.007 A 
ATOM     29  C   UNL     1       1.819  -1.908  -3.174  0.00  0.00    -0.038 A 
ATOM     30  C   UNL     1       1.261  -2.690  -2.180  0.00  0.00    +0.007 A 
ATOM     31  C   UNL     1       0.648  -2.096  -1.094  0.00  0.00    +0.046 A 
BRANCH  26  33
ATOM     32  C   UNL     1      -0.053   1.303   0.082  0.00  0.00    +0.277 C 
ATOM     33  O   UNL     1      -0.024  -0.126   0.059  0.00  0.00    -0.495 OA
ENDBRANCH  26  33
ENDBRANCH  25  29
ENDBRANCH  21  25
ENDBRANCH  20  23
ENDBRANCH  19  20
ENDBRANCH  18  19
ENDBRANCH   1  18
TORSDOF 8
