REMARK  Name = ZINC53627455
REMARK  8 active torsions:
REMARK  status: ('A' for Active; 'I' for Inactive)
REMARK    1  A    between atoms: C_1  and  C_2
REMARK    2  A    between atoms: C_13  and  C_15
REMARK    3  A    between atoms: C_15  and  C_16
REMARK    4  A    between atoms: C_16  and  C_17
REMARK    5  A    between atoms: N_19  and  C_20
REMARK    6  A    between atoms: C_20  and  C_21
REMARK    7  A    between atoms: C_21  and  C_22
REMARK    8  A    between atoms: C_29  and  C_30
REMARK                            x       y       z     vdW  Elec       q    Type
REMARK                         _______ _______ _______ _____ _____    ______ ____
ROOT
ATOM      1  C   UNL     1      -0.019   1.526   0.010  0.00  0.00    +0.013 C 
ATOM      2  C   UNL     1       0.002  -0.004   0.002  0.00  0.00    +0.033 C 
ATOM      3  C   UNL     1       0.705  -0.489  -1.241  0.00  0.00    -0.001 A 
ATOM      4  C   UNL     1       0.471   0.176  -2.418  0.00  0.00    +0.019 A 
ATOM      5  C   UNL     1       1.091  -0.238  -3.592  0.00  0.00    +0.028 A 
ATOM      6  C   UNL     1       1.960  -1.341  -3.579  0.00  0.00    +0.139 A 
ATOM      7  C   UNL     1       2.190  -2.004  -2.382  0.00  0.00    +0.093 A 
ATOM      8  C   UNL     1       1.567  -1.577  -1.218  0.00  0.00    +0.139 A 
ATOM      9  O   UNL     1       1.838  -2.250  -0.065  0.00  0.00    -0.425 OA
ATOM     10  C   UNL     1       1.082  -1.968   1.014  0.00  0.00    +0.316 C 
ATOM     11  O   UNL     1       0.697  -2.835   1.762  0.00  0.00    -0.250 OA
ATOM     12  C   UNL     1       0.740  -0.510   1.245  0.00  0.00    +0.106 C 
ATOM     13  O   UNL     1       2.409  -1.519  -4.838  0.00  0.00    -0.462 OA
ATOM     14  C   UNL     1       1.892  -0.601  -5.672  0.00  0.00    +0.204 A 
ATOM     15  C   UNL     1       1.069   0.229  -4.990  0.00  0.00    +0.028 A 
ENDROOT
BRANCH  15  16
ATOM     16  C   UNL     1       0.301   1.373  -5.538  0.00  0.00    -0.014 A 
ATOM     17  C   UNL     1      -1.060   1.497  -5.263  0.00  0.00    +0.010 A 
ATOM     18  C   UNL     1      -1.770   2.564  -5.775  0.00  0.00    +0.020 A 
ATOM     19  C   UNL     1      -1.134   3.510  -6.561  0.00  0.00    +0.041 A 
ATOM     20  C   UNL     1       0.218   3.390  -6.837  0.00  0.00    +0.020 A 
ATOM     21  C   UNL     1       0.938   2.331  -6.325  0.00  0.00    +0.010 A 
ATOM     22 CL   UNL     1      -2.033   4.849  -7.202  0.00  0.00    -0.084 Cl
ENDBRANCH  15  16
BRANCH  12  23
ATOM     23  C   UNL     1       2.021   0.299   1.454  0.00  0.00    +0.024 C 
BRANCH  23  24
ATOM     24  C   UNL     1       2.687  -0.127   2.764  0.00  0.00    +0.096 C 
BRANCH  24  25
ATOM     25  C   UNL     1       3.949   0.670   2.969  0.00  0.00    +0.213 C 
ATOM     26  O   UNL     1       4.284   1.497   2.148  0.00  0.00    -0.276 OA
ATOM     27  N   UNL     1       4.706   0.462   4.065  0.00  0.00    -0.315 N 
ATOM     28  H   UNL     1       4.438  -0.200   4.721  0.00  0.00    +0.149 HD
BRANCH  27  29
ATOM     29  C   UNL     1       5.933   1.237   4.264  0.00  0.00    +0.110 C 
BRANCH  29  30
ATOM     30  C   UNL     1       6.598   0.810   5.574  0.00  0.00    +0.073 C 
BRANCH  30  31
ATOM     31  C   UNL     1       7.861   1.607   5.779  0.00  0.00    +0.035 A 
ATOM     32  N   UNL     1       7.990   2.757   6.511  0.00  0.00    -0.350 N 
ATOM     33  C   UNL     1       9.284   3.138   6.432  0.00  0.00    +0.171 A 
ATOM     34  N   UNL     1       9.928   2.277   5.693  0.00  0.00    -0.352 N 
ATOM     35  C   UNL     1       9.080   1.322   5.283  0.00  0.00    +0.105 A 
ATOM     36  H   UNL     1       7.285   3.213   6.996  0.00  0.00    +0.166 HD
ATOM     37  H   UNL     1      10.873   2.318   5.478  0.00  0.00    +0.166 HD
ENDBRANCH  30  31
ENDBRANCH  29  30
ENDBRANCH  27  29
ENDBRANCH  24  25
ENDBRANCH  23  24
ENDBRANCH  12  23
TORSDOF 7
