REMARK  Name = ZINC20892338
REMARK  8 active torsions:
REMARK  status: ('A' for Active; 'I' for Inactive)
REMARK    1  A    between atoms: C_4  and  N_7
REMARK    2  A    between atoms: N_8  and  C_9
REMARK    3  A    between atoms: C_12  and  N_15
REMARK    4  A    between atoms: C_16  and  C_18
REMARK    5  A    between atoms: C_18  and  S_19
REMARK    6  A    between atoms: S_19  and  C_20
REMARK    7  A    between atoms: C_23  and  C_26
REMARK    8  A    between atoms: N_24  and  N_25
REMARK                            x       y       z     vdW  Elec       q    Type
REMARK                         _______ _______ _______ _____ _____    ______ ____
ROOT
ATOM      1  N   UNL     1      -0.241   1.240   2.497  0.00  0.00    -0.285 N 
ATOM      2  C   UNL     1      -0.636   1.519   1.239  0.00  0.00    +0.227 C 
ATOM      3  O   UNL     1      -1.625   2.195   1.050  0.00  0.00    -0.275 OA
ATOM      4  H   UNL     1       0.693   0.686   2.669  0.00  0.00    +0.155 HD
ENDROOT
BRANCH   1   8
ATOM      5  C   UNL     1      -2.560   2.476   5.731  0.00  0.00    +0.086 A 
ATOM      6  C   UNL     1      -1.870   1.260   5.787  0.00  0.00    +0.031 A 
ATOM      7  C   UNL     1      -1.105   0.855   4.716  0.00  0.00    +0.025 A 
ATOM      8  C   UNL     1      -1.018   1.654   3.580  0.00  0.00    +0.034 A 
ATOM      9  C   UNL     1      -1.698   2.866   3.523  0.00  0.00    +0.025 A 
ATOM     10  C   UNL     1      -2.469   3.275   4.587  0.00  0.00    +0.031 A 
BRANCH   5  12
ATOM     11  N   UNL     1      -3.955   4.001   6.738  0.00  0.00    -0.149 NA
ATOM     12  N   UNL     1      -3.320   2.880   6.791  0.00  0.00    -0.149 NA
BRANCH  11  16
ATOM     13  C   UNL     1      -6.260   5.226   9.947  0.00  0.00    +0.000 A 
ATOM     14  C   UNL     1      -6.173   6.022   8.819  0.00  0.00    +0.002 A 
ATOM     15  C   UNL     1      -5.406   5.621   7.745  0.00  0.00    +0.029 A 
ATOM     16  C   UNL     1      -4.717   4.406   7.798  0.00  0.00    +0.086 A 
ATOM     17  C   UNL     1      -4.814   3.606   8.940  0.00  0.00    +0.029 A 
ATOM     18  C   UNL     1      -5.580   4.023  10.008  0.00  0.00    +0.002 A 
ENDBRANCH  11  16
ENDBRANCH   5  12
ENDBRANCH   1   8
BRANCH   2  19
ATOM     19  C   UNL     1       0.150   0.990   0.067  0.00  0.00    +0.173 C 
BRANCH  19  20
ATOM     20  S   UNL     1      -0.627   1.532  -1.475  0.00  0.00    -0.075 S 
BRANCH  20  21
ATOM     21  C   UNL     1       0.466   0.794  -2.644  0.00  0.00    +0.209 A 
ATOM     22  N   UNL     1       1.530   0.073  -2.370  0.00  0.00    -0.121 NA
ATOM     23  N   UNL     1       2.095  -0.311  -3.458  0.00  0.00    -0.127 NA
ATOM     24  C   UNL     1       1.433   0.149  -4.494  0.00  0.00    +0.184 A 
ATOM     25  N   UNL     1       0.369   0.871  -4.005  0.00  0.00    -0.224 N 
BRANCH  24  26
ATOM     26  C   UNL     1       1.767  -0.069  -5.917  0.00  0.00    +0.056 A 
ATOM     27  C   UNL     1       1.813   1.012  -6.799  0.00  0.00    +0.014 A 
ATOM     28  C   UNL     1       2.126   0.803  -8.127  0.00  0.00    +0.001 A 
ATOM     29  C   UNL     1       2.394  -0.475  -8.585  0.00  0.00    +0.003 A 
ATOM     30  C   UNL     1       2.351  -1.551  -7.718  0.00  0.00    +0.039 A 
ATOM     31  C   UNL     1       2.044  -1.356  -6.385  0.00  0.00    +0.134 A 
ATOM     32  F   UNL     1       2.008  -2.407  -5.537  0.00  0.00    -0.205 F 
ENDBRANCH  24  26
BRANCH  25  33
ATOM     33  N   UNL     1      -0.586   1.528  -4.729  0.00  0.00    -0.295 N 
ATOM     34  H   UNL     1      -0.550   1.512  -5.828  0.00  0.00    +0.163 HD
ATOM     35  H   UNL     1      -1.389   2.073  -4.212  0.00  0.00    +0.163 HD
ENDBRANCH  25  33
ENDBRANCH  20  21
ENDBRANCH  19  20
ENDBRANCH   2  19
TORSDOF 8
