REMARK  Name = ZINC31851893
REMARK  7 active torsions:
REMARK  status: ('A' for Active; 'I' for Inactive)
REMARK    1  A    between atoms: C_1  and  C_2
REMARK    2  A    between atoms: C_3  and  C_25
REMARK    3  A    between atoms: C_7  and  N_24
REMARK    4  A    between atoms: C_9  and  S_11
REMARK    5  A    between atoms: S_11  and  C_12
REMARK    6  A    between atoms: C_12  and  C_13
REMARK    7  A    between atoms: C_13  and  N_14
REMARK                            x       y       z     vdW  Elec       q    Type
REMARK                         _______ _______ _______ _____ _____    ______ ____
ROOT
ATOM      1  C   UNL     1      -4.358   8.389   8.589  0.00  0.00    +0.045 C 
ATOM      2  C   UNL     1      -4.840   9.271   7.466  0.00  0.00    -0.028 A 
ATOM      3  C   UNL     1      -5.517  10.397   7.730  0.00  0.00    -0.008 A 
ATOM      4  S   UNL     1      -5.859  11.068   6.114  0.00  0.00    -0.073 S 
ATOM      5  C   UNL     1      -5.082   9.816   5.126  0.00  0.00    +0.115 A 
ATOM      6  C   UNL     1      -4.578   8.909   6.083  0.00  0.00    +0.050 A 
ATOM      7  C   UNL     1      -3.891   7.780   5.554  0.00  0.00    +0.129 A 
ATOM      8  N   UNL     1      -3.775   7.649   4.244  0.00  0.00    -0.207 NA
ATOM      9  C   UNL     1      -4.270   8.545   3.398  0.00  0.00    +0.191 A 
ATOM     10  N   UNL     1      -4.920   9.616   3.833  0.00  0.00    -0.215 NA
ATOM     11  C   UNL     1      -5.899  10.962   9.074  0.00  0.00    +0.052 C 
ENDROOT
BRANCH   7  12
ATOM     12  N   UNL     1      -3.357   6.828   6.402  0.00  0.00    -0.343 N 
ATOM     13  H   UNL     1      -2.827   5.957   5.987  0.00  0.00    +0.144 HD
ATOM     14  H   UNL     1      -3.461   6.940   7.491  0.00  0.00    +0.144 HD
ENDBRANCH   7  12
BRANCH   9  15
ATOM     15  S   UNL     1      -4.066   8.302   1.665  0.00  0.00    -0.084 S 
BRANCH  15  16
ATOM     16  C   UNL     1      -3.144   6.745   1.671  0.00  0.00    +0.101 C 
BRANCH  16  17
ATOM     17  C   UNL     1      -2.844   6.323   0.231  0.00  0.00    +0.160 C 
BRANCH  17  18
ATOM     18  N   UNL     1      -2.098   5.063   0.237  0.00  0.00    -0.212 N 
ATOM     19  C   UNL     1      -2.628   3.823   0.207  0.00  0.00    +0.351 A 
ATOM     20  O   UNL     1      -3.815   3.550   0.171  0.00  0.00    -0.244 OA
ATOM     21  N   UNL     1      -1.611   2.938   0.225  0.00  0.00    -0.251 N 
ATOM     22  C   UNL     1      -1.592   1.563   0.204  0.00  0.00    +0.098 A 
ATOM     23  C   UNL     1      -0.427   0.893   0.234  0.00  0.00    +0.018 A 
ATOM     24  C   UNL     1       0.800   1.587   0.276  0.00  0.00    +0.005 A 
ATOM     25  C   UNL     1       0.808   2.942   0.292  0.00  0.00    +0.049 A 
ATOM     26  C   UNL     1      -0.423   3.644   0.267  0.00  0.00    +0.162 A 
ATOM     27  N   UNL     1      -0.703   4.926   0.274  0.00  0.00    -0.149 NA
ENDBRANCH  17  18
ENDBRANCH  16  17
ENDBRANCH  15  16
ENDBRANCH   9  15
TORSDOF 5
