REMARK  Name = ZINC39911858
REMARK  15 active torsions:
REMARK  status: ('A' for Active; 'I' for Inactive)
REMARK    1  A    between atoms: C_1  and  C_2
REMARK    2  A    between atoms: C_2  and  C_3
REMARK    3  A    between atoms: C_3  and  N_4
REMARK    4  A    between atoms: C_5  and  C_24
REMARK    5  A    between atoms: C_8  and  C_15
REMARK    6  A    between atoms: C_17  and  C_23
REMARK    7  A    between atoms: C_19  and  C_22
REMARK    8  A    between atoms: C_20  and  O_21
REMARK    9  A    between atoms: C_27  and  O_32
REMARK   10  A    between atoms: C_28  and  O_30
REMARK   11  A    between atoms: O_30  and  C_31
REMARK   12  A    between atoms: O_32  and  C_33
REMARK   13  A    between atoms: C_33  and  C_34
REMARK   14  A    between atoms: C_34  and  C_35
REMARK   15  A    between atoms: C_34  and  C_36
REMARK                            x       y       z     vdW  Elec       q    Type
REMARK                         _______ _______ _______ _____ _____    ______ ____
ROOT
ATOM      1  N   UNL     1       0.607  -2.177  -1.550  0.00  0.00    -0.285 N 
ATOM      2  C   UNL     1       1.762  -2.664  -0.785  0.00  0.00    +0.141 C 
ATOM      3  C   UNL     1       1.559  -4.145  -0.621  0.00  0.00    +0.035 A 
ATOM      4  C   UNL     1       2.045  -5.353  -0.109  0.00  0.00    +0.102 A 
ATOM      5  N   UNL     1       1.181  -6.295  -0.432  0.00  0.00    -0.173 NA
ATOM      6  N   UNL     1       0.198  -5.801  -1.098  0.00  0.00    -0.272 N 
ATOM      7  H   UNL     1      -0.555  -6.310  -1.439  0.00  0.00    +0.189 HD
ATOM      8  C   UNL     1       0.370  -4.455  -1.254  0.00  0.00    +0.126 A 
ATOM      9  C   UNL     1      -0.197  -3.223  -1.813  0.00  0.00    +0.265 C 
ATOM     10  O   UNL     1      -1.244  -3.157  -2.428  0.00  0.00    -0.268 OA
ENDROOT
BRANCH   4  11
ATOM     11  C   UNL     1       3.302  -5.539   0.657  0.00  0.00    +0.044 A 
ATOM     12  C   UNL     1       4.054  -4.434   1.047  0.00  0.00    +0.017 A 
ATOM     13  C   UNL     1       5.222  -4.613   1.760  0.00  0.00    -0.049 A 
ATOM     14  C   UNL     1       5.650  -5.887   2.089  0.00  0.00    +0.010 A 
ATOM     15  C   UNL     1       4.911  -6.990   1.707  0.00  0.00    -0.008 A 
ATOM     16  C   UNL     1       3.733  -6.825   0.996  0.00  0.00    +0.129 A 
ATOM     17  C   UNL     1       5.383  -8.375   2.069  0.00  0.00    +0.047 C 
ATOM     18  C   UNL     1       6.036  -3.416   2.181  0.00  0.00    +0.044 C 
BRANCH  16  19
ATOM     19  O   UNL     1       3.003  -7.909   0.625  0.00  0.00    -0.506 OA
ATOM     20  H   UNL     1       3.246  -8.269  -0.239  0.00  0.00    +0.292 HD
ENDBRANCH  16  19
ENDBRANCH   4  11
BRANCH   2  21
ATOM     21  C   UNL     1       3.037  -2.394  -1.543  0.00  0.00    -0.019 A 
ATOM     22  C   UNL     1       4.121  -1.835  -0.892  0.00  0.00    +0.009 A 
ATOM     23  C   UNL     1       5.292  -1.586  -1.583  0.00  0.00    +0.050 A 
ATOM     24  C   UNL     1       5.382  -1.898  -2.930  0.00  0.00    +0.162 A 
ATOM     25  C   UNL     1       4.291  -2.461  -3.584  0.00  0.00    +0.162 A 
ATOM     26  C   UNL     1       3.122  -2.713  -2.885  0.00  0.00    +0.055 A 
BRANCH  25  27
ATOM     27  O   UNL     1       4.375  -2.769  -4.906  0.00  0.00    -0.491 OA
ATOM     28  C   UNL     1       3.263  -3.456  -5.484  0.00  0.00    +0.277 C 
ENDBRANCH  25  27
BRANCH  24  29
ATOM     29  O   UNL     1       6.534  -1.653  -3.610  0.00  0.00    -0.488 OA
BRANCH  29  30
ATOM     30  C   UNL     1       7.612  -1.073  -2.874  0.00  0.00    +0.232 C 
BRANCH  30  31
ATOM     31  C   UNL     1       8.813  -0.873  -3.800  0.00  0.00    +0.020 C 
ATOM     32  C   UNL     1       8.460   0.154  -4.878  0.00  0.00    +0.010 C 
ATOM     33  C   UNL     1      10.007  -0.368  -2.986  0.00  0.00    +0.010 C 
ENDBRANCH  30  31
ENDBRANCH  29  30
ENDBRANCH  24  29
ENDBRANCH   2  21
BRANCH   1  34
ATOM     34  C   UNL     1       0.368  -0.788  -1.953  0.00  0.00    +0.109 C 
BRANCH  34  36
ATOM     35  C   UNL     1      -0.675   1.380  -1.281  0.00  0.00    +0.005 C 
ATOM     36  C   UNL     1      -0.426  -0.070  -0.860  0.00  0.00    +0.016 C 
ENDBRANCH  34  36
ENDBRANCH   1  34
TORSDOF 9
