REMARK  Name = ZINC00664091
REMARK  6 active torsions:
REMARK  status: ('A' for Active; 'I' for Inactive)
REMARK    1  A    between atoms: C_3  and  C_24
REMARK    2  A    between atoms: C_6  and  C_7
REMARK    3  A    between atoms: C_14  and  C_16
REMARK    4  A    between atoms: C_16  and  O_17
REMARK    5  A    between atoms: C_19  and  N_23
REMARK    6  A    between atoms: C_20  and  C_21
REMARK                            x       y       z     vdW  Elec       q    Type
REMARK                         _______ _______ _______ _____ _____    ______ ____
ROOT
ATOM      1  C   UNL     1      -3.875  -1.459   2.602  0.00  0.00    +0.134 C 
ATOM      2  C   UNL     1      -3.261  -1.219   1.245  0.00  0.00    +0.164 A 
ATOM      3  C   UNL     1      -3.969  -1.468   0.124  0.00  0.00    +0.215 A 
ATOM      4  C   UNL     1      -3.364  -1.235  -1.144  0.00  0.00    +0.228 A 
ATOM      5  O   UNL     1      -3.971  -1.450  -2.182  0.00  0.00    -0.284 OA
ATOM      6  C   UNL     1      -2.036  -0.740  -1.161  0.00  0.00    +0.098 A 
ATOM      7  C   UNL     1      -1.412  -0.526   0.013  0.00  0.00    +0.134 A 
ATOM      8  O   UNL     1      -2.004  -0.755   1.182  0.00  0.00    -0.457 OA
ATOM      9  O   UNL     1      -5.241  -1.935   0.172  0.00  0.00    -0.434 OA
ATOM     10  C   UNL     1      -5.966  -1.788   1.294  0.00  0.00    +0.199 C 
ATOM     11  C   UNL     1      -5.370  -1.557   2.490  0.00  0.00    +0.101 C 
ENDROOT
BRANCH   1  17
ATOM     12  C   UNL     1      -3.530  -3.936   2.506  0.00  0.00    +0.005 A 
ATOM     13  C   UNL     1      -3.027  -5.113   3.029  0.00  0.00    +0.012 A 
ATOM     14  C   UNL     1      -2.337  -5.098   4.226  0.00  0.00    +0.055 A 
ATOM     15  C   UNL     1      -2.143  -3.905   4.897  0.00  0.00    +0.012 A 
ATOM     16  C   UNL     1      -2.641  -2.728   4.372  0.00  0.00    +0.005 A 
ATOM     17  C   UNL     1      -3.332  -2.743   3.175  0.00  0.00    -0.032 A 
BRANCH  14  18
ATOM     18  C   UNL     1      -1.794  -6.382   4.799  0.00  0.00    +0.417 C 
ATOM     19  F   UNL     1      -2.756  -6.965   5.631  0.00  0.00    -0.166 F 
ATOM     20  F   UNL     1      -1.483  -7.263   3.757  0.00  0.00    -0.166 F 
ATOM     21  F   UNL     1      -0.639  -6.110   5.540  0.00  0.00    -0.166 F 
ENDBRANCH  14  18
ENDBRANCH   1  17
BRANCH  10  22
ATOM     22  N   UNL     1      -7.335  -1.874   1.229  0.00  0.00    -0.328 N 
ATOM     23  H   UNL     1      -7.867  -1.770   2.033  0.00  0.00    +0.145 HD
ATOM     24  H   UNL     1      -7.770  -2.039   0.378  0.00  0.00    +0.145 HD
ENDBRANCH  10  22
BRANCH  11  25
ATOM     25  C   UNL     1      -6.177  -1.406   3.663  0.00  0.00    +0.101 C 
ATOM     26  N   UNL     1      -6.817  -1.286   4.594  0.00  0.00    -0.191 NA
ENDBRANCH  11  25
BRANCH   7  27
ATOM     27  C   UNL     1       0.002  -0.004   0.002  0.00  0.00    +0.230 C 
BRANCH  27  28
ATOM     28  O   UNL     1      -0.017   1.425   0.010  0.00  0.00    -0.387 OA
ATOM     29  H   UNL     1       0.861   1.830   0.004  0.00  0.00    +0.210 HD
ENDBRANCH  27  28
ENDBRANCH   7  27
TORSDOF 6
