REMARK  Name = ZINC39596441
REMARK  8 active torsions:
REMARK  status: ('A' for Active; 'I' for Inactive)
REMARK    1  A    between atoms: C_1  and  C_2
REMARK    2  A    between atoms: C_2  and  C_4
REMARK    3  A    between atoms: C_2  and  O_33
REMARK    4  A    between atoms: C_4  and  N_5
REMARK    5  A    between atoms: C_6  and  C_8
REMARK    6  A    between atoms: C_19  and  C_21
REMARK    7  A    between atoms: C_24  and  C_26
REMARK    8  A    between atoms: O_33  and  C_34
REMARK                            x       y       z     vdW  Elec       q    Type
REMARK                         _______ _______ _______ _____ _____    ______ ____
ROOT
ATOM      1  C   UNL     1       1.214  -3.718   3.024  0.00  0.00    +0.100 C 
ATOM      2  C   UNL     1      -0.259  -4.165   3.155  0.00  0.00    +0.121 C 
ATOM      3  N   UNL     1      -0.243  -5.203   4.212  0.00  0.00    -0.294 N 
ATOM      4  C   UNL     1       0.722  -4.692   5.216  0.00  0.00    +0.115 C 
ATOM      5  C   UNL     1       1.854  -4.064   4.379  0.00  0.00    -0.004 C 
ATOM      6  C   UNL     1       2.373  -2.800   5.057  0.00  0.00    -0.010 C 
ATOM      7  C   UNL     1       3.057  -3.177   6.374  0.00  0.00    -0.082 C 
ATOM      8  N   UNL     1       4.164  -4.102   6.106  0.00  0.00    +0.379 N 
ATOM      9  C   UNL     1       3.646  -5.353   5.539  0.00  0.00    -0.082 C 
ATOM     10  C   UNL     1       2.987  -5.068   4.186  0.00  0.00    -0.010 C 
ATOM     11  C   UNL     1      -0.946  -6.352   4.253  0.00  0.00    +0.282 C 
ATOM     12  O   UNL     1      -0.822  -7.108   5.199  0.00  0.00    -0.267 OA
ATOM     13  H   UNL     1       4.804  -3.678   5.451  0.00  0.00    -0.086 HD
ATOM     14  H   UNL     1       4.651  -4.301   6.967  0.00  0.00    -0.086 HD
ENDROOT
BRANCH  11  15
ATOM     15  C   UNL     1      -1.858  -6.691   3.158  0.00  0.00    +0.190 A 
ATOM     16  C   UNL     1      -2.636  -7.825   3.076  0.00  0.00    +0.055 A 
ATOM     17  C   UNL     1      -3.346  -7.741   1.874  0.00  0.00    +0.051 A 
ATOM     18  C   UNL     1      -2.980  -6.571   1.272  0.00  0.00    +0.139 A 
ATOM     19  O   UNL     1      -2.087  -5.945   2.057  0.00  0.00    -0.450 OA
BRANCH  18  20
ATOM     20  C   UNL     1      -3.485  -6.075  -0.023  0.00  0.00    +0.052 A 
ATOM     21  C   UNL     1      -3.491  -6.911  -1.141  0.00  0.00    +0.014 A 
ATOM     22  C   UNL     1      -3.964  -6.441  -2.348  0.00  0.00    +0.001 A 
ATOM     23  C   UNL     1      -4.433  -5.143  -2.454  0.00  0.00    +0.003 A 
ATOM     24  C   UNL     1      -4.431  -4.307  -1.353  0.00  0.00    +0.039 A 
ATOM     25  C   UNL     1      -3.966  -4.766  -0.135  0.00  0.00    +0.134 A 
ATOM     26  F   UNL     1      -3.969  -3.951   0.943  0.00  0.00    -0.205 F 
ENDBRANCH  18  20
ENDBRANCH  11  15
BRANCH   1  28
ATOM     27  N   UNL     1       2.329  -1.721   2.081  0.00  0.00    -0.312 N 
ATOM     28  C   UNL     1       1.292  -2.234   2.772  0.00  0.00    +0.218 C 
ATOM     29  O   UNL     1       0.420  -1.501   3.190  0.00  0.00    -0.275 OA
ATOM     30  H   UNL     1       3.026  -2.308   1.746  0.00  0.00    +0.149 HD
BRANCH  27  31
ATOM     31  C   UNL     1       2.405  -0.279   1.835  0.00  0.00    +0.148 C 
BRANCH  31  33
ATOM     32  C   UNL     1       3.749   1.543   0.779  0.00  0.00    +0.053 C 
ATOM     33  C   UNL     1       3.670   0.037   1.035  0.00  0.00    +0.187 C 
BRANCH  33  34
ATOM     34  O   UNL     1       4.818  -0.381   1.776  0.00  0.00    -0.488 OA
BRANCH  34  35
ATOM     35  C   UNL     1       5.941  -0.669   1.065  0.00  0.00    +0.121 A 
ATOM     36  C   UNL     1       7.055  -1.189   1.707  0.00  0.00    +0.048 A 
ATOM     37  C   UNL     1       8.195  -1.481   0.983  0.00  0.00    +0.042 A 
ATOM     38  C   UNL     1       8.225  -1.255  -0.383  0.00  0.00    +0.124 A 
ATOM     39  C   UNL     1       7.114  -0.736  -1.024  0.00  0.00    +0.042 A 
ATOM     40  C   UNL     1       5.970  -0.449  -0.304  0.00  0.00    +0.048 A 
ATOM     41  F   UNL     1       9.341  -1.540  -1.089  0.00  0.00    -0.205 F 
ENDBRANCH  34  35
ENDBRANCH  33  34
ENDBRANCH  31  33
ENDBRANCH  27  31
ENDBRANCH   1  28
TORSDOF 7
