REMARK  Name = ZINC36066219
REMARK  12 active torsions:
REMARK  status: ('A' for Active; 'I' for Inactive)
REMARK    1  A    between atoms: C_1  and  C_2
REMARK    2  A    between atoms: C_2  and  C_3
REMARK    3  A    between atoms: C_3  and  C_5
REMARK    4  A    between atoms: C_3  and  N_6
REMARK    5  A    between atoms: C_7  and  C_32
REMARK    6  A    between atoms: C_15  and  C_21
REMARK    7  A    between atoms: N_23  and  C_24
REMARK    8  A    between atoms: C_28  and  S_30
REMARK    9  A    between atoms: S_30  and  C_31
REMARK   10  A    between atoms: N_34  and  C_35
REMARK   11  A    between atoms: C_40  and  C_45
REMARK   12  A    between atoms: C_42  and  C_44
REMARK                            x       y       z     vdW  Elec       q    Type
REMARK                         _______ _______ _______ _____ _____    ______ ____
ROOT
ATOM      1  N   UNL     1      -2.105   0.713   1.197  0.00  0.00    -0.284 N 
ATOM      2  C   UNL     1      -3.369   1.459   1.488  0.00  0.00    +0.199 C 
ATOM      3  C   UNL     1      -3.113   1.974   2.871  0.00  0.00    +0.127 C 
ATOM      4  C   UNL     1      -2.082   3.087   2.903  0.00  0.00    +0.009 C 
ATOM      5  C   UNL     1      -1.972   3.439   4.176  0.00  0.00    +0.004 C 
ATOM      6  C   UNL     1      -2.904   2.485   4.933  0.00  0.00    +0.155 C 
ATOM      7  O   UNL     1      -3.987   2.280   3.932  0.00  0.00    -0.358 OA
ATOM      8  C   UNL     1      -2.108   1.124   4.872  0.00  0.00    +0.123 C 
ATOM      9  C   UNL     1      -2.457   0.660   3.459  0.00  0.00    +0.128 C 
ATOM     10  C   UNL     1      -1.515   0.327   2.377  0.00  0.00    +0.224 C 
ATOM     11  O   UNL     1      -0.424  -0.189   2.503  0.00  0.00    -0.275 OA
ENDROOT
BRANCH   8  12
ATOM     12  C   UNL     1      -0.627   1.356   5.035  0.00  0.00    +0.224 C 
ATOM     13  O   UNL     1       0.136   1.047   4.146  0.00  0.00    -0.275 OA
ATOM     14  N   UNL     1      -0.153   1.907   6.170  0.00  0.00    -0.285 N 
ATOM     15  H   UNL     1      -0.754   2.091   6.909  0.00  0.00    +0.155 HD
BRANCH  14  16
ATOM     16  C   UNL     1       1.208   2.214   6.283  0.00  0.00    +0.034 A 
ATOM     17  C   UNL     1       1.611   3.338   6.993  0.00  0.00    +0.023 A 
ATOM     18  C   UNL     1       2.954   3.643   7.105  0.00  0.00    +0.003 A 
ATOM     19  C   UNL     1       3.901   2.832   6.511  0.00  0.00    +0.015 A 
ATOM     20  C   UNL     1       3.505   1.705   5.799  0.00  0.00    +0.009 A 
ATOM     21  C   UNL     1       2.156   1.393   5.691  0.00  0.00    +0.038 A 
BRANCH  20  22
ATOM     22  S   UNL     1       4.713   0.671   5.041  0.00  0.00    -0.129 S 
ATOM     23  C   UNL     1       6.292   1.463   5.456  0.00  0.00    +0.090 C 
ENDBRANCH  20  22
ENDBRANCH  14  16
ENDBRANCH   8  12
BRANCH   2  24
ATOM     24  C   UNL     1      -3.561   2.594   0.516  0.00  0.00    +0.237 C 
ATOM     25  O   UNL     1      -2.602   3.086  -0.039  0.00  0.00    -0.274 OA
ATOM     26  N   UNL     1      -4.799   3.064   0.265  0.00  0.00    -0.311 N 
ATOM     27  H   UNL     1      -5.566   2.671   0.709  0.00  0.00    +0.149 HD
BRANCH  26  28
ATOM     28  C   UNL     1      -4.986   4.168  -0.680  0.00  0.00    +0.076 C 
ATOM     29  C   UNL     1      -4.787   5.500   0.046  0.00  0.00    +0.022 C 
ATOM     30  C   UNL     1      -4.982   6.653  -0.941  0.00  0.00    +0.002 C 
ATOM     31  C   UNL     1      -6.396   6.594  -1.521  0.00  0.00    +0.003 C 
ATOM     32  C   UNL     1      -6.595   5.262  -2.248  0.00  0.00    -0.009 C 
ATOM     33  C   UNL     1      -6.400   4.109  -1.261  0.00  0.00    +0.009 C 
ATOM     34  C   UNL     1      -7.421   4.229  -0.128  0.00  0.00    +0.009 C 
ATOM     35  C   UNL     1      -8.009   5.203  -2.828  0.00  0.00    +0.008 C 
ENDBRANCH  26  28
ENDBRANCH   2  24
BRANCH   1  36
ATOM     36  C   UNL     1      -1.579   0.433  -0.141  0.00  0.00    +0.074 C 
ATOM     37  C   UNL     1      -1.634  -1.073  -0.406  0.00  0.00    +0.028 C 
BRANCH  36  39
ATOM     38  C   UNL     1      -0.089   2.438  -0.107  0.00  0.00    +0.005 C 
ATOM     39  C   UNL     1      -0.129   0.914  -0.231  0.00  0.00    +0.019 C 
ENDBRANCH  36  39
ENDBRANCH   1  36
TORSDOF 7
