REMARK  Name = ZINC43263033
REMARK  12 active torsions:
REMARK  status: ('A' for Active; 'I' for Inactive)
REMARK    1  A    between atoms: C_1  and  C_2
REMARK    2  A    between atoms: C_2  and  C_3
REMARK    3  A    between atoms: C_3  and  C_4
REMARK    4  A    between atoms: C_4  and  N_5
REMARK    5  A    between atoms: N_5  and  C_6
REMARK    6  A    between atoms: N_5  and  C_10
REMARK    7  A    between atoms: C_6  and  C_7
REMARK    8  A    between atoms: C_10  and  C_12
REMARK    9  A    between atoms: C_10  and  C_18
REMARK   10  A    between atoms: C_18  and  C_20
REMARK   11  A    between atoms: C_18  and  N_22
REMARK   12  A    between atoms: C_20  and  C_21
REMARK                            x       y       z     vdW  Elec       q    Type
REMARK                         _______ _______ _______ _____ _____    ______ ____
ROOT
ATOM      1  C   UNL     1       1.613  -3.966  -2.464  0.00  0.00    -0.045 C 
ENDROOT
BRANCH   1   2
ATOM      2  C   UNL     1       2.265  -4.122  -3.814  0.00  0.00    -0.024 A 
ATOM      3  C   UNL     1       2.083  -5.092  -4.742  0.00  0.00    +0.010 A 
ATOM      4  C   UNL     1       2.798  -5.032  -5.924  0.00  0.00    +0.023 A 
ATOM      5  C   UNL     1       3.661  -4.004  -6.119  0.00  0.00    +0.055 A 
ATOM      6  S   UNL     1       3.473  -3.073  -4.607  0.00  0.00    -0.088 S 
ATOM      7 BR   UNL     1       4.770  -3.646  -7.608  0.00  0.00    -0.043 Br
ENDBRANCH   1   2
BRANCH   1   8
ATOM      8  N   UNL     1       1.033  -2.621  -2.354  0.00  0.00    +0.389 N 
ATOM      9  H   UNL     1       0.528  -2.543  -1.484  0.00  0.00    -0.080 HD
BRANCH   8  10
ATOM     10  C   UNL     1       0.113  -2.391  -3.476  0.00  0.00    -0.077 C 
BRANCH  10  11
ATOM     11  C   UNL     1      -1.069  -3.358  -3.373  0.00  0.00    -0.019 C 
BRANCH  11  13
ATOM     12  C   UNL     1      -3.273  -3.997  -4.359  0.00  0.00    +0.004 C 
ATOM     13  C   UNL     1      -2.092  -3.031  -4.463  0.00  0.00    -0.005 C 
ENDBRANCH  11  13
ENDBRANCH  10  11
ENDBRANCH   8  10
BRANCH   8  14
ATOM     14  C   UNL     1       2.107  -1.619  -2.389  0.00  0.00    +0.019 C 
BRANCH  14  15
ATOM     15  C   UNL     1       1.528  -0.253  -2.126  0.00  0.00    +0.194 C 
ATOM     16  O   UNL     1       0.360  -0.138  -1.819  0.00  0.00    -0.278 OA
ATOM     17  N   UNL     1       2.308   0.841  -2.232  0.00  0.00    -0.331 N 
ATOM     18  H   UNL     1       3.242   0.749  -2.478  0.00  0.00    +0.145 HD
ATOM     19  H   UNL     1       1.936   1.720  -2.063  0.00  0.00    +0.145 HD
ENDBRANCH  14  15
ENDBRANCH   8  14
ENDBRANCH   1   8
BRANCH   1  20
ATOM     20  C   UNL     1       2.661  -4.161  -1.366  0.00  0.00    -0.085 C 
BRANCH  20  21
ATOM     21  N   UNL     1       3.258  -5.497  -1.491  0.00  0.00    +0.379 N 
ATOM     22  H   UNL     1       3.949  -5.626  -0.766  0.00  0.00    -0.090 HD
ATOM     23  H   UNL     1       2.538  -6.197  -1.397  0.00  0.00    -0.090 HD
ATOM     24  H   UNL     1       3.698  -5.586  -2.394  0.00  0.00    -0.090 HD
ENDBRANCH  20  21
BRANCH  20  25
ATOM     25  C   UNL     1       1.994  -4.026   0.004  0.00  0.00    -0.021 C 
ATOM     26  C   UNL     1       3.053  -4.153   1.101  0.00  0.00    +0.002 C 
ENDBRANCH  20  25
ENDBRANCH   1  20
TORSDOF 10
