REMARK  Name = ZINC17445978
REMARK  8 active torsions:
REMARK  status: ('A' for Active; 'I' for Inactive)
REMARK    1  A    between atoms: C_1  and  O_2
REMARK    2  A    between atoms: O_2  and  C_3
REMARK    3  A    between atoms: C_8  and  N_9
REMARK    4  A    between atoms: N_9  and  S_10
REMARK    5  A    between atoms: S_10  and  C_13
REMARK    6  A    between atoms: C_16  and  C_19
REMARK    7  A    between atoms: N_21  and  N_22
REMARK    8  A    between atoms: C_23  and  C_25
REMARK                            x       y       z     vdW  Elec       q    Type
REMARK                         _______ _______ _______ _____ _____    ______ ____
ROOT
ATOM      1  C   UNL     1      -1.556   2.388  -1.771  0.00  0.00    +0.109 A 
ATOM      2  C   UNL     1      -1.078   3.656  -2.049  0.00  0.00    +0.029 A 
ATOM      3  C   UNL     1      -1.145   4.156  -3.333  0.00  0.00    +0.015 A 
ATOM      4  C   UNL     1      -1.706   3.383  -4.351  0.00  0.00    +0.038 A 
ATOM      5  C   UNL     1      -2.192   2.106  -4.062  0.00  0.00    +0.015 A 
ATOM      6  C   UNL     1      -2.114   1.617  -2.775  0.00  0.00    +0.029 A 
ENDROOT
BRANCH   4   7
ATOM      7  C   UNL     1      -1.786   3.914  -5.729  0.00  0.00    +0.260 C 
ATOM      8  O   UNL     1      -2.276   3.238  -6.613  0.00  0.00    -0.269 OA
ATOM      9  N   UNL     1      -1.317   5.146  -6.004  0.00  0.00    -0.230 N 
ATOM     10  H   UNL     1      -0.926   5.686  -5.298  0.00  0.00    +0.173 HD
BRANCH   9  11
ATOM     11  N   UNL     1      -1.392   5.649  -7.309  0.00  0.00    -0.230 N 
ATOM     12  C   UNL     1      -0.922   6.882  -7.585  0.00  0.00    +0.267 C 
ATOM     13  O   UNL     1      -0.433   7.559  -6.699  0.00  0.00    -0.268 OA
ATOM     14  H   UNL     1      -1.783   5.111  -8.015  0.00  0.00    +0.173 HD
BRANCH  12  15
ATOM     15  C   UNL     1      -1.002   7.409  -8.950  0.00  0.00    +0.076 A 
ATOM     16  C   UNL     1      -0.584   8.630  -9.438  0.00  0.00    +0.024 A 
ATOM     17  C   UNL     1      -0.773   8.898 -10.794  0.00  0.00    -0.036 A 
ATOM     18  C   UNL     1      -1.362   7.921 -11.534  0.00  0.00    -0.006 A 
ATOM     19  S   UNL     1      -1.655   6.635 -10.418  0.00  0.00    -0.088 S 
ATOM     20  C   UNL     1      -1.516   8.324 -12.975  0.00  0.00    +0.043 C 
ATOM     21  C   UNL     1      -1.341   9.858 -12.972  0.00  0.00    +0.010 C 
ATOM     22  C   UNL     1      -0.467  10.077 -11.721  0.00  0.00    +0.036 C 
ENDBRANCH  12  15
ENDBRANCH   9  11
ENDBRANCH   4   7
BRANCH   1  23
ATOM     23  S   UNL     1      -1.460   1.755  -0.129  0.00  0.00    +0.072 S 
ATOM     24  O   UNL     1      -2.474   0.766  -0.016  0.00  0.00    -0.150 OA
ATOM     25  O   UNL     1      -1.393   2.880   0.736  0.00  0.00    -0.150 OA
BRANCH  23  26
ATOM     26  N   UNL     1      -0.011   0.966   0.007  0.00  0.00    -0.213 N 
ATOM     27  H   UNL     1       0.007   0.019   0.216  0.00  0.00    +0.174 HD
BRANCH  26  33
ATOM     28  C   UNL     1       2.270   1.038  -0.796  0.00  0.00    +0.142 A 
ATOM     29  C   UNL     1       3.453   1.734  -0.982  0.00  0.00    +0.047 A 
ATOM     30  C   UNL     1       3.557   3.047  -0.561  0.00  0.00    +0.004 A 
ATOM     31  C   UNL     1       2.482   3.669   0.046  0.00  0.00    +0.002 A 
ATOM     32  C   UNL     1       1.297   2.983   0.232  0.00  0.00    +0.028 A 
ATOM     33  C   UNL     1       1.187   1.664  -0.183  0.00  0.00    +0.090 A 
BRANCH  28  35
ATOM     34  C   UNL     1       3.317  -0.830  -1.830  0.00  0.00    +0.277 C 
ATOM     35  O   UNL     1       2.167  -0.253  -1.210  0.00  0.00    -0.493 OA
ENDBRANCH  28  35
ENDBRANCH  26  33
ENDBRANCH  23  26
ENDBRANCH   1  23
TORSDOF 7
