REMARK  Name = ZINC32988039
REMARK  12 active torsions:
REMARK  status: ('A' for Active; 'I' for Inactive)
REMARK    1  A    between atoms: C_1  and  C_2
REMARK    2  A    between atoms: C_2  and  C_3
REMARK    3  A    between atoms: C_3  and  C_4
REMARK    4  A    between atoms: C_4  and  N_5
REMARK    5  A    between atoms: C_6  and  N_38
REMARK    6  A    between atoms: C_7  and  N_14
REMARK    7  A    between atoms: N_14  and  C_15
REMARK    8  A    between atoms: C_15  and  C_16
REMARK    9  A    between atoms: C_16  and  C_17
REMARK   10  A    between atoms: C_17  and  C_18
REMARK   11  A    between atoms: C_19  and  C_21
REMARK   12  A    between atoms: C_25  and  N_27
REMARK                            x       y       z     vdW  Elec       q    Type
REMARK                         _______ _______ _______ _____ _____    ______ ____
ROOT
ATOM      1  N   UNL     1      -3.336   1.720   0.053  0.00  0.00    -0.260 N 
ATOM      2  C   UNL     1      -2.358   0.865  -0.306  0.00  0.00    +0.251 C 
ATOM      3  O   UNL     1      -1.220   1.269  -0.452  0.00  0.00    -0.270 OA
ENDROOT
BRANCH   1   6
ATOM      4  N   UNL     1      -6.169  -0.113   1.503  0.00  0.00    -0.280 N 
ATOM      5  C   UNL     1      -4.885   0.333   1.297  0.00  0.00    +0.127 A 
ATOM      6  C   UNL     1      -4.641   1.241   0.287  0.00  0.00    +0.140 A 
ATOM      7  C   UNL     1      -5.717   1.676  -0.510  0.00  0.00    +0.277 A 
ATOM      8  O   UNL     1      -5.529   2.475  -1.412  0.00  0.00    -0.266 OA
ATOM      9  N   UNL     1      -6.956   1.204  -0.269  0.00  0.00    -0.273 N 
ATOM     10  H   UNL     1      -7.802   1.540  -0.886  0.00  0.00    +0.173 HD
ATOM     11  C   UNL     1      -7.175   0.323   0.723  0.00  0.00    +0.331 A 
ATOM     12  O   UNL     1      -8.303  -0.087   0.919  0.00  0.00    -0.246 OA
BRANCH   5  13
ATOM     13  N   UNL     1      -3.857  -0.118   2.090  0.00  0.00    -0.343 N 
ATOM     14  H   UNL     1      -2.832   0.243   1.919  0.00  0.00    +0.144 HD
ATOM     15  H   UNL     1      -4.059  -0.839   2.896  0.00  0.00    +0.144 HD
ENDBRANCH   5  13
BRANCH   4  16
ATOM     16  C   UNL     1      -6.444  -1.073   2.575  0.00  0.00    +0.128 C 
BRANCH  16  17
ATOM     17  C   UNL     1      -6.302  -2.497   2.033  0.00  0.00    +0.021 C 
BRANCH  17  19
ATOM     18  C   UNL     1      -6.446  -4.924   2.611  0.00  0.00    +0.004 C 
ATOM     19  C   UNL     1      -6.588  -3.500   3.153  0.00  0.00    -0.002 C 
ENDBRANCH  17  19
ENDBRANCH  16  17
ENDBRANCH   4  16
ENDBRANCH   1   6
BRANCH   2  20
ATOM     20  C   UNL     1      -2.668  -0.564  -0.523  0.00  0.00    +0.039 A 
ATOM     21  C   UNL     1      -3.970  -0.957  -0.841  0.00  0.00    +0.013 A 
ATOM     22  C   UNL     1      -4.258  -2.292  -1.039  0.00  0.00    +0.003 A 
ATOM     23  C   UNL     1      -3.260  -3.243  -0.927  0.00  0.00    +0.024 A 
ATOM     24  C   UNL     1      -1.962  -2.861  -0.616  0.00  0.00    +0.045 A 
ATOM     25  C   UNL     1      -1.661  -1.523  -0.416  0.00  0.00    +0.037 A 
BRANCH  24  26
ATOM     26  N   UNL     1      -0.954  -3.829  -0.504  0.00  0.00    -0.202 N 
ATOM     27  C   UNL     1       0.332  -3.560  -0.214  0.00  0.00    +0.258 C 
ATOM     28  O   UNL     1       0.796  -2.457  -0.011  0.00  0.00    -0.269 OA
ATOM     29  C   UNL     1       1.083  -4.832  -0.181  0.00  0.00    +0.050 A 
ATOM     30  C   UNL     1       2.406  -5.169   0.061  0.00  0.00    +0.014 A 
ATOM     31  C   UNL     1       2.797  -6.498   0.006  0.00  0.00    +0.001 A 
ATOM     32  C   UNL     1       1.878  -7.488  -0.287  0.00  0.00    +0.001 A 
ATOM     33  C   UNL     1       0.552  -7.166  -0.531  0.00  0.00    +0.014 A 
ATOM     34  C   UNL     1       0.146  -5.842  -0.480  0.00  0.00    +0.050 A 
ATOM     35  C   UNL     1      -1.144  -5.150  -0.679  0.00  0.00    +0.258 C 
ATOM     36  O   UNL     1      -2.200  -5.683  -0.955  0.00  0.00    -0.269 OA
ENDBRANCH  24  26
ENDBRANCH   2  20
BRANCH   1  37
ATOM     37  C   UNL     1      -3.042   3.148   0.200  0.00  0.00    +0.114 C 
BRANCH  37  38
ATOM     38  C   UNL     1      -3.095   3.824  -1.171  0.00  0.00    +0.019 C 
BRANCH  38  39
ATOM     39  C   UNL     1      -2.725   5.301  -1.026  0.00  0.00    -0.002 C 
ATOM     40  C   UNL     1      -2.778   5.977  -2.398  0.00  0.00    +0.004 C 
ENDBRANCH  38  39
ENDBRANCH  37  38
ENDBRANCH   1  37
TORSDOF 10
