REMARK  Name = ZINC39695898
REMARK  8 active torsions:
REMARK  status: ('A' for Active; 'I' for Inactive)
REMARK    1  A    between atoms: C_1  and  C_2
REMARK    2  A    between atoms: C_2  and  C_3
REMARK    3  A    between atoms: C_6  and  C_9
REMARK    4  A    between atoms: C_9  and  C_11
REMARK    5  A    between atoms: C_9  and  N_12
REMARK    6  A    between atoms: C_13  and  C_15
REMARK    7  A    between atoms: C_26  and  C_28
REMARK    8  A    between atoms: C_32  and  C_34
REMARK                            x       y       z     vdW  Elec       q    Type
REMARK                         _______ _______ _______ _____ _____    ______ ____
ROOT
ATOM      1  C   UNL     1       5.336  -4.260  -5.297  0.00  0.00    +0.100 C 
ATOM      2  C   UNL     1       6.737  -3.820  -4.816  0.00  0.00    +0.121 C 
ATOM      3  N   UNL     1       7.656  -4.859  -5.340  0.00  0.00    -0.296 N 
ATOM      4  C   UNL     1       7.133  -5.165  -6.693  0.00  0.00    +0.115 C 
ATOM      5  C   UNL     1       5.600  -5.142  -6.529  0.00  0.00    -0.004 C 
ATOM      6  C   UNL     1       5.073  -6.553  -6.291  0.00  0.00    -0.010 C 
ATOM      7  C   UNL     1       5.296  -7.395  -7.551  0.00  0.00    -0.082 C 
ATOM      8  N   UNL     1       4.599  -6.776  -8.685  0.00  0.00    +0.379 N 
ATOM      9  C   UNL     1       5.175  -5.455  -8.966  0.00  0.00    -0.082 C 
ATOM     10  C   UNL     1       4.947  -4.532  -7.766  0.00  0.00    -0.010 C 
ATOM     11  C   UNL     1       8.725  -5.402  -4.725  0.00  0.00    +0.247 C 
ATOM     12  O   UNL     1       8.954  -5.141  -3.561  0.00  0.00    -0.270 OA
ATOM     13  H   UNL     1       4.697  -7.364  -9.499  0.00  0.00    -0.086 HD
ATOM     14  H   UNL     1       3.621  -6.675  -8.462  0.00  0.00    -0.086 HD
ENDROOT
BRANCH  11  15
ATOM     15  C   UNL     1       9.618  -6.317  -5.467  0.00  0.00    +0.037 A 
ATOM     16  C   UNL     1       9.640  -6.297  -6.863  0.00  0.00    +0.013 A 
ATOM     17  C   UNL     1      10.477  -7.152  -7.549  0.00  0.00    +0.001 A 
ATOM     18  C   UNL     1      11.293  -8.030  -6.857  0.00  0.00    +0.003 A 
ATOM     19  C   UNL     1      11.276  -8.055  -5.474  0.00  0.00    -0.050 A 
ATOM     20  C   UNL     1      10.448  -7.201  -4.775  0.00  0.00    +0.016 A 
ATOM     21  C   UNL     1      12.167  -9.015  -4.728  0.00  0.00    +0.044 C 
ENDBRANCH  11  15
BRANCH   1  23
ATOM     22  N   UNL     1       3.171  -3.089  -5.543  0.00  0.00    -0.308 N 
ATOM     23  C   UNL     1       4.512  -3.058  -5.679  0.00  0.00    +0.219 C 
ATOM     24  O   UNL     1       5.054  -2.062  -6.109  0.00  0.00    -0.275 OA
ATOM     25  H   UNL     1       2.737  -3.885  -5.199  0.00  0.00    +0.149 HD
BRANCH  22  26
ATOM     26  C   UNL     1       2.370  -1.920  -5.914  0.00  0.00    +0.100 C 
ATOM     27  C   UNL     1       2.319  -0.942  -4.739  0.00  0.00    +0.033 C 
BRANCH  26  31
ATOM     28  C   UNL     1      -1.595  -3.169  -6.901  0.00  0.00    -0.048 A 
ATOM     29  C   UNL     1      -0.974  -2.185  -7.647  0.00  0.00    +0.004 A 
ATOM     30  C   UNL     1       0.309  -1.781  -7.328  0.00  0.00    +0.006 A 
ATOM     31  C   UNL     1       0.971  -2.360  -6.262  0.00  0.00    -0.027 A 
ATOM     32  C   UNL     1       0.350  -3.344  -5.515  0.00  0.00    +0.006 A 
ATOM     33  C   UNL     1      -0.934  -3.745  -5.832  0.00  0.00    +0.004 A 
BRANCH  28  35
ATOM     34  C   UNL     1      -4.003  -2.748  -6.490  0.00  0.00    +0.009 C 
ATOM     35  C   UNL     1      -2.993  -3.610  -7.249  0.00  0.00    +0.032 C 
ENDBRANCH  28  35
ENDBRANCH  26  31
ENDBRANCH  22  26
ENDBRANCH   1  23
TORSDOF 5
