REMARK  Name = ZINC09262319
REMARK  15 active torsions:
REMARK  status: ('A' for Active; 'I' for Inactive)
REMARK    1  A    between atoms: C_1  and  C_2
REMARK    2  A    between atoms: C_2  and  N_3
REMARK    3  A    between atoms: C_4  and  C_22
REMARK    4  A    between atoms: C_7  and  S_8
REMARK    5  A    between atoms: S_8  and  C_9
REMARK    6  A    between atoms: C_9  and  C_10
REMARK    7  A    between atoms: N_12  and  C_13
REMARK    8  A    between atoms: C_16  and  N_19
REMARK    9  A    between atoms: C_22  and  C_24
REMARK   10  A    between atoms: C_22  and  N_27
REMARK   11  A    between atoms: C_24  and  C_25
REMARK   12  A    between atoms: C_24  and  C_26
REMARK   13  A    between atoms: C_28  and  C_30
REMARK   14  A    between atoms: C_33  and  O_36
REMARK   15  A    between atoms: O_36  and  C_37
REMARK                            x       y       z     vdW  Elec       q    Type
REMARK                         _______ _______ _______ _____ _____    ______ ____
ROOT
ATOM      1  N   UNL     1      -0.181   2.778   4.539  0.00  0.00    -0.305 N 
ATOM      2  C   UNL     1      -0.711   1.758   3.798  0.00  0.00    +0.155 A 
ATOM      3  N   UNL     1      -1.792   1.358   4.407  0.00  0.00    -0.132 NA
ATOM      4  N   UNL     1      -1.982   2.053   5.471  0.00  0.00    -0.122 NA
ATOM      5  C   UNL     1      -1.024   2.942   5.600  0.00  0.00    +0.192 A 
ENDROOT
BRANCH   1   7
ATOM      6  C   UNL     1       0.684   4.777   3.426  0.00  0.00    +0.027 C 
ATOM      7  C   UNL     1       1.038   3.539   4.252  0.00  0.00    +0.122 C 
ENDBRANCH   1   7
BRANCH   5   8
ATOM      8  S   UNL     1      -0.856   4.119   6.900  0.00  0.00    -0.077 S 
BRANCH   8   9
ATOM      9  C   UNL     1      -2.318   3.710   7.886  0.00  0.00    +0.173 C 
BRANCH   9  10
ATOM     10  C   UNL     1      -2.384   4.617   9.088  0.00  0.00    +0.227 C 
ATOM     11  O   UNL     1      -1.526   5.457   9.261  0.00  0.00    -0.275 OA
ATOM     12  N   UNL     1      -3.394   4.494   9.971  0.00  0.00    -0.285 N 
ATOM     13  H   UNL     1      -4.116   3.869   9.798  0.00  0.00    +0.155 HD
BRANCH  12  14
ATOM     14  C   UNL     1      -3.404   5.268  11.136  0.00  0.00    +0.034 A 
ATOM     15  C   UNL     1      -3.906   4.740  12.318  0.00  0.00    +0.025 A 
ATOM     16  C   UNL     1      -3.908   5.504  13.468  0.00  0.00    +0.034 A 
ATOM     17  C   UNL     1      -3.422   6.799  13.441  0.00  0.00    +0.126 A 
ATOM     18  C   UNL     1      -2.926   7.329  12.264  0.00  0.00    +0.034 A 
ATOM     19  C   UNL     1      -2.916   6.568  11.112  0.00  0.00    +0.025 A 
BRANCH  17  20
ATOM     20  N   UNL     1      -3.431   7.617  14.674  0.00  0.00    +0.056 N 
ATOM     21  O   UNL     1      -3.003   8.757  14.651  0.00  0.00    -0.126 OA
ATOM     22  O   UNL     1      -3.868   7.151  15.711  0.00  0.00    -0.126 OA
ENDBRANCH  17  20
ENDBRANCH  12  14
ENDBRANCH   9  10
ENDBRANCH   8   9
ENDBRANCH   5   8
BRANCH   2  23
ATOM     23  C   UNL     1      -0.147   1.197   2.519  0.00  0.00    +0.144 C 
BRANCH  23  24
ATOM     24  N   UNL     1       0.030  -0.251   2.657  0.00  0.00    -0.301 N 
ATOM     25  C   UNL     1       0.944  -0.893   1.902  0.00  0.00    +0.245 C 
ATOM     26  O   UNL     1       1.621  -0.271   1.107  0.00  0.00    -0.270 OA
ATOM     27  H   UNL     1      -0.510  -0.747   3.291  0.00  0.00    +0.150 HD
BRANCH  25  28
ATOM     28  C   UNL     1       1.122  -2.352   2.041  0.00  0.00    +0.037 A 
ATOM     29  C   UNL     1       0.349  -3.068   2.959  0.00  0.00    +0.016 A 
ATOM     30  C   UNL     1       0.515  -4.429   3.082  0.00  0.00    +0.046 A 
ATOM     31  C   UNL     1       1.458  -5.089   2.303  0.00  0.00    +0.120 A 
ATOM     32  C   UNL     1       2.232  -4.380   1.393  0.00  0.00    +0.046 A 
ATOM     33  C   UNL     1       2.069  -3.019   1.260  0.00  0.00    +0.016 A 
BRANCH  31  34
ATOM     34  O   UNL     1       1.622  -6.430   2.432  0.00  0.00    -0.495 OA
ATOM     35  C   UNL     1       0.793  -7.097   3.385  0.00  0.00    +0.277 C 
ENDBRANCH  31  34
ENDBRANCH  25  28
ENDBRANCH  23  24
BRANCH  23  36
ATOM     36  C   UNL     1      -1.111   1.485   1.366  0.00  0.00    +0.011 C 
ATOM     37  C   UNL     1      -0.487   1.019   0.050  0.00  0.00    +0.009 C 
ATOM     38  C   UNL     1      -1.386   2.989   1.296  0.00  0.00    +0.009 C 
ENDBRANCH  23  36
ENDBRANCH   2  23
TORSDOF 11
