REMARK  Name = ZINC58745104
REMARK  9 active torsions:
REMARK  status: ('A' for Active; 'I' for Inactive)
REMARK    1  A    between atoms: C_1  and  C_2
REMARK    2  A    between atoms: C_2  and  C_3
REMARK    3  A    between atoms: C_2  and  C_4
REMARK    4  A    between atoms: C_2  and  C_5
REMARK    5  A    between atoms: C_12  and  C_14
REMARK    6  A    between atoms: N_16  and  C_17
REMARK    7  A    between atoms: C_17  and  C_18
REMARK    8  A    between atoms: C_22  and  S_24
REMARK    9  A    between atoms: S_24  and  N_27
REMARK                            x       y       z     vdW  Elec       q    Type
REMARK                         _______ _______ _______ _____ _____    ______ ____
ROOT
ATOM      1  C   UNL     1       6.007  -0.739  -4.545  0.00  0.00    +0.251 C 
ATOM      2  O   UNL     1       6.936  -0.498  -3.797  0.00  0.00    -0.270 OA
ATOM      3  N   UNL     1       6.246  -1.084  -5.826  0.00  0.00    -0.307 N 
ATOM      4  H   UNL     1       5.505  -1.276  -6.423  0.00  0.00    +0.149 HD
ENDROOT
BRANCH   1  11
ATOM      5  C   UNL     1       0.718  -0.497  -1.257  0.00  0.00    -0.001 C 
ATOM      6  C   UNL     1      -0.026   0.007  -2.496  0.00  0.00    +0.009 C 
ATOM      7  C   UNL     1       0.533  -0.709  -3.733  0.00  0.00    +0.043 C 
ATOM      8  C   UNL     1       2.032  -0.643  -3.684  0.00  0.00    -0.006 A 
ATOM      9  C   UNL     1       2.798  -0.317  -2.603  0.00  0.00    -0.036 A 
ATOM     10  C   UNL     1       4.173  -0.320  -2.792  0.00  0.00    +0.024 A 
ATOM     11  C   UNL     1       4.629  -0.652  -4.054  0.00  0.00    +0.074 A 
ATOM     12  S   UNL     1       3.103  -0.949  -4.927  0.00  0.00    -0.088 S 
ATOM     13  C   UNL     1       2.154   0.029  -1.264  0.00  0.00    +0.040 C 
BRANCH   5  15
ATOM     14  C   UNL     1      -0.019   1.526   0.010  0.00  0.00    +0.011 C 
ATOM     15  C   UNL     1       0.002  -0.004   0.002  0.00  0.00    -0.035 C 
ATOM     16  C   UNL     1       0.742  -0.511   1.242  0.00  0.00    +0.011 C 
ATOM     17  C   UNL     1      -1.433  -0.534   0.013  0.00  0.00    +0.011 C 
ENDBRANCH   5  15
ENDBRANCH   1  11
BRANCH   3  18
ATOM     18  C   UNL     1       7.623  -1.171  -6.317  0.00  0.00    +0.140 C 
BRANCH  18  19
ATOM     19  C   UNL     1       7.614  -1.573  -7.769  0.00  0.00    -0.028 A 
ATOM     20  C   UNL     1       7.646  -2.910  -8.117  0.00  0.00    +0.005 A 
ATOM     21  C   UNL     1       7.638  -3.279  -9.449  0.00  0.00    +0.002 A 
ATOM     22  C   UNL     1       7.598  -2.310 -10.434  0.00  0.00    +0.028 A 
ATOM     23  C   UNL     1       7.565  -0.973 -10.087  0.00  0.00    +0.105 A 
ATOM     24  C   UNL     1       7.569  -0.604  -8.754  0.00  0.00    +0.033 A 
BRANCH  23  25
ATOM     25  S   UNL     1       7.514   0.262 -11.343  0.00  0.00    +0.056 S 
ATOM     26  O   UNL     1       8.040   1.450 -10.766  0.00  0.00    -0.153 OA
ATOM     27  O   UNL     1       8.066  -0.325 -12.513  0.00  0.00    -0.153 OA
BRANCH  25  28
ATOM     28  N   UNL     1       5.919   0.561 -11.671  0.00  0.00    -0.204 NA
ATOM     29  H   UNL     1       5.226   0.080 -11.192  0.00  0.00    +0.144 HD
ATOM     30  H   UNL     1       5.677   1.218 -12.342  0.00  0.00    +0.144 HD
ENDBRANCH  25  28
ENDBRANCH  23  25
ENDBRANCH  18  19
ENDBRANCH   3  18
TORSDOF 6
