REMARK  Name = ZINC19320557
REMARK  7 active torsions:
REMARK  status: ('A' for Active; 'I' for Inactive)
REMARK    1  A    between atoms: C_1  and  C_2
REMARK    2  A    between atoms: C_2  and  C_3
REMARK    3  A    between atoms: C_3  and  N_4
REMARK    4  A    between atoms: N_10  and  C_11
REMARK    5  A    between atoms: C_15  and  C_23
REMARK    6  A    between atoms: C_16  and  C_22
REMARK    7  A    between atoms: C_19  and  C_21
REMARK                            x       y       z     vdW  Elec       q    Type
REMARK                         _______ _______ _______ _____ _____    ______ ____
ROOT
ATOM      1  C   UNL     1       2.712  -6.200  -2.770  0.00  0.00    +0.254 A 
ATOM      2  N   UNL     1       3.454  -7.294  -2.857  0.00  0.00    -0.211 NA
ATOM      3  C   UNL     1       3.674  -7.864  -4.047  0.00  0.00    +0.077 A 
ATOM      4  C   UNL     1       4.454  -9.023  -4.182  0.00  0.00    +0.032 A 
ATOM      5  C   UNL     1       4.647  -9.564  -5.417  0.00  0.00    -0.045 A 
ATOM      6  C   UNL     1       4.082  -8.986  -6.551  0.00  0.00    -0.047 A 
ATOM      7  C   UNL     1       3.319  -7.861  -6.459  0.00  0.00    +0.015 A 
ATOM      8  C   UNL     1       3.099  -7.276  -5.204  0.00  0.00    +0.022 A 
ATOM      9  C   UNL     1       2.318  -6.114  -5.048  0.00  0.00    +0.051 A 
ATOM     10  N   UNL     1       2.151  -5.626  -3.839  0.00  0.00    -0.215 NA
ATOM     11  C   UNL     1       1.684  -5.448  -6.242  0.00  0.00    +0.066 C 
ATOM     12  C   UNL     1       4.319  -9.614  -7.901  0.00  0.00    +0.044 C 
ATOM     13  C   UNL     1       5.485 -10.808  -5.558  0.00  0.00    +0.044 C 
ENDROOT
BRANCH   1  20
ATOM     14  N   UNL     1       0.738  -1.966  -1.265  0.00  0.00    -0.271 NA
ATOM     15  C   UNL     1       1.566  -2.489  -0.166  0.00  0.00    +0.193 C 
ATOM     16  N   UNL     1       1.532  -3.960  -0.208  0.00  0.00    -0.304 N 
ATOM     17  C   UNL     1       1.768  -4.560  -1.430  0.00  0.00    +0.185 C 
ATOM     18  N   UNL     1       1.181  -3.952  -2.523  0.00  0.00    -0.304 N 
ATOM     19  C   UNL     1       1.203  -2.480  -2.563  0.00  0.00    +0.193 C 
ATOM     20  N   UNL     1       2.507  -5.644  -1.546  0.00  0.00    -0.181 NA
ATOM     21  H   UNL     1       1.352  -4.485   0.588  0.00  0.00    +0.150 HD
ATOM     22  H   UNL     1       0.773  -4.471  -3.233  0.00  0.00    +0.150 HD
BRANCH  14  23
ATOM     23  C   UNL     1       0.718  -0.497  -1.257  0.00  0.00    +0.087 C 
BRANCH  23  25
ATOM     24  C   UNL     1      -0.019   1.526   0.010  0.00  0.00    +0.005 C 
ATOM     25  C   UNL     1       0.002  -0.004   0.002  0.00  0.00    +0.012 C 
ENDBRANCH  23  25
ENDBRANCH  14  23
ENDBRANCH   1  20
TORSDOF 3
