REMARK  Name = ZINC06894709
REMARK  5 active torsions:
REMARK  status: ('A' for Active; 'I' for Inactive)
REMARK    1  A    between atoms: C_1  and  C_2
REMARK    2  A    between atoms: C_8  and  C_9
REMARK    3  A    between atoms: C_8  and  N_60
REMARK    4  A    between atoms: C_9  and  N_10
REMARK    5  A    between atoms: C_11  and  C_13
REMARK                            x       y       z     vdW  Elec       q    Type
REMARK                         _______ _______ _______ _____ _____    ______ ____
ROOT
ATOM      1  C   UNL     1       1.013   1.923  -0.296  0.00  0.00    +0.076 C 
ATOM      2  C   UNL     1       1.562   0.664  -1.021  0.00  0.00    -0.003 C 
ATOM      3  C   UNL     1       0.732  -0.465  -0.364  0.00  0.00    -0.066 C 
ATOM      4  C   UNL     1       0.578  -1.638  -1.344  0.00  0.00    -0.017 C 
ATOM      5  C   UNL     1      -0.932  -1.700  -1.667  0.00  0.00    -0.020 C 
ATOM      6  C   UNL     1      -1.407  -0.247  -1.365  0.00  0.00    -0.077 C 
ATOM      7  C   UNL     1      -0.471   1.583  -0.096  0.00  0.00    +0.052 C 
ATOM      8  C   UNL     1      -0.972   2.123   1.217  0.00  0.00    -0.027 A 
ATOM      9  C   UNL     1      -0.615   1.899   2.527  0.00  0.00    +0.004 A 
ATOM     10  C   UNL     1      -1.277   2.559   3.547  0.00  0.00    +0.000 A 
ATOM     11  C   UNL     1      -2.298   3.442   3.246  0.00  0.00    +0.002 A 
ATOM     12  C   UNL     1      -2.658   3.670   1.935  0.00  0.00    +0.023 A 
ATOM     13  C   UNL     1      -1.997   3.009   0.902  0.00  0.00    +0.036 A 
ATOM     14  N   UNL     1      -2.175   3.069  -0.482  0.00  0.00    -0.286 N 
ATOM     15  C   UNL     1      -1.320   2.264  -1.140  0.00  0.00    +0.212 C 
ATOM     16  O   UNL     1      -1.247   2.115  -2.341  0.00  0.00    -0.277 OA
ATOM     17  H   UNL     1      -2.837   3.627  -0.918  0.00  0.00    +0.155 HD
ATOM     18  N   UNL     1      -0.595   0.115  -0.188  0.00  0.00    +0.394 N 
ATOM     19  H   UNL     1      -1.031  -0.251   0.666  0.00  0.00    -0.079 HD
ENDROOT
BRANCH   1  21
ATOM     20  N   UNL     1       1.073   4.375  -0.615  0.00  0.00    -0.317 N 
ATOM     21  C   UNL     1       1.169   3.147  -1.161  0.00  0.00    +0.215 C 
ATOM     22  O   UNL     1       1.380   3.027  -2.349  0.00  0.00    -0.276 OA
ATOM     23  H   UNL     1       0.904   4.471   0.336  0.00  0.00    +0.149 HD
BRANCH  20  24
ATOM     24  C   UNL     1       1.224   5.566  -1.456  0.00  0.00    +0.085 C 
BRANCH  24  25
ATOM     25  C   UNL     1       1.072   6.821  -0.595  0.00  0.00    -0.059 C 
BRANCH  25  32
ATOM     26  C   UNL     1      -0.639   9.021  -0.208  0.00  0.00    -0.013 C 
ATOM     27  C   UNL     1       0.788   9.222  -0.725  0.00  0.00    -0.072 C 
ATOM     28  C   UNL     1       0.822  10.419  -1.677  0.00  0.00    -0.016 C 
ATOM     29  C   UNL     1       2.247  10.603  -2.207  0.00  0.00    -0.003 C 
ATOM     30  C   UNL     1       2.694   9.315  -2.903  0.00  0.00    -0.019 C 
ATOM     31  C   UNL     1       2.606   8.149  -1.915  0.00  0.00    -0.078 C 
ATOM     32  N   UNL     1       1.206   8.010  -1.462  0.00  0.00    +0.382 N 
ATOM     33  H   UNL     1       0.600   7.894  -2.282  0.00  0.00    -0.081 HD
ENDBRANCH  25  32
ENDBRANCH  24  25
ENDBRANCH  20  24
ENDBRANCH   1  21
TORSDOF 4
