REMARK  Name = ZINC39771540
REMARK  11 active torsions:
REMARK  status: ('A' for Active; 'I' for Inactive)
REMARK    1  A    between atoms: C_1  and  C_2
REMARK    2  A    between atoms: C_6  and  C_7
REMARK    3  A    between atoms: N_9  and  C_10
REMARK    4  A    between atoms: C_12  and  C_20
REMARK    5  A    between atoms: C_14  and  C_16
REMARK    6  A    between atoms: C_16  and  O_18
REMARK    7  A    between atoms: O_18  and  C_19
REMARK    8  A    between atoms: C_20  and  O_22
REMARK    9  A    between atoms: O_22  and  C_23
REMARK   10  A    between atoms: C_25  and  C_29
REMARK   11  A    between atoms: C_25  and  C_30
REMARK                            x       y       z     vdW  Elec       q    Type
REMARK                         _______ _______ _______ _____ _____    ______ ____
ROOT
ATOM      1  C   UNL     1       0.034  -0.394   2.490  0.00  0.00    +0.284 C 
ATOM      2  O   UNL     1       0.029   0.792   2.759  0.00  0.00    -0.266 OA
ATOM      3  N   UNL     1       0.054  -1.309   3.480  0.00  0.00    -0.279 N 
ATOM      4  H   UNL     1      -0.010  -2.254   3.269  0.00  0.00    +0.155 HD
ENDROOT
BRANCH   1  10
ATOM      5  C   UNL     1      -0.013   1.502   0.010  0.00  0.00    +0.048 C 
ATOM      6  C   UNL     1      -0.003  -0.005   0.002  0.00  0.00    +0.011 A 
ATOM      7  C   UNL     1      -0.007  -0.841  -1.125  0.00  0.00    +0.062 A 
ATOM      8  C   UNL     1       0.004  -2.152  -0.662  0.00  0.00    +0.117 A 
ATOM      9  O   UNL     1       0.018  -2.114   0.664  0.00  0.00    -0.454 OA
ATOM     10  C   UNL     1       0.018  -0.830   1.089  0.00  0.00    +0.193 A 
ATOM     11  C   UNL     1      -0.003  -3.345  -1.584  0.00  0.00    +0.082 C 
ATOM     12  C   UNL     1      -0.526  -2.918  -2.958  0.00  0.00    -0.021 C 
ATOM     13  C   UNL     1       0.253  -1.707  -3.483  0.00  0.00    +0.086 C 
ATOM     14  C   UNL     1      -0.018  -0.527  -2.562  0.00  0.00    +0.167 C 
ATOM     15  O   UNL     1      -0.228   0.592  -2.982  0.00  0.00    -0.292 OA
ATOM     16  C   UNL     1      -2.007  -2.551  -2.842  0.00  0.00    +0.012 C 
ATOM     17  C   UNL     1      -0.371  -4.081  -3.940  0.00  0.00    +0.012 C 
ENDBRANCH   1  10
BRANCH   3  18
ATOM     18  C   UNL     1       0.166  -0.897   4.812  0.00  0.00    +0.035 A 
ATOM     19  C   UNL     1      -0.443   0.279   5.226  0.00  0.00    +0.038 A 
ATOM     20  C   UNL     1      -0.333   0.694   6.555  0.00  0.00    +0.062 A 
ATOM     21  C   UNL     1       0.390  -0.075   7.465  0.00  0.00    +0.030 A 
ATOM     22  C   UNL     1       1.001  -1.256   7.046  0.00  0.00    +0.062 A 
ATOM     23  C   UNL     1       0.882  -1.667   5.717  0.00  0.00    +0.038 A 
BRANCH  22  24
ATOM     24  C   UNL     1       1.768  -2.074   8.008  0.00  0.00    +0.339 C 
ATOM     25  O   UNL     1       2.300  -3.102   7.641  0.00  0.00    -0.245 OA
BRANCH  24  26
ATOM     26  O   UNL     1       1.878  -1.678   9.291  0.00  0.00    -0.464 OA
ATOM     27  C   UNL     1       2.635  -2.518  10.166  0.00  0.00    +0.280 C 
ENDBRANCH  24  26
ENDBRANCH  22  24
BRANCH  20  28
ATOM     28  C   UNL     1      -0.981   1.946   6.995  0.00  0.00    +0.339 C 
ATOM     29  O   UNL     1      -1.611   2.616   6.201  0.00  0.00    -0.245 OA
BRANCH  28  30
ATOM     30  O   UNL     1      -0.874   2.346   8.277  0.00  0.00    -0.464 OA
ATOM     31  C   UNL     1      -1.526   3.567   8.633  0.00  0.00    +0.280 C 
ENDBRANCH  28  30
ENDBRANCH  20  28
ENDBRANCH   3  18
TORSDOF 6
