REMARK  Name = ZINC22427804
REMARK  13 active torsions:
REMARK  status: ('A' for Active; 'I' for Inactive)
REMARK    1  A    between atoms: C_1  and  C_2
REMARK    2  A    between atoms: C_2  and  C_3
REMARK    3  A    between atoms: C_2  and  N_4
REMARK    4  A    between atoms: N_4  and  S_5
REMARK    5  A    between atoms: S_5  and  C_8
REMARK    6  A    between atoms: C_11  and  O_34
REMARK    7  A    between atoms: C_12  and  N_14
REMARK    8  A    between atoms: C_15  and  C_17
REMARK    9  A    between atoms: C_17  and  N_18
REMARK   10  A    between atoms: N_18  and  C_19
REMARK   11  A    between atoms: N_18  and  S_25
REMARK   12  A    between atoms: S_25  and  C_28
REMARK   13  A    between atoms: O_34  and  C_35
REMARK                            x       y       z     vdW  Elec       q    Type
REMARK                         _______ _______ _______ _____ _____    ______ ____
ROOT
ATOM      1  N   UNL     1      -2.502   2.128  -5.397  0.00  0.00    -0.281 N 
ATOM      2  C   UNL     1      -2.979   0.884  -5.193  0.00  0.00    +0.236 C 
ATOM      3  O   UNL     1      -2.838   0.350  -4.113  0.00  0.00    -0.274 OA
ATOM      4  H   UNL     1      -2.701   2.644  -6.348  0.00  0.00    +0.155 HD
ENDROOT
BRANCH   1   9
ATOM      5  C   UNL     1      -1.304   3.165  -2.077  0.00  0.00    +0.107 A 
ATOM      6  C   UNL     1      -0.279   4.027  -2.422  0.00  0.00    +0.032 A 
ATOM      7  C   UNL     1       0.019   4.254  -3.752  0.00  0.00    +0.049 A 
ATOM      8  C   UNL     1      -0.717   3.628  -4.745  0.00  0.00    +0.141 A 
ATOM      9  C   UNL     1      -1.754   2.764  -4.398  0.00  0.00    +0.077 A 
ATOM     10  C   UNL     1      -2.044   2.536  -3.061  0.00  0.00    +0.055 A 
BRANCH   5  11
ATOM     11  S   UNL     1      -1.674   2.874  -0.379  0.00  0.00    +0.059 S 
ATOM     12  O   UNL     1      -3.031   2.458  -0.324  0.00  0.00    -0.153 OA
ATOM     13  O   UNL     1      -1.194   4.002   0.340  0.00  0.00    -0.153 OA
BRANCH  11  14
ATOM     14  N   UNL     1      -0.762   1.580   0.106  0.00  0.00    -0.187 NA
ATOM     15  H   UNL     1      -1.247   0.604   0.250  0.00  0.00    +0.148 HD
BRANCH  14  17
ATOM     16  C   UNL     1       1.249   0.869   1.303  0.00  0.00    +0.025 C 
ATOM     17  C   UNL     1       0.700   1.682   0.129  0.00  0.00    +0.070 C 
ATOM     18  C   UNL     1       1.270   1.135  -1.181  0.00  0.00    +0.025 C 
ENDBRANCH  14  17
ENDBRANCH  11  14
ENDBRANCH   5  11
BRANCH   8  19
ATOM     19  O   UNL     1      -0.429   3.855  -6.054  0.00  0.00    -0.493 OA
ATOM     20  C   UNL     1       0.648   4.752  -6.335  0.00  0.00    +0.277 C 
ENDBRANCH   8  19
ENDBRANCH   1   9
BRANCH   2  21
ATOM     21  C   UNL     1      -3.688   0.157  -6.307  0.00  0.00    +0.227 C 
BRANCH  21  22
ATOM     22  N   UNL     1      -4.107  -1.166  -5.837  0.00  0.00    -0.194 N 
BRANCH  22  23
ATOM     23  C   UNL     1      -3.214  -2.239  -5.884  0.00  0.00    +0.052 A 
ATOM     24  C   UNL     1      -3.693  -3.540  -5.970  0.00  0.00    +0.025 A 
ATOM     25  C   UNL     1      -2.808  -4.599  -6.021  0.00  0.00    +0.002 A 
ATOM     26  C   UNL     1      -1.445  -4.365  -5.976  0.00  0.00    +0.000 A 
ATOM     27  C   UNL     1      -0.965  -3.072  -5.885  0.00  0.00    +0.002 A 
ATOM     28  C   UNL     1      -1.845  -2.008  -5.839  0.00  0.00    +0.025 A 
ENDBRANCH  22  23
BRANCH  22  29
ATOM     29  S   UNL     1      -5.639  -1.389  -5.249  0.00  0.00    +0.075 S 
ATOM     30  O   UNL     1      -5.571  -2.479  -4.340  0.00  0.00    -0.150 OA
ATOM     31  O   UNL     1      -6.118  -0.107  -4.868  0.00  0.00    -0.150 OA
BRANCH  29  32
ATOM     32  C   UNL     1      -6.641  -1.921  -6.598  0.00  0.00    +0.109 A 
ATOM     33  C   UNL     1      -7.182  -0.990  -7.465  0.00  0.00    +0.029 A 
ATOM     34  C   UNL     1      -7.965  -1.408  -8.526  0.00  0.00    +0.002 A 
ATOM     35  C   UNL     1      -8.214  -2.754  -8.713  0.00  0.00    +0.000 A 
ATOM     36  C   UNL     1      -7.678  -3.684  -7.841  0.00  0.00    +0.002 A 
ATOM     37  C   UNL     1      -6.891  -3.267  -6.784  0.00  0.00    +0.029 A 
ENDBRANCH  29  32
ENDBRANCH  22  29
ENDBRANCH  21  22
ENDBRANCH   2  21
TORSDOF 10
