REMARK  Name = ZINC04953890
REMARK  10 active torsions:
REMARK  status: ('A' for Active; 'I' for Inactive)
REMARK    1  A    between atoms: C_1  and  C_2
REMARK    2  A    between atoms: C_2  and  C_3
REMARK    3  A    between atoms: C_3  and  C_4
REMARK    4  A    between atoms: C_3  and  C_5
REMARK    5  A    between atoms: C_3  and  C_6
REMARK    6  A    between atoms: N_19  and  N_20
REMARK    7  A    between atoms: C_21  and  C_22
REMARK    8  A    between atoms: C_21  and  C_23
REMARK    9  A    between atoms: C_26  and  O_29
REMARK   10  A    between atoms: O_29  and  C_30
REMARK                            x       y       z     vdW  Elec       q    Type
REMARK                         _______ _______ _______ _____ _____    ______ ____
ROOT
ATOM      1  C   UNL     1       0.138   2.323   2.534  0.00  0.00    -0.001 C 
ATOM      2  C   UNL     1       1.431   2.674   3.277  0.00  0.00    +0.009 C 
ATOM      3  C   UNL     1       1.349   4.134   3.742  0.00  0.00    +0.043 C 
ATOM      4  C   UNL     1       0.020   4.351   4.397  0.00  0.00    -0.004 A 
ATOM      5  C   UNL     1      -1.066   3.546   4.333  0.00  0.00    -0.024 A 
ATOM      6  C   UNL     1      -2.244   3.981   5.063  0.00  0.00    +0.052 A 
ATOM      7  C   UNL     1      -3.499   3.312   5.149  0.00  0.00    +0.150 A 
ATOM      8  N   UNL     1      -4.431   3.917   5.885  0.00  0.00    -0.219 NA
ATOM      9  C   UNL     1      -4.245   5.062   6.511  0.00  0.00    +0.224 A 
ATOM     10  N   UNL     1      -3.101   5.736   6.474  0.00  0.00    -0.228 NA
ATOM     11  C   UNL     1      -2.123   5.207   5.766  0.00  0.00    +0.114 A 
ATOM     12  S   UNL     1      -0.469   5.714   5.424  0.00  0.00    -0.073 S 
ATOM     13  N   UNL     1      -3.736   2.110   4.508  0.00  0.00    -0.220 N 
ATOM     14  C   UNL     1      -1.025   2.252   3.524  0.00  0.00    +0.040 C 
ATOM     15  H   UNL     1      -2.995   1.530   4.276  0.00  0.00    +0.176 HD
ENDROOT
BRANCH   1  16
ATOM     16  C   UNL     1       0.301   0.968   1.843  0.00  0.00    -0.032 C 
ATOM     17  C   UNL     1       0.734  -0.080   2.870  0.00  0.00    +0.011 C 
ATOM     18  C   UNL     1      -1.033   0.550   1.219  0.00  0.00    +0.011 C 
BRANCH  16  20
ATOM     19  C   UNL     1       1.526  -0.277   0.056  0.00  0.00    +0.004 C 
ATOM     20  C   UNL     1       1.364   1.078   0.748  0.00  0.00    +0.003 C 
ENDBRANCH  16  20
ENDBRANCH   1  16
BRANCH  13  21
ATOM     21  N   UNL     1      -5.048   1.730   4.194  0.00  0.00    -0.186 NA
ATOM     22  C   UNL     1      -5.278   0.566   3.667  0.00  0.00    +0.063 C 
ATOM     23  C   UNL     1      -6.659   0.224   3.169  0.00  0.00    +0.068 C 
BRANCH  22  24
ATOM     24  C   UNL     1      -4.189  -0.421   3.557  0.00  0.00    -0.002 A 
ATOM     25  C   UNL     1      -3.246  -0.542   4.581  0.00  0.00    +0.013 A 
ATOM     26  C   UNL     1      -2.232  -1.470   4.476  0.00  0.00    +0.046 A 
ATOM     27  C   UNL     1      -2.142  -2.278   3.350  0.00  0.00    +0.120 A 
ATOM     28  C   UNL     1      -3.074  -2.158   2.327  0.00  0.00    +0.046 A 
ATOM     29  C   UNL     1      -4.094  -1.236   2.426  0.00  0.00    +0.013 A 
BRANCH  27  30
ATOM     30  O   UNL     1      -1.138  -3.188   3.248  0.00  0.00    -0.495 OA
ATOM     31  C   UNL     1      -0.214  -3.259   4.336  0.00  0.00    +0.277 C 
ENDBRANCH  27  30
ENDBRANCH  22  24
ENDBRANCH  13  21
TORSDOF 5
