REMARK  Name = ZINC16044763
REMARK  14 active torsions:
REMARK  status: ('A' for Active; 'I' for Inactive)
REMARK    1  A    between atoms: C_1  and  C_2
REMARK    2  A    between atoms: C_2  and  O_3
REMARK    3  A    between atoms: O_3  and  C_4
REMARK    4  A    between atoms: C_4  and  C_6
REMARK    5  A    between atoms: C_7  and  C_14
REMARK    6  A    between atoms: C_8  and  C_12
REMARK    7  A    between atoms: C_9  and  N_11
REMARK    8  A    between atoms: C_14  and  O_15
REMARK    9  A    between atoms: O_15  and  C_16
REMARK   10  A    between atoms: C_16  and  C_18
REMARK   11  A    between atoms: N_21  and  S_24
REMARK   12  A    between atoms: S_24  and  C_27
REMARK   13  A    between atoms: C_30  and  C_34
REMARK   14  A    between atoms: C_31  and  C_33
REMARK                            x       y       z     vdW  Elec       q    Type
REMARK                         _______ _______ _______ _____ _____    ______ ____
ROOT
ATOM      1  C   UNL     1      -2.356   3.760  -5.645  0.00  0.00    +0.311 C 
ATOM      2  O   UNL     1      -2.137   2.600  -5.899  0.00  0.00    -0.251 OA
ENDROOT
BRANCH   1   3
ATOM      3  C   UNL     1      -3.026   4.135  -4.348  0.00  0.00    +0.100 C 
ATOM      4  C   UNL     1      -3.322   2.868  -3.542  0.00  0.00    +0.032 C 
ATOM      5  C   UNL     1      -4.034   3.249  -2.241  0.00  0.00    +0.110 C 
ATOM      6  N   UNL     1      -3.217   4.241  -1.528  0.00  0.00    -0.177 NA
ATOM      7  C   UNL     1      -2.805   5.459  -2.239  0.00  0.00    +0.110 C 
ATOM      8  C   UNL     1      -2.102   5.050  -3.542  0.00  0.00    +0.032 C 
BRANCH   6   9
ATOM      9  S   UNL     1      -2.775   3.993   0.049  0.00  0.00    +0.061 S 
ATOM     10  O   UNL     1      -3.732   3.102   0.604  0.00  0.00    -0.153 OA
ATOM     11  O   UNL     1      -2.517   5.275   0.604  0.00  0.00    -0.153 OA
BRANCH   9  12
ATOM     12  C   UNL     1      -1.238   3.133   0.030  0.00  0.00    +0.106 A 
ATOM     13  C   UNL     1      -1.219   1.750   0.017  0.00  0.00    +0.029 A 
ATOM     14  C   UNL     1      -0.013   1.076   0.008  0.00  0.00    +0.005 A 
ATOM     15  C   UNL     1       1.175   1.783   0.000  0.00  0.00    -0.047 A 
ATOM     16  C   UNL     1       1.157   3.165   0.008  0.00  0.00    -0.046 A 
ATOM     17  C   UNL     1      -0.050   3.840   0.023  0.00  0.00    +0.032 A 
ATOM     18  C   UNL     1       2.451   3.937  -0.001  0.00  0.00    +0.044 C 
ATOM     19  C   UNL     1       2.490   1.048  -0.016  0.00  0.00    +0.044 C 
ENDBRANCH   9  12
ENDBRANCH   6   9
ENDBRANCH   1   3
BRANCH   1  20
ATOM     20  O   UNL     1      -2.002   4.717  -6.518  0.00  0.00    -0.460 OA
BRANCH  20  21
ATOM     21  C   UNL     1      -1.361   4.283  -7.746  0.00  0.00    +0.270 C 
BRANCH  21  23
ATOM     22  C   UNL     1       0.171   6.142  -8.480  0.00  0.00    +0.106 A 
ATOM     23  C   UNL     1      -1.038   5.485  -8.596  0.00  0.00    +0.030 A 
ATOM     24  C   UNL     1      -1.940   5.970  -9.528  0.00  0.00    +0.087 A 
ATOM     25  C   UNL     1      -1.568   7.094 -10.275  0.00  0.00    +0.082 A 
ATOM     26  S   UNL     1       0.022   7.448  -9.684  0.00  0.00    -0.066 S 
BRANCH  25  27
ATOM     27  N   UNL     1      -2.287   7.753 -11.246  0.00  0.00    -0.352 N 
ATOM     28  H   UNL     1      -1.905   8.524 -11.693  0.00  0.00    +0.143 HD
ATOM     29  H   UNL     1      -3.176   7.446 -11.483  0.00  0.00    +0.143 HD
ENDBRANCH  25  27
BRANCH  22  30
ATOM     30  C   UNL     1       1.258   5.851  -7.618  0.00  0.00    +0.346 C 
ATOM     31  O   UNL     1       1.190   4.910  -6.849  0.00  0.00    -0.244 OA
BRANCH  30  32
ATOM     32  O   UNL     1       2.369   6.617  -7.650  0.00  0.00    -0.461 OA
BRANCH  32  34
ATOM     33  C   UNL     1       4.591   7.240  -6.934  0.00  0.00    +0.048 C 
ATOM     34  C   UNL     1       3.425   6.266  -6.755  0.00  0.00    +0.229 C 
ENDBRANCH  32  34
ENDBRANCH  30  32
ENDBRANCH  22  30
BRANCH  24  35
ATOM     35  C   UNL     1      -3.214   5.346  -9.718  0.00  0.00    +0.102 C 
ATOM     36  N   UNL     1      -4.225   4.850  -9.869  0.00  0.00    -0.191 NA
ENDBRANCH  24  35
ENDBRANCH  21  23
ENDBRANCH  20  21
ENDBRANCH   1  20
TORSDOF 11
