REMARK  Name = ZINC29496306
REMARK  8 active torsions:
REMARK  status: ('A' for Active; 'I' for Inactive)
REMARK    1  A    between atoms: C_1  and  C_2
REMARK    2  A    between atoms: C_15  and  C_17
REMARK    3  A    between atoms: C_17  and  S_18
REMARK    4  A    between atoms: S_18  and  C_19
REMARK    5  A    between atoms: N_20  and  C_21
REMARK    6  A    between atoms: C_21  and  C_22
REMARK    7  A    between atoms: C_22  and  C_23
REMARK    8  A    between atoms: C_22  and  C_24
REMARK                            x       y       z     vdW  Elec       q    Type
REMARK                         _______ _______ _______ _____ _____    ______ ____
ROOT
ATOM      1  C   UNL     1      -1.219   6.759   2.226  0.00  0.00    +0.029 C 
ATOM      2  C   UNL     1       0.003   6.639   1.314  0.00  0.00    +0.087 C 
ATOM      3  C   UNL     1       1.149   5.979   2.083  0.00  0.00    +0.118 C 
ATOM      4  C   UNL     1       2.204   5.494   1.125  0.00  0.00    +0.219 C 
ATOM      5  O   UNL     1       3.243   6.110   1.011  0.00  0.00    -0.275 OA
ATOM      6  N   UNL     1       2.002   4.378   0.391  0.00  0.00    -0.284 N 
ATOM      7  C   UNL     1       0.775   3.707   0.440  0.00  0.00    +0.055 A 
ATOM      8  C   UNL     1       0.721   2.335   0.618  0.00  0.00    +0.025 A 
ATOM      9  C   UNL     1      -0.502   1.690   0.631  0.00  0.00    +0.002 A 
ATOM     10  C   UNL     1      -1.670   2.409   0.453  0.00  0.00    +0.002 A 
ATOM     11  C   UNL     1      -1.625   3.781   0.282  0.00  0.00    +0.025 A 
ATOM     12  C   UNL     1      -0.405   4.436   0.282  0.00  0.00    +0.058 A 
ATOM     13  N   UNL     1      -0.341   5.830   0.143  0.00  0.00    -0.266 N 
ATOM     14  C   UNL     1      -0.593   6.414  -1.045  0.00  0.00    +0.230 C 
ATOM     15  O   UNL     1      -0.535   7.621  -1.152  0.00  0.00    -0.274 OA
ATOM     16  H   UNL     1       2.806   3.989  -0.252  0.00  0.00    +0.155 HD
ENDROOT
BRANCH  14  17
ATOM     17  C   UNL     1      -0.946   5.568  -2.241  0.00  0.00    +0.173 C 
BRANCH  17  18
ATOM     18  S   UNL     1      -1.224   6.636  -3.675  0.00  0.00    -0.084 S 
BRANCH  18  19
ATOM     19  C   UNL     1      -1.607   5.421  -4.892  0.00  0.00    +0.126 C 
ATOM     20  N   UNL     1      -1.617   4.157  -4.571  0.00  0.00    -0.368 N 
ATOM     21  N   UNL     1      -1.897   5.806  -6.181  0.00  0.00    -0.339 N 
ATOM     22  H   UNL     1      -2.137   5.048  -6.940  0.00  0.00    +0.144 HD
ATOM     23  H   UNL     1      -1.890   6.872  -6.451  0.00  0.00    +0.144 HD
ATOM     24  H   UNL     1      -1.286   3.841  -3.571  0.00  0.00    +0.161 HD
BRANCH  20  25
ATOM     25  C   UNL     1      -2.067   3.158  -5.543  0.00  0.00    +0.117 C 
BRANCH  25  26
ATOM     26  C   UNL     1      -0.892   2.258  -5.931  0.00  0.00    +0.002 C 
ATOM     27  C   UNL     1      -0.438   1.458  -4.709  0.00  0.00    +0.009 C 
ATOM     28  C   UNL     1      -1.331   1.296  -7.037  0.00  0.00    +0.009 C 
ENDBRANCH  25  26
ENDBRANCH  20  25
ENDBRANCH  18  19
ENDBRANCH  17  18
ENDBRANCH  14  17
TORSDOF 5
