REMARK  Name = ZINC63832494
REMARK  3 active torsions:
REMARK  status: ('A' for Active; 'I' for Inactive)
REMARK    1  A    between atoms: N_14  and  C_17
REMARK    2  A    between atoms: C_17  and  C_18
REMARK    3  A    between atoms: C_18  and  O_29
REMARK                            x       y       z     vdW  Elec       q    Type
REMARK                         _______ _______ _______ _____ _____    ______ ____
ROOT
ATOM      1  C   UNL     1       0.594   1.341  -1.426  0.00  0.00    +0.002 A 
ATOM      2  C   UNL     1       1.845   1.928  -1.461  0.00  0.00    +0.002 A 
ATOM      3  C   UNL     1       2.973   1.178  -1.175  0.00  0.00    +0.025 A 
ATOM      4  C   UNL     1       2.844  -0.161  -0.855  0.00  0.00    +0.049 A 
ATOM      5  C   UNL     1       1.581  -0.756  -0.821  0.00  0.00    +0.055 A 
ATOM      6  C   UNL     1       0.458   0.003  -1.107  0.00  0.00    +0.025 A 
ATOM      7  N   UNL     1       1.465  -2.115  -0.503  0.00  0.00    -0.282 N 
ATOM      8  C   UNL     1       2.500  -2.785   0.037  0.00  0.00    +0.241 C 
ATOM      9  O   UNL     1       2.391  -3.971   0.268  0.00  0.00    -0.273 OA
ATOM     10  C   UNL     1       3.792  -2.081   0.359  0.00  0.00    +0.111 C 
ATOM     11  N   UNL     1       3.967  -0.945  -0.556  0.00  0.00    -0.329 N 
ATOM     12  C   UNL     1       4.962  -3.053   0.192  0.00  0.00    +0.050 C 
ATOM     13  C   UNL     1       6.265  -2.347   0.574  0.00  0.00    +0.087 C 
ATOM     14  N   UNL     1       6.182  -1.885   1.966  0.00  0.00    -0.300 NA
ATOM     15  C   UNL     1       5.096  -0.911   2.138  0.00  0.00    +0.087 C 
ATOM     16  C   UNL     1       3.757  -1.572   1.802  0.00  0.00    +0.050 C 
ATOM     17  H   UNL     1       0.630  -2.578  -0.675  0.00  0.00    +0.155 HD
ATOM     18  H   UNL     1       4.833  -0.745  -0.943  0.00  0.00    +0.147 HD
ENDROOT
BRANCH  14  19
ATOM     19  C   UNL     1       7.465  -1.328   2.413  0.00  0.00    +0.117 C 
BRANCH  19  20
ATOM     20  C   UNL     1       7.523  -1.344   3.942  0.00  0.00    +0.067 C 
ATOM     21  C   UNL     1       8.789  -0.624   4.411  0.00  0.00    +0.032 C 
ATOM     22  C   UNL     1      10.010  -1.390   3.891  0.00  0.00    -0.016 C 
ATOM     23  C   UNL     1       9.947  -2.827   4.408  0.00  0.00    -0.078 C 
ATOM     24  N   UNL     1       8.725  -3.487   3.923  0.00  0.00    +0.383 N 
ATOM     25  C   UNL     1       7.539  -2.795   4.436  0.00  0.00    -0.035 C 
ATOM     26  C   UNL     1       6.268  -3.484   3.929  0.00  0.00    -0.013 C 
ATOM     27  C   UNL     1       6.255  -4.945   4.384  0.00  0.00    -0.003 C 
ATOM     28  C   UNL     1       7.523  -5.631   3.864  0.00  0.00    -0.019 C 
ATOM     29  C   UNL     1       8.743  -4.880   4.395  0.00  0.00    -0.078 C 
ATOM     30  H   UNL     1       8.713  -3.473   2.914  0.00  0.00    -0.081 HD
BRANCH  20  31
ATOM     31  O   UNL     1       6.375  -0.675   4.468  0.00  0.00    -0.389 OA
ATOM     32  H   UNL     1       6.299   0.249   4.195  0.00  0.00    +0.210 HD
ENDBRANCH  20  31
ENDBRANCH  19  20
ENDBRANCH  14  19
TORSDOF 3
