REMARK  Name = ZINC44827482
REMARK  5 active torsions:
REMARK  status: ('A' for Active; 'I' for Inactive)
REMARK    1  A    between atoms: C_8  and  C_12
REMARK    2  A    between atoms: C_15  and  C_17
REMARK    3  A    between atoms: C_17  and  C_27
REMARK    4  A    between atoms: N_18  and  N_19
REMARK    5  A    between atoms: N_19  and  C_20
REMARK                            x       y       z     vdW  Elec       q    Type
REMARK                         _______ _______ _______ _____ _____    ______ ____
ROOT
ATOM      1  C   UNL     1       2.641  -4.211   0.265  0.00  0.00    +0.086 A 
ATOM      2  C   UNL     1       3.861  -4.779   0.530  0.00  0.00    +0.075 A 
ATOM      3  S   UNL     1       3.449  -6.516   0.424  0.00  0.00    -0.073 S 
ATOM      4  C   UNL     1       1.714  -6.310   0.043  0.00  0.00    +0.139 A 
ATOM      5  N   UNL     1       1.600  -4.990   0.034  0.00  0.00    -0.236 NA
ENDROOT
BRANCH   1  13
ATOM      6  C   UNL     1      -0.017   1.362   0.009  0.00  0.00    +0.001 A 
ATOM      7  C   UNL     1       1.169   2.084   0.002  0.00  0.00    +0.004 A 
ATOM      8  C   UNL     1       2.387   1.436  -0.015  0.00  0.00    +0.047 A 
ATOM      9  C   UNL     1       2.430   0.049  -0.024  0.00  0.00    +0.139 A 
ATOM     10  C   UNL     1       1.227  -0.681  -0.013  0.00  0.00    +0.018 A 
ATOM     11  C   UNL     1       0.002  -0.004   0.002  0.00  0.00    +0.011 A 
ATOM     12  C   UNL     1       1.277  -2.146  -0.014  0.00  0.00    +0.028 A 
ATOM     13  C   UNL     1       2.491  -2.737   0.244  0.00  0.00    +0.086 A 
ATOM     14  C   UNL     1       3.636  -1.846   0.499  0.00  0.00    +0.347 A 
ATOM     15  O   UNL     1       4.576  -2.214   1.180  0.00  0.00    -0.244 OA
ATOM     16  O   UNL     1       3.614  -0.608  -0.045  0.00  0.00    -0.422 OA
ENDBRANCH   1  13
BRANCH   4  17
ATOM     17  C   UNL     1       0.683  -7.338  -0.193  0.00  0.00    +0.190 C 
ATOM     18  N   UNL     1       0.999  -8.612  -0.134  0.00  0.00    -0.169 NA
BRANCH  18  19
ATOM     19  N   UNL     1       0.019  -9.588  -0.358  0.00  0.00    -0.234 N 
ATOM     20  H   UNL     1      -0.893  -9.323  -0.558  0.00  0.00    +0.174 HD
BRANCH  19  21
ATOM     21  C   UNL     1       0.354 -10.941  -0.294  0.00  0.00    +0.083 A 
ATOM     22  C   UNL     1       1.658 -11.322  -0.003  0.00  0.00    +0.027 A 
ATOM     23  C   UNL     1       1.987 -12.662   0.059  0.00  0.00    +0.002 A 
ATOM     24  C   UNL     1       1.021 -13.625  -0.169  0.00  0.00    +0.003 A 
ATOM     25  C   UNL     1      -0.279 -13.252  -0.459  0.00  0.00    +0.040 A 
ATOM     26  C   UNL     1      -0.617 -11.912  -0.517  0.00  0.00    +0.146 A 
ATOM     27  F   UNL     1      -1.888 -11.547  -0.795  0.00  0.00    -0.203 F 
ENDBRANCH  19  21
ENDBRANCH  18  19
BRANCH  17  28
ATOM     28  C   UNL     1      -0.663  -6.947  -0.488  0.00  0.00    +0.123 C 
ATOM     29  N   UNL     1      -1.731  -6.637  -0.722  0.00  0.00    -0.189 NA
ENDBRANCH  17  28
ENDBRANCH   4  17
TORSDOF 5
