REMARK  Name = ZINC41393849
REMARK  2 active torsions:
REMARK  status: ('A' for Active; 'I' for Inactive)
REMARK    1  A    between atoms: C_1  and  N_2
REMARK    2  A    between atoms: N_12  and  C_13
REMARK                            x       y       z     vdW  Elec       q    Type
REMARK                         _______ _______ _______ _____ _____    ______ ____
ROOT
ATOM      1  C   UNL     1      -0.018   1.461   0.010  0.00  0.00    +0.155 C 
ATOM      2  N   UNL     1       0.002  -0.004   0.002  0.00  0.00    -0.284 N 
ATOM      3  C   UNL     1       0.005  -0.657  -1.175  0.00  0.00    +0.264 A 
ATOM      4  O   UNL     1      -0.007  -0.039  -2.225  0.00  0.00    -0.267 OA
ATOM      5  C   UNL     1       0.025  -2.088  -1.175  0.00  0.00    +0.076 A 
ATOM      6  C   UNL     1       0.030  -2.995  -2.324  0.00  0.00    -0.023 A 
ATOM      7  C   UNL     1       0.050  -4.317  -2.060  0.00  0.00    -0.004 A 
ATOM      8  S   UNL     1       0.062  -4.434  -0.292  0.00  0.00    -0.073 S 
ATOM      9  C   UNL     1       0.040  -2.700   0.089  0.00  0.00    +0.117 A 
ATOM     10  N   UNL     1       0.035  -1.996   1.215  0.00  0.00    -0.208 NA
ATOM     11  C   UNL     1       0.022  -0.679   1.187  0.00  0.00    +0.199 A 
ATOM     12  N   UNL     1       0.024   0.024   2.366  0.00  0.00    -0.310 N 
ATOM     13  C   UNL     1       0.058  -5.441  -3.051  0.00  0.00    +0.043 C 
ATOM     14  C   UNL     1      -0.335  -4.879  -4.425  0.00  0.00    +0.005 C 
ATOM     15  C   UNL     1       0.484  -3.611  -4.689  0.00  0.00    +0.005 C 
ATOM     16  C   UNL     1       0.015  -2.488  -3.764  0.00  0.00    +0.037 C 
ATOM     17  H   UNL     1       0.011   0.993   2.353  0.00  0.00    +0.149 HD
ENDROOT
BRANCH  12  18
ATOM     18  C   UNL     1       0.046  -0.691   3.645  0.00  0.00    +0.095 C 
ATOM     19  C   UNL     1      -1.390  -1.044   4.067  0.00  0.00    +0.046 C 
ATOM     20  C   UNL     1      -1.407  -1.505   5.544  0.00  0.00    +0.168 C 
ATOM     21  S   UNL     1       0.030  -0.611   6.263  0.00  0.00    -0.029 S 
ATOM     22  O   UNL     1      -0.445   0.379   7.165  0.00  0.00    -0.174 OA
ATOM     23  O   UNL     1       0.990  -1.560   6.708  0.00  0.00    -0.174 OA
ATOM     24  C   UNL     1       0.664   0.218   4.745  0.00  0.00    +0.188 C 
ENDBRANCH  12  18
TORSDOF 1
