REMARK  Name = ZINC14471861
REMARK  6 active torsions:
REMARK  status: ('A' for Active; 'I' for Inactive)
REMARK    1  A    between atoms: C_4  and  C_7
REMARK    2  A    between atoms: C_7  and  N_8
REMARK    3  A    between atoms: N_8  and  S_9
REMARK    4  A    between atoms: S_9  and  C_12
REMARK    5  A    between atoms: C_25  and  C_28
REMARK    6  A    between atoms: C_32  and  N_34
REMARK                            x       y       z     vdW  Elec       q    Type
REMARK                         _______ _______ _______ _____ _____    ______ ____
ROOT
ATOM      1  C   UNL     1      -1.571   2.658  -1.502  0.00  0.00    +0.106 A 
ATOM      2  C   UNL     1      -2.148   2.060  -2.607  0.00  0.00    +0.030 A 
ATOM      3  C   UNL     1      -2.246   2.752  -3.797  0.00  0.00    +0.025 A 
ATOM      4  C   UNL     1      -1.766   4.053  -3.894  0.00  0.00    +0.031 A 
ATOM      5  C   UNL     1      -1.169   4.645  -2.775  0.00  0.00    -0.018 A 
ATOM      6  C   UNL     1      -1.089   3.950  -1.588  0.00  0.00    +0.034 A 
ATOM      7  C   UNL     1      -0.631   6.013  -2.934  0.00  0.00    +0.049 C 
ATOM      8  C   UNL     1      -0.492   6.942  -1.783  0.00  0.00    -0.023 C 
ATOM      9  C   UNL     1      -0.650   8.186  -2.221  0.00  0.00    -0.030 C 
ATOM     10  C   UNL     1      -0.946   8.178  -3.722  0.00  0.00    +0.033 C 
ATOM     11  C   UNL     1      -1.569   6.788  -3.907  0.00  0.00    +0.029 C 
ATOM     12  C   UNL     1      -1.389   6.123  -5.260  0.00  0.00    +0.105 C 
ATOM     13  N   UNL     1      -1.908   4.747  -5.101  0.00  0.00    -0.336 N 
ATOM     14  H   UNL     1      -2.354   4.318  -5.848  0.00  0.00    +0.147 HD
ENDROOT
BRANCH  12  15
ATOM     15  C   UNL     1      -2.179   6.859  -6.311  0.00  0.00    -0.025 A 
ATOM     16  C   UNL     1      -3.538   6.640  -6.434  0.00  0.00    +0.005 A 
ATOM     17  C   UNL     1      -4.263   7.315  -7.398  0.00  0.00    +0.003 A 
ATOM     18  C   UNL     1      -3.628   8.210  -8.240  0.00  0.00    +0.033 A 
ATOM     19  C   UNL     1      -2.269   8.430  -8.117  0.00  0.00    +0.127 A 
ATOM     20  C   UNL     1      -1.545   7.758  -7.149  0.00  0.00    +0.038 A 
BRANCH  19  21
ATOM     21  N   UNL     1      -1.589   9.387  -9.018  0.00  0.00    +0.056 N 
ATOM     22  O   UNL     1      -2.228   9.981  -9.868  0.00  0.00    -0.126 OA
ATOM     23  O   UNL     1      -0.392   9.581  -8.909  0.00  0.00    -0.126 OA
ENDBRANCH  19  21
ENDBRANCH  12  15
BRANCH   1  24
ATOM     24  S   UNL     1      -1.456   1.774   0.019  0.00  0.00    +0.059 S 
ATOM     25  O   UNL     1      -2.475   0.784  -0.009  0.00  0.00    -0.153 OA
ATOM     26  O   UNL     1      -1.369   2.749   1.049  0.00  0.00    -0.153 OA
BRANCH  24  27
ATOM     27  N   UNL     1      -0.011   0.966   0.007  0.00  0.00    -0.186 NA
ATOM     28  H   UNL     1       0.002  -0.004   0.002  0.00  0.00    +0.148 HD
BRANCH  27  29
ATOM     29  C   UNL     1       1.248   1.716  -0.001  0.00  0.00    +0.141 C 
BRANCH  29  33
ATOM     30  C   UNL     1       4.472  -0.903   0.997  0.00  0.00    +0.000 A 
ATOM     31  C   UNL     1       4.097  -0.740  -0.324  0.00  0.00    +0.000 A 
ATOM     32  C   UNL     1       3.054   0.108  -0.646  0.00  0.00    +0.005 A 
ATOM     33  C   UNL     1       2.385   0.791   0.351  0.00  0.00    -0.032 A 
ATOM     34  C   UNL     1       2.763   0.632   1.671  0.00  0.00    +0.005 A 
ATOM     35  C   UNL     1       3.803  -0.219   1.995  0.00  0.00    +0.000 A 
ENDBRANCH  29  33
ENDBRANCH  27  29
ENDBRANCH  24  27
ENDBRANCH   1  24
TORSDOF 6
