REMARK  Name = ZINC41624457
REMARK  7 active torsions:
REMARK  status: ('A' for Active; 'I' for Inactive)
REMARK    1  A    between atoms: C_1  and  O_2
REMARK    2  A    between atoms: O_2  and  C_3
REMARK    3  A    between atoms: C_3  and  C_5
REMARK    4  A    between atoms: N_16  and  C_17
REMARK    5  A    between atoms: C_17  and  C_18
REMARK    6  A    between atoms: N_20  and  C_21
REMARK    7  A    between atoms: C_22  and  C_26
REMARK                            x       y       z     vdW  Elec       q    Type
REMARK                         _______ _______ _______ _____ _____    ______ ____
ROOT
ATOM      1  C   UNL     1       0.509  -3.413  -3.136  0.00  0.00    +0.020 C 
ENDROOT
BRANCH   1  10
ATOM      2  C   UNL     1       0.657  -2.104  -1.120  0.00  0.00    +0.044 C 
ATOM      3  C   UNL     1       1.456  -2.661   0.082  0.00  0.00    -0.002 C 
ATOM      4  C   UNL     1       2.255  -3.812  -0.563  0.00  0.00    -0.026 C 
ATOM      5  C   UNL     1       3.467  -4.202   0.246  0.00  0.00    +0.002 C 
ATOM      6  C   UNL     1       4.482  -3.062   0.326  0.00  0.00    +0.000 C 
ATOM      7  C   UNL     1       4.902  -2.696  -1.102  0.00  0.00    -0.002 C 
ATOM      8  C   UNL     1       3.680  -2.165  -1.845  0.00  0.00    -0.015 C 
ATOM      9  C   UNL     1       2.612  -3.231  -1.942  0.00  0.00    -0.064 C 
ATOM     10  N   UNL     1       1.365  -2.516  -2.348  0.00  0.00    +0.396 N 
ATOM     11  H   UNL     1       1.601  -1.702  -2.895  0.00  0.00    -0.080 HD
BRANCH   2  12
ATOM     12  C   UNL     1       0.598  -0.600  -1.043  0.00  0.00    +0.293 C 
ATOM     13  O   UNL     1       1.088   0.070  -1.921  0.00  0.00    -0.253 OA
BRANCH  12  15
ATOM     14  C   UNL     1      -0.017   1.425   0.010  0.00  0.00    +0.280 C 
ATOM     15  O   UNL     1       0.002  -0.004   0.002  0.00  0.00    -0.469 OA
ENDBRANCH  12  15
ENDBRANCH   2  12
ENDBRANCH   1  10
BRANCH   1  16
ATOM     16  C   UNL     1      -0.687  -2.649  -3.642  0.00  0.00    +0.201 C 
ATOM     17  O   UNL     1      -0.814  -1.474  -3.373  0.00  0.00    -0.278 OA
ATOM     18  N   UNL     1      -1.616  -3.273  -4.394  0.00  0.00    -0.281 N 
ATOM     19  H   UNL     1      -1.514  -4.213  -4.609  0.00  0.00    +0.155 HD
BRANCH  18  20
ATOM     20  C   UNL     1      -2.717  -2.570  -4.860  0.00  0.00    +0.084 A 
ATOM     21  C   UNL     1      -3.765  -3.044  -5.635  0.00  0.00    +0.065 A 
ATOM     22  C   UNL     1      -4.793  -2.090  -5.984  0.00  0.00    +0.022 A 
ATOM     23  C   UNL     1      -4.617  -0.840  -5.516  0.00  0.00    +0.048 A 
ATOM     24  S   UNL     1      -3.089  -0.953  -4.611  0.00  0.00    -0.081 S 
BRANCH  21  25
ATOM     25  C   UNL     1      -3.828  -4.441  -6.077  0.00  0.00    +0.244 C 
ATOM     26  O   UNL     1      -2.945  -5.218  -5.764  0.00  0.00    -0.270 OA
ATOM     27  N   UNL     1      -4.863  -4.864  -6.828  0.00  0.00    -0.325 N 
ATOM     28  H   UNL     1      -5.567  -4.245  -7.077  0.00  0.00    +0.145 HD
ATOM     29  H   UNL     1      -4.905  -5.788  -7.120  0.00  0.00    +0.145 HD
ENDBRANCH  21  25
ENDBRANCH  18  20
ENDBRANCH   1  16
TORSDOF 6
