REMARK  Name = ZINC15955943
REMARK  6 active torsions:
REMARK  status: ('A' for Active; 'I' for Inactive)
REMARK    1  A    between atoms: C_1  and  O_2
REMARK    2  A    between atoms: O_2  and  C_3
REMARK    3  A    between atoms: C_3  and  C_5
REMARK    4  A    between atoms: C_8  and  C_11
REMARK    5  A    between atoms: N_30  and  C_33
REMARK    6  A    between atoms: C_33  and  C_34
REMARK                            x       y       z     vdW  Elec       q    Type
REMARK                         _______ _______ _______ _____ _____    ______ ____
ROOT
ATOM      1  C   UNL     1      -2.867   2.143   0.040  0.00  0.00    +0.154 C 
ATOM      2  C   UNL     1      -1.979   1.960  -1.170  0.00  0.00    +0.046 A 
ATOM      3  C   UNL     1      -0.719   1.478  -1.104  0.00  0.00    -0.015 A 
ATOM      4  C   UNL     1      -0.201   1.460  -2.457  0.00  0.00    +0.003 A 
ATOM      5  C   UNL     1       1.029   1.070  -2.995  0.00  0.00    +0.010 A 
ATOM      6  C   UNL     1       1.177   1.189  -4.355  0.00  0.00    +0.001 A 
ATOM      7  C   UNL     1       0.162   1.670  -5.166  0.00  0.00    +0.002 A 
ATOM      8  C   UNL     1      -1.065   2.063  -4.660  0.00  0.00    +0.026 A 
ATOM      9  C   UNL     1      -1.243   1.954  -3.282  0.00  0.00    +0.047 A 
ATOM     10  N   UNL     1      -2.301   2.247  -2.470  0.00  0.00    -0.356 N 
ATOM     11  H   UNL     1      -3.152   2.604  -2.768  0.00  0.00    +0.166 HD
ATOM     12  C   UNL     1      -0.028   1.051   0.166  0.00  0.00    +0.069 C 
ATOM     13  C   UNL     1      -0.782   1.642   1.367  0.00  0.00    +0.167 C 
ATOM     14  N   UNL     1      -2.220   1.443   1.171  0.00  0.00    -0.276 N 
ATOM     15  C   UNL     1      -2.962   0.664   1.961  0.00  0.00    +0.234 C 
ATOM     16  O   UNL     1      -4.131   0.516   1.672  0.00  0.00    -0.274 OA
ATOM     17  C   UNL     1      -2.444  -0.037   3.182  0.00  0.00    +0.204 C 
ATOM     18  N   UNL     1      -1.042   0.257   3.429  0.00  0.00    -0.284 N 
ATOM     19  C   UNL     1      -0.290   1.008   2.628  0.00  0.00    +0.237 C 
ATOM     20  O   UNL     1       0.868   1.190   2.941  0.00  0.00    -0.274 OA
ENDROOT
BRANCH   1  24
ATOM     21  C   UNL     1      -6.717   0.441  -0.712  0.00  0.00    +0.059 A 
ATOM     22  C   UNL     1      -6.610   1.747  -0.229  0.00  0.00    +0.015 A 
ATOM     23  C   UNL     1      -5.365   2.289   0.011  0.00  0.00    +0.006 A 
ATOM     24  C   UNL     1      -4.224   1.543  -0.225  0.00  0.00    -0.021 A 
ATOM     25  C   UNL     1      -4.323   0.250  -0.709  0.00  0.00    +0.006 A 
ATOM     26  C   UNL     1      -5.562  -0.306  -0.949  0.00  0.00    +0.015 A 
BRANCH  21  27
ATOM     27  C   UNL     1      -8.047  -0.147  -0.972  0.00  0.00    +0.339 C 
ATOM     28  O   UNL     1      -9.051   0.506  -0.765  0.00  0.00    -0.245 OA
BRANCH  27  30
ATOM     29  C   UNL     1      -9.486  -1.919  -1.671  0.00  0.00    +0.280 C 
ATOM     30  O   UNL     1      -8.148  -1.407  -1.438  0.00  0.00    -0.464 OA
ENDBRANCH  27  30
ENDBRANCH  21  27
ENDBRANCH   1  24
BRANCH  18  31
ATOM     31  C   UNL     1      -0.420  -0.307   4.630  0.00  0.00    +0.182 C 
BRANCH  31  32
ATOM     32  C   UNL     1      -0.579   0.656   5.778  0.00  0.00    +0.122 A 
ATOM     33  C   UNL     1      -1.607   0.685   6.644  0.00  0.00    +0.046 A 
ATOM     34  C   UNL     1      -1.350   1.740   7.550  0.00  0.00    +0.041 A 
ATOM     35  C   UNL     1      -0.179   2.292   7.184  0.00  0.00    +0.195 A 
ATOM     36  O   UNL     1       0.286   1.628   6.113  0.00  0.00    -0.466 OA
ENDBRANCH  31  32
ENDBRANCH  18  31
TORSDOF 5
