REMARK  Name = ZINC12864396
REMARK  16 active torsions:
REMARK  status: ('A' for Active; 'I' for Inactive)
REMARK    1  A    between atoms: C_1  and  C_2
REMARK    2  A    between atoms: C_2  and  C_3
REMARK    3  A    between atoms: C_3  and  C_4
REMARK    4  A    between atoms: C_4  and  N_74
REMARK    5  A    between atoms: C_5  and  C_6
REMARK    6  A    between atoms: C_5  and  N_74
REMARK    7  A    between atoms: C_6  and  C_7
REMARK    8  A    between atoms: C_7  and  C_8
REMARK    9  A    between atoms: C_9  and  C_10
REMARK   10  A    between atoms: C_9  and  N_74
REMARK   11  A    between atoms: C_10  and  C_11
REMARK   12  A    between atoms: C_11  and  N_76
REMARK   13  A    between atoms: C_12  and  C_13
REMARK   14  A    between atoms: C_12  and  N_76
REMARK   15  A    between atoms: C_19  and  C_31
REMARK   16  A    between atoms: C_23  and  C_30
REMARK                            x       y       z     vdW  Elec       q    Type
REMARK                         _______ _______ _______ _____ _____    ______ ____
ROOT
ATOM      1  C   UNL     1       2.373   1.200  -1.452  0.00  0.00    -0.068 C 
ENDROOT
BRANCH   1   2
ATOM      2  C   UNL     1       1.216   0.381  -0.875  0.00  0.00    +0.088 C 
ATOM      3  C   UNL     1       0.950   0.780   0.609  0.00  0.00    +0.046 C 
ATOM      4  C   UNL     1       1.466   2.215   0.759  0.00  0.00    +0.039 C 
ATOM      5  C   UNL     1       0.743   2.904   1.899  0.00  0.00    -0.064 C 
ATOM      6  C   UNL     1       1.436   3.433   2.861  0.00  0.00    -0.073 C 
ATOM      7  C   UNL     1       0.794   4.120   4.035  0.00  0.00    +0.030 C 
ATOM      8  C   UNL     1      -0.583   3.490   4.273  0.00  0.00    +0.005 C 
ATOM      9  C   UNL     1      -1.408   3.640   2.996  0.00  0.00    +0.011 C 
ATOM     10  C   UNL     1      -0.758   2.919   1.832  0.00  0.00    -0.007 C 
ATOM     11  C   UNL     1      -1.235   1.481   1.750  0.00  0.00    +0.056 C 
ATOM     12  C   UNL     1      -0.589   0.735   0.612  0.00  0.00    +0.181 C 
ATOM     13  O   UNL     1      -0.950   1.255  -0.698  0.00  0.00    -0.461 OA
ATOM     14  C   UNL     1      -0.081   0.719  -1.587  0.00  0.00    +0.309 C 
ATOM     15  O   UNL     1      -0.303   0.539  -2.761  0.00  0.00    -0.251 OA
ATOM     16  C   UNL     1      -1.177   3.616   0.536  0.00  0.00    +0.016 C 
ATOM     17  C   UNL     1       2.940   3.358   2.799  0.00  0.00    +0.039 C 
ENDBRANCH   1   2
BRANCH   1  18
ATOM     18  N   UNL     1       2.694   0.699  -2.801  0.00  0.00    +0.380 N 
ATOM     19  H   UNL     1       2.963  -0.290  -2.740  0.00  0.00    -0.086 HD
ATOM     20  H   UNL     1       1.867   0.791  -3.403  0.00  0.00    -0.086 HD
BRANCH  18  21
ATOM     21  C   UNL     1       3.808   1.471  -3.382  0.00  0.00    -0.084 C 
BRANCH  21  22
ATOM     22  C   UNL     1       4.119   0.930  -4.779  0.00  0.00    -0.038 C 
BRANCH  22  23
ATOM     23  C   UNL     1       5.274   1.726  -5.390  0.00  0.00    -0.081 C 
BRANCH  23  24
ATOM     24  N   UNL     1       5.654   1.100  -6.674  0.00  0.00    +0.380 N 
ATOM     25  H   UNL     1       5.654   0.080  -6.560  0.00  0.00    -0.082 HD
BRANCH  24  26
ATOM     26  C   UNL     1       4.679   1.466  -7.722  0.00  0.00    -0.079 C 
BRANCH  26  27
ATOM     27  C   UNL     1       4.964   0.634  -8.974  0.00  0.00    -0.019 C 
BRANCH  27  29
ATOM     28  C   UNL     1       4.234   0.153 -11.314  0.00  0.00    +0.004 C 
ATOM     29  C   UNL     1       3.948   0.986 -10.063  0.00  0.00    -0.005 C 
ENDBRANCH  27  29
ENDBRANCH  26  27
ENDBRANCH  24  26
BRANCH  24  30
ATOM     30  C   UNL     1       7.009   1.540  -7.068  0.00  0.00    -0.079 C 
BRANCH  30  31
ATOM     31  C   UNL     1       8.036   0.769  -6.237  0.00  0.00    -0.019 C 
BRANCH  31  32
ATOM     32  C   UNL     1       9.442   1.277  -6.564  0.00  0.00    -0.005 C 
ATOM     33  C   UNL     1      10.469   0.506  -5.732  0.00  0.00    +0.004 C 
ENDBRANCH  31  32
ENDBRANCH  30  31
ENDBRANCH  24  30
ENDBRANCH  23  24
ENDBRANCH  22  23
ENDBRANCH  21  22
ENDBRANCH  18  21
ENDBRANCH   1  18
TORSDOF 12
