REMARK  Name = ZINC20057987
REMARK  9 active torsions:
REMARK  status: ('A' for Active; 'I' for Inactive)
REMARK    1  A    between atoms: C_1  and  C_2
REMARK    2  A    between atoms: C_2  and  C_3
REMARK    3  A    between atoms: C_2  and  C_4
REMARK    4  A    between atoms: C_7  and  C_10
REMARK    5  A    between atoms: C_11  and  C_30
REMARK    6  A    between atoms: C_12  and  N_29
REMARK    7  A    between atoms: C_16  and  N_28
REMARK    8  A    between atoms: C_17  and  C_19
REMARK    9  A    between atoms: C_19  and  C_21
REMARK                            x       y       z     vdW  Elec       q    Type
REMARK                         _______ _______ _______ _____ _____    ______ ____
ROOT
ATOM      1  C   UNL     1      -2.866   3.566   4.454  0.00  0.00    +0.014 A 
ATOM      2  C   UNL     1      -4.255   3.454   4.595  0.00  0.00    +0.100 A 
ATOM      3  C   UNL     1      -4.867   3.826   5.808  0.00  0.00    +0.136 A 
ATOM      4  N   UNL     1      -4.134   4.286   6.809  0.00  0.00    -0.224 NA
ATOM      5  C   UNL     1      -2.826   4.410   6.716  0.00  0.00    +0.113 A 
ATOM      6  C   UNL     1      -2.103   4.066   5.550  0.00  0.00    +0.038 A 
ATOM      7  C   UNL     1      -0.668   4.270   5.629  0.00  0.00    +0.053 A 
ATOM      8  C   UNL     1      -0.141   4.771   6.807  0.00  0.00    +0.083 A 
ATOM      9  S   UNL     1      -1.576   4.980   7.842  0.00  0.00    -0.063 S 
ENDROOT
BRANCH   1  13
ATOM     10  C   UNL     1      -0.962   2.450   0.823  0.00  0.00    -0.045 A 
ATOM     11  C   UNL     1      -1.047   3.786   1.174  0.00  0.00    +0.004 A 
ATOM     12  C   UNL     1      -1.669   4.155   2.349  0.00  0.00    +0.009 A 
ATOM     13  C   UNL     1      -2.203   3.177   3.189  0.00  0.00    -0.016 A 
ATOM     14  C   UNL     1      -2.110   1.831   2.832  0.00  0.00    +0.009 A 
ATOM     15  C   UNL     1      -1.490   1.476   1.652  0.00  0.00    +0.004 A 
BRANCH  10  17
ATOM     16  C   UNL     1       1.167   2.532  -0.445  0.00  0.00    +0.012 C 
ATOM     17  C   UNL     1      -0.286   2.054  -0.464  0.00  0.00    +0.013 C 
ATOM     18  C   UNL     1      -1.019   2.698  -1.643  0.00  0.00    +0.012 C 
ENDBRANCH  10  17
ENDBRANCH   1  13
BRANCH   7  19
ATOM     19  N   UNL     1       0.154   3.971   4.554  0.00  0.00    -0.356 N 
ATOM     20  H   UNL     1       1.239   4.131   4.630  0.00  0.00    +0.142 HD
ATOM     21  H   UNL     1      -0.280   3.573   3.625  0.00  0.00    +0.142 HD
ENDBRANCH   7  19
BRANCH   3  22
ATOM     22  N   UNL     1      -6.237   3.713   5.952  0.00  0.00    -0.342 N 
ATOM     23  H   UNL     1      -6.716   4.002   6.899  0.00  0.00    +0.144 HD
ATOM     24  H   UNL     1      -6.848   3.333   5.120  0.00  0.00    +0.144 HD
ENDBRANCH   3  22
BRANCH   8  25
ATOM     25  C   UNL     1       1.208   5.050   7.114  0.00  0.00    +0.202 C 
ATOM     26  O   UNL     1       2.088   4.740   6.330  0.00  0.00    -0.286 OA
BRANCH  25  27
ATOM     27  C   UNL     1       1.554   5.719   8.387  0.00  0.00    +0.023 A 
ATOM     28  C   UNL     1       0.618   6.533   9.028  0.00  0.00    +0.013 A 
ATOM     29  C   UNL     1       0.945   7.149  10.217  0.00  0.00    +0.021 A 
ATOM     30  C   UNL     1       2.202   6.973  10.770  0.00  0.00    +0.041 A 
ATOM     31  C   UNL     1       3.137   6.171  10.136  0.00  0.00    +0.021 A 
ATOM     32  C   UNL     1       2.820   5.545   8.949  0.00  0.00    +0.013 A 
ATOM     33 CL   UNL     1       2.608   7.758  12.264  0.00  0.00    -0.084 Cl
ENDBRANCH  25  27
ENDBRANCH   8  25
BRANCH   2  34
ATOM     34  C   UNL     1      -5.051   2.962   3.510  0.00  0.00    +0.103 C 
ATOM     35  N   UNL     1      -5.681   2.571   2.650  0.00  0.00    -0.191 NA
ENDBRANCH   2  34
TORSDOF 7
