REMARK  Name = ZINC57798997
REMARK  9 active torsions:
REMARK  status: ('A' for Active; 'I' for Inactive)
REMARK    1  A    between atoms: C_1  and  C_2
REMARK    2  A    between atoms: C_4  and  C_31
REMARK    3  A    between atoms: C_9  and  C_10
REMARK    4  A    between atoms: C_10  and  N_11
REMARK    5  A    between atoms: N_14  and  C_15
REMARK    6  A    between atoms: C_15  and  C_16
REMARK    7  A    between atoms: C_16  and  C_18
REMARK    8  A    between atoms: C_16  and  N_24
REMARK    9  A    between atoms: C_27  and  C_30
REMARK                            x       y       z     vdW  Elec       q    Type
REMARK                         _______ _______ _______ _____ _____    ______ ____
ROOT
ATOM      1  N   UNL     1      -0.901   4.466   5.655  0.00  0.00    -0.295 N 
ATOM      2  C   UNL     1      -1.315   3.193   5.808  0.00  0.00    +0.300 C 
ATOM      3  O   UNL     1      -0.501   2.290   5.852  0.00  0.00    -0.253 OA
ATOM      4  N   UNL     1      -2.630   2.920   5.913  0.00  0.00    -0.301 N 
ATOM      5  H   UNL     1      -1.550   5.186   5.620  0.00  0.00    +0.151 HD
ATOM      6  H   UNL     1      -3.279   3.640   5.878  0.00  0.00    +0.150 HD
ENDROOT
BRANCH   1   7
ATOM      7  C   UNL     1       0.529   4.763   5.541  0.00  0.00    +0.146 C 
BRANCH   7  16
ATOM      8  C   UNL     1       1.076   6.423   7.839  0.00  0.00    +0.044 C 
ATOM      9  C   UNL     1       0.981   7.033   6.465  0.00  0.00    -0.039 A 
ATOM     10  C   UNL     1       1.162   8.412   6.287  0.00  0.00    +0.024 A 
ATOM     11  C   UNL     1       1.075   8.950   5.048  0.00  0.00    +0.016 A 
ATOM     12  N   UNL     1       0.813   8.169   3.970  0.00  0.00    -0.326 N 
ATOM     13  H   UNL     1       0.754   8.572   3.089  0.00  0.00    +0.169 HD
ATOM     14  C   UNL     1       0.634   6.842   4.108  0.00  0.00    +0.254 A 
ATOM     15  O   UNL     1       0.400   6.153   3.128  0.00  0.00    -0.268 OA
ATOM     16  C   UNL     1       0.723   6.249   5.379  0.00  0.00    +0.037 A 
ATOM     17  C   UNL     1       1.270  10.433   4.865  0.00  0.00    +0.063 C 
ENDBRANCH   7  16
ENDBRANCH   1   7
BRANCH   4  18
ATOM     18  C   UNL     1      -3.080   1.536   6.080  0.00  0.00    +0.095 C 
BRANCH  18  19
ATOM     19  C   UNL     1      -4.593   1.515   6.304  0.00  0.00    -0.020 C 
BRANCH  19  20
ATOM     20  N   UNL     1      -5.058   0.123   6.380  0.00  0.00    +0.385 N 
ATOM     21  C   UNL     1      -4.784  -0.553   5.107  0.00  0.00    -0.078 C 
ATOM     22  C   UNL     1      -5.192  -2.024   5.208  0.00  0.00    -0.015 C 
ATOM     23  C   UNL     1      -6.688  -2.113   5.524  0.00  0.00    -0.018 C 
ATOM     24  C   UNL     1      -6.974  -1.342   6.815  0.00  0.00    -0.015 C 
ATOM     25  C   UNL     1      -6.500   0.104   6.655  0.00  0.00    -0.078 C 
ATOM     26  C   UNL     1      -7.087  -3.579   5.705  0.00  0.00    +0.007 C 
ATOM     27  H   UNL     1      -4.569  -0.353   7.123  0.00  0.00    -0.081 HD
ENDBRANCH  19  20
BRANCH  19  28
ATOM     28  C   UNL     1      -4.920   2.225   7.593  0.00  0.00    -0.059 A 
ATOM     29  C   UNL     1      -4.762   1.572   8.801  0.00  0.00    +0.002 A 
ATOM     30  C   UNL     1      -5.062   2.223   9.983  0.00  0.00    +0.000 A 
ATOM     31  C   UNL     1      -5.520   3.527   9.956  0.00  0.00    +0.000 A 
ATOM     32  C   UNL     1      -5.677   4.180   8.748  0.00  0.00    +0.000 A 
ATOM     33  C   UNL     1      -5.373   3.530   7.566  0.00  0.00    +0.002 A 
ENDBRANCH  19  28
ENDBRANCH  18  19
ENDBRANCH   4  18
TORSDOF 6
