REMARK  Name = ZINC59167159
REMARK  9 active torsions:
REMARK  status: ('A' for Active; 'I' for Inactive)
REMARK    1  A    between atoms: C_4  and  C_7
REMARK    2  A    between atoms: C_7  and  S_8
REMARK    3  A    between atoms: S_8  and  C_9
REMARK    4  A    between atoms: C_9  and  C_10
REMARK    5  A    between atoms: N_12  and  N_13
REMARK    6  A    between atoms: C_14  and  C_15
REMARK    7  A    between atoms: C_16  and  O_23
REMARK    8  A    between atoms: C_18  and  O_22
REMARK    9  A    between atoms: C_20  and  O_21
REMARK                            x       y       z     vdW  Elec       q    Type
REMARK                         _______ _______ _______ _____ _____    ______ ____
ROOT
ATOM      1  N   UNL     1       8.101  -3.159   4.197  0.00  0.00    -0.187 NA
ATOM      2  C   UNL     1       9.232  -3.791   4.297  0.00  0.00    +0.145 C 
ENDROOT
BRANCH   2   3
ATOM      3  C   UNL     1       9.787  -4.101   5.624  0.00  0.00    +0.078 A 
ATOM      4  C   UNL     1       9.097  -3.720   6.784  0.00  0.00    +0.132 A 
ATOM      5  C   UNL     1       9.625  -4.015   8.028  0.00  0.00    +0.091 A 
ATOM      6  C   UNL     1      10.836  -4.686   8.130  0.00  0.00    +0.124 A 
ATOM      7  C   UNL     1      11.526  -5.066   6.987  0.00  0.00    +0.091 A 
ATOM      8  C   UNL     1      11.007  -4.783   5.736  0.00  0.00    +0.132 A 
BRANCH   8   9
ATOM      9  O   UNL     1      11.681  -5.160   4.618  0.00  0.00    -0.506 OA
ATOM     10  H   UNL     1      12.307  -4.499   4.295  0.00  0.00    +0.292 HD
ENDBRANCH   8   9
BRANCH   6  11
ATOM     11  O   UNL     1      11.349  -4.971   9.355  0.00  0.00    -0.507 OA
ATOM     12  H   UNL     1      11.070  -5.827   9.709  0.00  0.00    +0.292 HD
ENDBRANCH   6  11
BRANCH   4  13
ATOM     13  O   UNL     1       7.912  -3.063   6.685  0.00  0.00    -0.506 OA
ATOM     14  H   UNL     1       7.141  -3.646   6.655  0.00  0.00    +0.292 HD
ENDBRANCH   4  13
ENDBRANCH   2   3
BRANCH   1  17
ATOM     15  C   UNL     1       6.400  -2.208   2.831  0.00  0.00    +0.242 C 
ATOM     16  O   UNL     1       5.802  -1.873   3.832  0.00  0.00    -0.273 OA
ATOM     17  N   UNL     1       7.573  -2.864   2.934  0.00  0.00    -0.206 N 
ATOM     18  H   UNL     1       8.050  -3.132   2.134  0.00  0.00    +0.177 HD
BRANCH  15  19
ATOM     19  C   UNL     1       5.831  -1.891   1.472  0.00  0.00    +0.166 C 
BRANCH  19  20
ATOM     20  S   UNL     1       4.257  -1.011   1.666  0.00  0.00    -0.147 S 
BRANCH  20  21
ATOM     21  C   UNL     1       3.711  -0.707  -0.038  0.00  0.00    +0.104 C 
BRANCH  21  25
ATOM     22  C   UNL     1      -0.017   1.378   0.010  0.00  0.00    +0.000 A 
ATOM     23  C   UNL     1       1.171   2.086   0.002  0.00  0.00    +0.000 A 
ATOM     24  C   UNL     1       2.377   1.411  -0.013  0.00  0.00    +0.004 A 
ATOM     25  C   UNL     1       2.396   0.029  -0.020  0.00  0.00    -0.038 A 
ATOM     26  C   UNL     1       1.208  -0.679  -0.012  0.00  0.00    +0.004 A 
ATOM     27  C   UNL     1       0.002  -0.004   0.002  0.00  0.00    +0.000 A 
ENDBRANCH  21  25
ENDBRANCH  20  21
ENDBRANCH  19  20
ENDBRANCH  15  19
ENDBRANCH   1  17
TORSDOF 9
