REMARK  Name = ZINC12895157
REMARK  5 active torsions:
REMARK  status: ('A' for Active; 'I' for Inactive)
REMARK    1  A    between atoms: C_1  and  C_2
REMARK    2  A    between atoms: C_11  and  C_13
REMARK    3  A    between atoms: N_15  and  C_16
REMARK    4  A    between atoms: N_20  and  C_21
REMARK    5  A    between atoms: C_21  and  C_22
REMARK                            x       y       z     vdW  Elec       q    Type
REMARK                         _______ _______ _______ _____ _____    ______ ____
ROOT
ATOM      1  C   UNL     1      -1.287  -0.734   0.011  0.00  0.00    +0.285 C 
ATOM      2  O   UNL     1      -2.334  -0.117   0.025  0.00  0.00    -0.266 OA
ATOM      3  N   UNL     1      -1.299  -2.081   0.004  0.00  0.00    -0.264 N 
ATOM      4  H   UNL     1      -0.463  -2.573  -0.007  0.00  0.00    +0.157 HD
ENDROOT
BRANCH   1  15
ATOM      5  C   UNL     1       6.237   1.694  -0.050  0.00  0.00    +0.044 C 
ATOM      6  C   UNL     1       4.870   1.059  -0.040  0.00  0.00    -0.050 A 
ATOM      7  C   UNL     1       4.752  -0.324  -0.046  0.00  0.00    +0.007 A 
ATOM      8  C   UNL     1       3.512  -0.925  -0.037  0.00  0.00    +0.047 A 
ATOM      9  C   UNL     1       2.362  -0.140  -0.021  0.00  0.00    +0.139 A 
ATOM     10  C   UNL     1       2.491   1.259  -0.015  0.00  0.00    +0.064 A 
ATOM     11  C   UNL     1       3.755   1.849  -0.024  0.00  0.00    +0.018 A 
ATOM     12  C   UNL     1       1.263   2.076   0.001  0.00  0.00    +0.193 A 
ATOM     13  O   UNL     1       1.306   3.294   0.007  0.00  0.00    -0.287 OA
ATOM     14  C   UNL     1      -0.016   1.351   0.009  0.00  0.00    +0.103 A 
ATOM     15  C   UNL     1       0.002  -0.004   0.002  0.00  0.00    +0.194 A 
ATOM     16  O   UNL     1       1.142  -0.710  -0.013  0.00  0.00    -0.450 OA
ENDBRANCH   1  15
BRANCH   3  17
ATOM     17  C   UNL     1      -2.511  -2.767   0.012  0.00  0.00    +0.124 A 
ATOM     18  C   UNL     1      -3.753  -2.208   0.033  0.00  0.00    +0.065 A 
ATOM     19  C   UNL     1      -4.689  -3.245   0.031  0.00  0.00    +0.136 A 
ATOM     20  N   UNL     1      -4.046  -4.384   0.019  0.00  0.00    -0.178 NA
ATOM     21  N   UNL     1      -2.671  -4.116   0.006  0.00  0.00    -0.246 N 
BRANCH  21  22
ATOM     22  C   UNL     1      -1.597  -5.112  -0.010  0.00  0.00    +0.180 C 
BRANCH  22  23
ATOM     23  C   UNL     1      -1.214  -5.462   1.405  0.00  0.00    -0.026 A 
ATOM     24  C   UNL     1      -0.220  -4.748   2.048  0.00  0.00    +0.007 A 
ATOM     25  C   UNL     1       0.128  -5.064   3.347  0.00  0.00    +0.020 A 
ATOM     26  C   UNL     1      -0.511  -6.103   4.001  0.00  0.00    +0.041 A 
ATOM     27  C   UNL     1      -1.502  -6.821   3.355  0.00  0.00    +0.020 A 
ATOM     28  C   UNL     1      -1.853  -6.500   2.057  0.00  0.00    +0.007 A 
ATOM     29 CL   UNL     1      -0.070  -6.505   5.631  0.00  0.00    -0.084 Cl
ENDBRANCH  22  23
ENDBRANCH  21  22
ENDBRANCH   3  17
TORSDOF 4
