REMARK  Name = ZINC02646642
REMARK  8 active torsions:
REMARK  status: ('A' for Active; 'I' for Inactive)
REMARK    1  A    between atoms: C_1  and  C_2
REMARK    2  A    between atoms: C_5  and  C_28
REMARK    3  A    between atoms: C_6  and  N_8
REMARK    4  A    between atoms: C_9  and  S_13
REMARK    5  A    between atoms: S_13  and  C_14
REMARK    6  A    between atoms: C_14  and  C_15
REMARK    7  A    between atoms: C_21  and  C_27
REMARK    8  A    between atoms: C_22  and  C_26
REMARK                            x       y       z     vdW  Elec       q    Type
REMARK                         _______ _______ _______ _____ _____    ______ ____
ROOT
ATOM      1  S   UNL     1      -0.507   0.049  -0.651  0.00  0.00    -0.076 S 
ENDROOT
BRANCH   1   3
ATOM      2  N   UNL     1      -2.612  -1.740  -0.252  0.00  0.00    -0.187 N 
ATOM      3  C   UNL     1      -2.180  -0.471  -0.463  0.00  0.00    +0.214 A 
ATOM      4  N   UNL     1      -3.247   0.297  -0.506  0.00  0.00    -0.101 NA
ATOM      5  N   UNL     1      -4.311  -0.400  -0.333  0.00  0.00    -0.022 NA
ATOM      6  N   UNL     1      -4.012  -1.643  -0.168  0.00  0.00    -0.038 NA
BRANCH   2  12
ATOM      7  C   UNL     1       1.013  -4.585  -1.972  0.00  0.00    +0.044 C 
ATOM      8  C   UNL     1      -0.067  -4.301  -0.960  0.00  0.00    -0.048 A 
ATOM      9  C   UNL     1      -0.286  -5.183   0.082  0.00  0.00    +0.004 A 
ATOM     10  C   UNL     1      -1.276  -4.926   1.013  0.00  0.00    +0.006 A 
ATOM     11  C   UNL     1      -2.048  -3.786   0.905  0.00  0.00    -0.025 A 
ATOM     12  C   UNL     1      -1.830  -2.898  -0.140  0.00  0.00    +0.073 A 
ATOM     13  C   UNL     1      -0.839  -3.162  -1.076  0.00  0.00    +0.031 A 
ATOM     14  C   UNL     1      -3.126  -3.506   1.920  0.00  0.00    +0.046 C 
ENDBRANCH   2  12
ENDBRANCH   1   3
BRANCH   1  15
ATOM     15  C   UNL     1      -0.755   1.825  -0.897  0.00  0.00    +0.151 C 
BRANCH  15  16
ATOM     16  C   UNL     1       0.580   2.497  -1.086  0.00  0.00    +0.121 A 
ATOM     17  N   UNL     1       0.628   3.838  -1.293  0.00  0.00    -0.310 N 
ATOM     18  H   UNL     1      -0.224   4.360  -1.322  0.00  0.00    +0.170 HD
ATOM     19  C   UNL     1       1.800   4.480  -1.459  0.00  0.00    +0.260 A 
ATOM     20  O   UNL     1       1.826   5.685  -1.639  0.00  0.00    -0.267 OA
ATOM     21  C   UNL     1       3.016   3.722  -1.429  0.00  0.00    +0.075 A 
ATOM     22  C   UNL     1       4.386   4.173  -1.586  0.00  0.00    -0.026 A 
ATOM     23  C   UNL     1       5.383   3.276  -1.520  0.00  0.00    -0.008 A 
ATOM     24  S   UNL     1       4.533   1.734  -1.236  0.00  0.00    -0.073 S 
ATOM     25  C   UNL     1       2.865   2.340  -1.214  0.00  0.00    +0.116 A 
ATOM     26  N   UNL     1       1.671   1.779  -1.052  0.00  0.00    -0.226 NA
ATOM     27  C   UNL     1       6.865   3.515  -1.654  0.00  0.00    +0.052 C 
ATOM     28  C   UNL     1       4.686   5.631  -1.822  0.00  0.00    +0.045 C 
ENDBRANCH  15  16
ENDBRANCH   1  15
TORSDOF 4
