REMARK  Name = ZINC12665367
REMARK  11 active torsions:
REMARK  status: ('A' for Active; 'I' for Inactive)
REMARK    1  A    between atoms: C_1  and  C_2
REMARK    2  A    between atoms: C_2  and  N_3
REMARK    3  A    between atoms: C_7  and  C_32
REMARK    4  A    between atoms: N_12  and  C_13
REMARK    5  A    between atoms: C_13  and  C_15
REMARK    6  A    between atoms: N_20  and  S_22
REMARK    7  A    between atoms: S_22  and  C_25
REMARK    8  A    between atoms: C_28  and  C_31
REMARK    9  A    between atoms: C_32  and  O_34
REMARK   10  A    between atoms: O_34  and  C_35
REMARK   11  A    between atoms: C_35  and  C_36
REMARK                            x       y       z     vdW  Elec       q    Type
REMARK                         _______ _______ _______ _____ _____    ______ ____
ROOT
ATOM      1  C   UNL     1       0.002  -0.004   0.002  0.00  0.00    +0.243 C 
ATOM      2  O   UNL     1      -0.525  -0.614  -0.908  0.00  0.00    -0.273 OA
ENDROOT
BRANCH   1  12
ATOM      3  N   UNL     1       1.172  -2.838   1.894  0.00  0.00    -0.321 N 
ATOM      4  C   UNL     1       1.088  -4.203   1.721  0.00  0.00    +0.058 A 
ATOM      5  C   UNL     1       1.597  -5.217   2.552  0.00  0.00    +0.028 A 
ATOM      6  C   UNL     1       1.434  -6.530   2.238  0.00  0.00    +0.017 A 
ATOM      7  C   UNL     1       0.755  -6.919   1.077  0.00  0.00    +0.060 A 
ATOM      8  C   UNL     1       0.239  -5.931   0.232  0.00  0.00    +0.032 A 
ATOM      9  C   UNL     1       0.410  -4.611   0.560  0.00  0.00    +0.040 A 
ATOM     10  S   UNL     1      -0.062  -3.075  -0.196  0.00  0.00    -0.052 S 
ATOM     11  C   UNL     1       0.614  -1.997   0.982  0.00  0.00    +0.166 A 
ATOM     12  N   UNL     1       0.596  -0.666   0.990  0.00  0.00    -0.156 NA
BRANCH   3  14
ATOM     13  C   UNL     1       0.863  -2.123   4.212  0.00  0.00    +0.027 C 
ATOM     14  C   UNL     1       1.862  -2.291   3.065  0.00  0.00    +0.121 C 
ENDBRANCH   3  14
BRANCH   7  15
ATOM     15  C   UNL     1       0.587  -8.348   0.750  0.00  0.00    +0.339 C 
ATOM     16  O   UNL     1      -0.004  -8.674  -0.260  0.00  0.00    -0.245 OA
BRANCH  15  17
ATOM     17  O   UNL     1       1.089  -9.290   1.572  0.00  0.00    -0.461 OA
BRANCH  17  18
ATOM     18  C   UNL     1       0.886 -10.676   1.187  0.00  0.00    +0.229 C 
ATOM     19  C   UNL     1       1.520 -11.594   2.234  0.00  0.00    +0.048 C 
ENDBRANCH  17  18
ENDBRANCH  15  17
ENDBRANCH   7  15
ENDBRANCH   1  12
BRANCH   1  20
ATOM     20  C   UNL     1      -0.018   1.503   0.010  0.00  0.00    +0.093 C 
ATOM     21  C   UNL     1      -0.736   1.997   1.268  0.00  0.00    +0.015 C 
ATOM     22  C   UNL     1      -0.729   3.527   1.294  0.00  0.00    +0.018 C 
ATOM     23  C   UNL     1      -1.480   4.058   0.069  0.00  0.00    +0.109 C 
ATOM     24  N   UNL     1      -0.886   3.472  -1.140  0.00  0.00    -0.176 NA
ATOM     25  C   UNL     1      -0.761   2.011  -1.230  0.00  0.00    +0.122 C 
BRANCH  24  26
ATOM     26  S   UNL     1      -0.366   4.440  -2.379  0.00  0.00    +0.061 S 
ATOM     27  O   UNL     1      -0.384   3.641  -3.554  0.00  0.00    -0.153 OA
ATOM     28  O   UNL     1      -1.092   5.658  -2.275  0.00  0.00    -0.153 OA
BRANCH  26  29
ATOM     29  C   UNL     1       1.322   4.832  -2.062  0.00  0.00    +0.105 A 
ATOM     30  C   UNL     1       1.645   5.957  -1.328  0.00  0.00    +0.029 A 
ATOM     31  C   UNL     1       2.969   6.262  -1.076  0.00  0.00    +0.005 A 
ATOM     32  C   UNL     1       3.972   5.446  -1.566  0.00  0.00    -0.050 A 
ATOM     33  C   UNL     1       3.649   4.322  -2.304  0.00  0.00    +0.005 A 
ATOM     34  C   UNL     1       2.325   4.016  -2.553  0.00  0.00    +0.029 A 
ATOM     35  C   UNL     1       5.416   5.780  -1.294  0.00  0.00    +0.044 C 
ENDBRANCH  26  29
ENDBRANCH  24  26
ENDBRANCH   1  20
TORSDOF 8
