REMARK  Name = ZINC36554592
REMARK  10 active torsions:
REMARK  status: ('A' for Active; 'I' for Inactive)
REMARK    1  A    between atoms: C_4  and  C_7
REMARK    2  A    between atoms: C_7  and  C_8
REMARK    3  A    between atoms: N_10  and  C_11
REMARK    4  A    between atoms: N_10  and  C_18
REMARK    5  A    between atoms: C_18  and  C_20
REMARK    6  A    between atoms: C_18  and  C_29
REMARK    7  A    between atoms: C_21  and  O_28
REMARK    8  A    between atoms: C_23  and  O_27
REMARK    9  A    between atoms: C_25  and  O_26
REMARK   10  A    between atoms: N_31  and  C_32
REMARK                            x       y       z     vdW  Elec       q    Type
REMARK                         _______ _______ _______ _____ _____    ______ ____
ROOT
ATOM      1  C   UNL     1       5.551  -1.853   3.046  0.00  0.00    +0.204 C 
ENDROOT
BRANCH   1   2
ATOM      2  C   UNL     1       5.423  -3.321   3.361  0.00  0.00    +0.065 A 
ATOM      3  C   UNL     1       6.061  -4.260   2.564  0.00  0.00    +0.129 A 
ATOM      4  C   UNL     1       5.942  -5.610   2.854  0.00  0.00    +0.091 A 
ATOM      5  C   UNL     1       5.186  -6.022   3.941  0.00  0.00    +0.124 A 
ATOM      6  C   UNL     1       4.549  -5.084   4.739  0.00  0.00    +0.091 A 
ATOM      7  C   UNL     1       4.671  -3.732   4.451  0.00  0.00    +0.129 A 
BRANCH   7   8
ATOM      8  O   UNL     1       4.050  -2.812   5.235  0.00  0.00    -0.506 OA
ATOM      9  H   UNL     1       3.153  -2.593   4.949  0.00  0.00    +0.292 HD
ENDBRANCH   7   8
BRANCH   5  10
ATOM     10  O   UNL     1       5.069  -7.346   4.225  0.00  0.00    -0.507 OA
ATOM     11  H   UNL     1       5.751  -7.682   4.823  0.00  0.00    +0.292 HD
ENDBRANCH   5  10
BRANCH   3  12
ATOM     12  O   UNL     1       6.801  -3.856   1.499  0.00  0.00    -0.506 OA
ATOM     13  H   UNL     1       7.745  -3.766   1.688  0.00  0.00    +0.292 HD
ENDBRANCH   3  12
ENDBRANCH   1   2
BRANCH   1  14
ATOM     14  C   UNL     1       6.999  -1.445   3.134  0.00  0.00    +0.239 C 
ATOM     15  O   UNL     1       7.561  -0.987   2.162  0.00  0.00    -0.273 OA
ATOM     16  N   UNL     1       7.670  -1.589   4.294  0.00  0.00    -0.311 N 
ATOM     17  H   UNL     1       7.221  -1.955   5.072  0.00  0.00    +0.149 HD
BRANCH  16  18
ATOM     18  C   UNL     1       9.078  -1.192   4.380  0.00  0.00    +0.073 C 
ATOM     19  C   UNL     1       9.962  -2.343   3.896  0.00  0.00    +0.022 C 
ATOM     20  C   UNL     1      11.432  -1.929   3.986  0.00  0.00    +0.002 C 
ATOM     21  C   UNL     1      11.780  -1.595   5.438  0.00  0.00    +0.000 C 
ATOM     22  C   UNL     1      10.896  -0.444   5.922  0.00  0.00    +0.002 C 
ATOM     23  C   UNL     1       9.426  -0.858   5.832  0.00  0.00    +0.022 C 
ENDBRANCH  16  18
ENDBRANCH   1  14
BRANCH   1  26
ATOM     24  C   UNL     1       5.028  -0.341   1.208  0.00  0.00    +0.225 C 
ATOM     25  O   UNL     1       5.495   0.569   1.860  0.00  0.00    -0.275 OA
ATOM     26  N   UNL     1       5.054  -1.599   1.691  0.00  0.00    -0.255 N 
BRANCH  26  27
ATOM     27  C   UNL     1       4.607  -2.662   0.899  0.00  0.00    +0.039 A 
ATOM     28  C   UNL     1       5.267  -2.976  -0.282  0.00  0.00    +0.023 A 
ATOM     29  C   UNL     1       4.824  -4.026  -1.061  0.00  0.00    +0.003 A 
ATOM     30  C   UNL     1       3.723  -4.765  -0.668  0.00  0.00    +0.020 A 
ATOM     31  C   UNL     1       3.063  -4.455   0.508  0.00  0.00    +0.043 A 
ATOM     32  C   UNL     1       3.506  -3.409   1.295  0.00  0.00    +0.043 A 
ATOM     33 CL   UNL     1       1.681  -5.385   0.998  0.00  0.00    -0.083 Cl
ENDBRANCH  26  27
BRANCH  24  34
ATOM     34  C   UNL     1       4.420  -0.065  -0.143  0.00  0.00    +0.131 C 
BRANCH  34  38
ATOM     35  C   UNL     1       4.352   4.148  -0.844  0.00  0.00    +0.000 A 
ATOM     36  C   UNL     1       5.448   3.400  -1.232  0.00  0.00    +0.000 A 
ATOM     37  C   UNL     1       5.470   2.037  -1.005  0.00  0.00    +0.004 A 
ATOM     38  C   UNL     1       4.396   1.421  -0.390  0.00  0.00    -0.039 A 
ATOM     39  C   UNL     1       3.300   2.169  -0.001  0.00  0.00    +0.004 A 
ATOM     40  C   UNL     1       3.278   3.532  -0.229  0.00  0.00    +0.000 A 
ENDBRANCH  34  38
ENDBRANCH  24  34
ENDBRANCH   1  26
TORSDOF 10
