REMARK  Name = ZINC24177199
REMARK  7 active torsions:
REMARK  status: ('A' for Active; 'I' for Inactive)
REMARK    1  A    between atoms: C_1  and  N_2
REMARK    2  A    between atoms: C_6  and  S_7
REMARK    3  A    between atoms: S_7  and  C_8
REMARK    4  A    between atoms: C_8  and  C_9
REMARK    5  A    between atoms: C_12  and  C_15
REMARK    6  A    between atoms: N_17  and  N_18
REMARK    7  A    between atoms: C_19  and  C_21
REMARK                            x       y       z     vdW  Elec       q    Type
REMARK                         _______ _______ _______ _____ _____    ______ ____
ROOT
ATOM      1  C   UNL     1      -1.187   1.624   0.017  0.00  0.00    +0.260 C 
ATOM      2  O   UNL     1      -1.204   2.839   0.023  0.00  0.00    -0.269 OA
ATOM      3  N   UNL     1      -0.011   0.966   0.007  0.00  0.00    -0.230 N 
ATOM      4  H   UNL     1       0.004  -0.134   0.006  0.00  0.00    +0.173 HD
ENDROOT
BRANCH   1   8
ATOM      5  C   UNL     1      -4.837  -0.550   0.022  0.00  0.00    -0.037 A 
ATOM      6  C   UNL     1      -4.859   0.834   0.030  0.00  0.00    +0.005 A 
ATOM      7  C   UNL     1      -3.677   1.546   0.028  0.00  0.00    +0.013 A 
ATOM      8  C   UNL     1      -2.458   0.867   0.018  0.00  0.00    +0.038 A 
ATOM      9  C   UNL     1      -2.442  -0.528   0.005  0.00  0.00    +0.013 A 
ATOM     10  C   UNL     1      -3.631  -1.228   0.013  0.00  0.00    +0.005 A 
BRANCH   5  11
ATOM     11  C   UNL     1      -6.131  -1.321   0.024  0.00  0.00    +0.112 C 
BRANCH  11  12
ATOM     12  S   UNL     1      -6.657  -1.621  -1.682  0.00  0.00    -0.081 S 
BRANCH  12  18
ATOM     13  C   UNL     1      -8.858  -2.900  -3.793  0.00  0.00    +0.152 C 
ATOM     14  N   UNL     1      -8.999  -3.004  -2.339  0.00  0.00    -0.312 N 
ATOM     15  C   UNL     1     -10.008  -3.617  -1.649  0.00  0.00    +0.225 A 
ATOM     16  N   UNL     1      -9.753  -3.474  -0.379  0.00  0.00    -0.137 NA
ATOM     17  N   UNL     1      -8.657  -2.822  -0.220  0.00  0.00    -0.123 NA
ATOM     18  C   UNL     1      -8.149  -2.511  -1.391  0.00  0.00    +0.191 A 
ENDBRANCH  12  18
ENDBRANCH  11  12
ENDBRANCH   5  11
ENDBRANCH   1   8
BRANCH   3  19
ATOM     19  N   UNL     1       1.193   1.683  -0.000  0.00  0.00    -0.230 N 
ATOM     20  C   UNL     1       2.369   1.025  -0.015  0.00  0.00    +0.267 C 
ATOM     21  O   UNL     1       2.385  -0.192  -0.022  0.00  0.00    -0.268 OA
ATOM     22  H   UNL     1       1.178   2.783   0.006  0.00  0.00    +0.173 HD
BRANCH  20  23
ATOM     23  C   UNL     1       3.628   1.775  -0.023  0.00  0.00    +0.076 A 
ATOM     24  C   UNL     1       4.927   1.300  -0.038  0.00  0.00    +0.024 A 
ATOM     25  C   UNL     1       5.963   2.227  -0.050  0.00  0.00    -0.036 A 
ATOM     26  C   UNL     1       5.608   3.531  -0.017  0.00  0.00    -0.006 A 
ATOM     27  S   UNL     1       3.887   3.542  -0.024  0.00  0.00    -0.088 S 
ATOM     28  C   UNL     1       6.541   4.720   0.030  0.00  0.00    +0.043 C 
ATOM     29  C   UNL     1       7.263   4.785  -1.326  0.00  0.00    +0.005 C 
ATOM     30  C   UNL     1       8.385   3.774  -1.371  0.00  0.00    +0.001 C 
ATOM     31  C   UNL     1       7.979   2.326  -1.471  0.00  0.00    +0.005 C 
ATOM     32  C   UNL     1       7.430   1.791  -0.147  0.00  0.00    +0.036 C 
ENDBRANCH  20  23
ENDBRANCH   3  19
TORSDOF 6
