REMARK  Name = ZINC08739337
REMARK  5 active torsions:
REMARK  status: ('A' for Active; 'I' for Inactive)
REMARK    1  A    between atoms: C_4  and  C_7
REMARK    2  A    between atoms: C_7  and  C_8
REMARK    3  A    between atoms: C_8  and  C_10
REMARK    4  A    between atoms: C_8  and  N_26
REMARK    5  A    between atoms: C_27  and  C_29
REMARK                            x       y       z     vdW  Elec       q    Type
REMARK                         _______ _______ _______ _____ _____    ______ ____
ROOT
ATOM      1  C   UNL     1      -0.783   2.819   3.342  0.00  0.00    +0.164 C 
ENDROOT
BRANCH   1   2
ATOM      2  C   UNL     1       0.053   2.239   2.230  0.00  0.00    +0.236 C 
ATOM      3  O   UNL     1       1.255   2.145   2.361  0.00  0.00    -0.274 OA
ATOM      4  N   UNL     1      -0.535   1.824   1.091  0.00  0.00    -0.300 N 
ATOM      5  C   UNL     1       0.275   1.357  -0.043  0.00  0.00    +0.107 C 
ATOM      6  C   UNL     1      -0.123   2.145  -1.295  0.00  0.00    +0.013 C 
ATOM      7  C   UNL     1      -1.632   2.026  -1.510  0.00  0.00    -0.022 C 
ATOM      8  C   UNL     1      -2.375   2.614  -0.310  0.00  0.00    +0.013 C 
ATOM      9  C   UNL     1      -2.000   1.831   0.953  0.00  0.00    +0.107 C 
ATOM     10  C   UNL     1      -2.027   2.763  -2.762  0.00  0.00    +0.027 A 
ATOM     11  C   UNL     1      -2.319   2.150  -3.933  0.00  0.00    +0.059 A 
ATOM     12  N   UNL     1      -2.627   3.090  -4.825  0.00  0.00    -0.241 NA
ATOM     13  C   UNL     1      -2.537   4.266  -4.258  0.00  0.00    +0.196 A 
ATOM     14  N   UNL     1      -2.163   4.099  -2.967  0.00  0.00    -0.349 N 
ATOM     15  H   UNL     1      -2.016   4.822  -2.293  0.00  0.00    +0.166 HD
ATOM     16  C   UNL     1      -2.277   0.652  -4.109  0.00  0.00    +0.038 C 
ATOM     17  C   UNL     1      -1.487   0.060  -2.933  0.00  0.00    -0.075 C 
ATOM     18  N   UNL     1      -2.004   0.602  -1.659  0.00  0.00    +0.387 N 
ATOM     19  H   UNL     1      -3.027   0.516  -1.646  0.00  0.00    -0.085 HD
ATOM     20  H   UNL     1      -1.606   0.066  -0.878  0.00  0.00    -0.085 HD
ENDBRANCH   1   2
BRANCH   1  21
ATOM     21  N   UNL     1       0.057   3.666   4.193  0.00  0.00    -0.300 N 
ATOM     22  C   UNL     1      -0.499   4.661   4.912  0.00  0.00    +0.245 C 
ATOM     23  O   UNL     1      -1.697   4.857   4.853  0.00  0.00    -0.270 OA
ATOM     24  H   UNL     1       1.013   3.509   4.240  0.00  0.00    +0.150 HD
BRANCH  22  25
ATOM     25  C   UNL     1       0.348   5.515   5.771  0.00  0.00    +0.038 A 
ATOM     26  C   UNL     1      -0.225   6.547   6.517  0.00  0.00    +0.013 A 
ATOM     27  C   UNL     1       0.571   7.340   7.317  0.00  0.00    +0.002 A 
ATOM     28  C   UNL     1       1.935   7.114   7.383  0.00  0.00    +0.015 A 
ATOM     29  C   UNL     1       2.509   6.093   6.646  0.00  0.00    +0.019 A 
ATOM     30  C   UNL     1       1.723   5.289   5.845  0.00  0.00    +0.028 A 
ATOM     31 BR   UNL     1       4.374   5.794   6.743  0.00  0.00    -0.050 Br
ENDBRANCH  22  25
ENDBRANCH   1  21
BRANCH   1  32
ATOM     32  C   UNL     1      -1.378   1.685   4.178  0.00  0.00    +0.067 C 
BRANCH  32  36
ATOM     33  C   UNL     1      -4.052   3.311   7.086  0.00  0.00    +0.000 A 
ATOM     34  C   UNL     1      -4.524   2.950   5.838  0.00  0.00    +0.000 A 
ATOM     35  C   UNL     1      -3.659   2.424   4.897  0.00  0.00    +0.004 A 
ATOM     36  C   UNL     1      -2.321   2.259   5.204  0.00  0.00    -0.045 A 
ATOM     37  C   UNL     1      -1.850   2.615   6.454  0.00  0.00    +0.004 A 
ATOM     38  C   UNL     1      -2.714   3.146   7.393  0.00  0.00    +0.000 A 
ENDBRANCH  32  36
ENDBRANCH   1  32
TORSDOF 5
