REMARK  Name = ZINC06224649
REMARK  8 active torsions:
REMARK  status: ('A' for Active; 'I' for Inactive)
REMARK    1  A    between atoms: C_1  and  C_2
REMARK    2  A    between atoms: C_2  and  C_3
REMARK    3  A    between atoms: C_3  and  C_5
REMARK    4  A    between atoms: C_3  and  C_6
REMARK    5  A    between atoms: C_6  and  C_8
REMARK    6  A    between atoms: C_6  and  N_25
REMARK    7  A    between atoms: N_10  and  N_11
REMARK    8  A    between atoms: C_12  and  C_14
REMARK                            x       y       z     vdW  Elec       q    Type
REMARK                         _______ _______ _______ _____ _____    ______ ____
ROOT
ATOM      1  C   UNL     1       1.555  -2.507  -2.445  0.00  0.00    +0.250 C 
ATOM      2  O   UNL     1       2.736  -2.780  -2.403  0.00  0.00    -0.272 OA
ATOM      3  N   UNL     1       0.873  -2.639  -3.600  0.00  0.00    -0.233 N 
ATOM      4  H   UNL     1      -0.071  -2.421  -3.633  0.00  0.00    +0.173 HD
ENDROOT
BRANCH   3   5
ATOM      5  N   UNL     1       1.529  -3.090  -4.753  0.00  0.00    -0.231 N 
ATOM      6  C   UNL     1       0.847  -3.222  -5.908  0.00  0.00    +0.273 C 
ATOM      7  O   UNL     1      -0.334  -2.949  -5.950  0.00  0.00    -0.270 OA
ATOM      8  H   UNL     1       2.473  -3.308  -4.719  0.00  0.00    +0.173 HD
BRANCH   6   9
ATOM      9  C   UNL     1       1.553  -3.708  -7.148  0.00  0.00    +0.297 C 
ATOM     10  C   UNL     1       2.592  -2.670  -7.592  0.00  0.00    +0.283 C 
ATOM     11  O   UNL     1       3.232  -3.156  -8.777  0.00  0.00    -0.484 OA
ATOM     12  C   UNL     1       2.422  -3.658  -9.748  0.00  0.00    +0.162 A 
ATOM     13  C   UNL     1       2.915  -3.809 -11.036  0.00  0.00    +0.049 A 
ATOM     14  C   UNL     1       2.105  -4.320 -12.032  0.00  0.00    +0.004 A 
ATOM     15  C   UNL     1       0.801  -4.682 -11.748  0.00  0.00    +0.004 A 
ATOM     16  C   UNL     1       0.303  -4.534 -10.467  0.00  0.00    +0.049 A 
ATOM     17  C   UNL     1       1.110  -4.020  -9.463  0.00  0.00    +0.163 A 
ATOM     18  O   UNL     1       0.605  -3.876  -8.208  0.00  0.00    -0.472 OA
ENDBRANCH   6   9
ENDBRANCH   3   5
BRANCH   1  19
ATOM     19  C   UNL     1       0.849  -2.021  -1.205  0.00  0.00    +0.165 C 
BRANCH  19  20
ATOM     20  N   UNL     1       1.622  -2.405  -0.021  0.00  0.00    -0.288 N 
ATOM     21  C   UNL     1       2.887  -1.964   0.130  0.00  0.00    +0.298 C 
ATOM     22  O   UNL     1       3.386  -1.248  -0.717  0.00  0.00    -0.253 OA
ATOM     23  N   UNL     1       3.598  -2.317   1.219  0.00  0.00    -0.313 N 
ATOM     24  H   UNL     1       1.224  -2.976   0.654  0.00  0.00    +0.151 HD
ATOM     25  H   UNL     1       3.200  -2.888   1.894  0.00  0.00    +0.146 HD
ATOM     26  H   UNL     1       4.508  -1.999   1.327  0.00  0.00    +0.146 HD
ENDBRANCH  19  20
BRANCH  19  27
ATOM     27  C   UNL     1       0.718  -0.497  -1.257  0.00  0.00    +0.015 C 
ATOM     28  C   UNL     1      -0.089  -0.097  -2.493  0.00  0.00    +0.010 C 
BRANCH  27  30
ATOM     29  C   UNL     1      -0.019   1.526   0.010  0.00  0.00    +0.004 C 
ATOM     30  C   UNL     1       0.002  -0.004   0.002  0.00  0.00    +0.002 C 
ENDBRANCH  27  30
ENDBRANCH  19  27
ENDBRANCH   1  19
TORSDOF 6
