REMARK  Name = ZINC59115693
REMARK  16 active torsions:
REMARK  status: ('A' for Active; 'I' for Inactive)
REMARK    1  A    between atoms: C_1  and  C_2
REMARK    2  A    between atoms: C_2  and  C_3
REMARK    3  A    between atoms: C_6  and  N_9
REMARK    4  A    between atoms: N_9  and  C_10
REMARK    5  A    between atoms: C_10  and  N_12
REMARK    6  A    between atoms: N_12  and  C_13
REMARK    7  A    between atoms: C_13  and  C_14
REMARK    8  A    between atoms: C_14  and  C_35
REMARK    9  A    between atoms: C_16  and  N_23
REMARK   10  A    between atoms: C_19  and  C_21
REMARK   11  A    between atoms: C_19  and  C_22
REMARK   12  A    between atoms: N_23  and  C_24
REMARK   13  A    between atoms: C_24  and  N_26
REMARK   14  A    between atoms: N_26  and  C_27
REMARK   15  A    between atoms: C_30  and  C_33
REMARK   16  A    between atoms: C_33  and  C_34
REMARK                            x       y       z     vdW  Elec       q    Type
REMARK                         _______ _______ _______ _____ _____    ______ ____
ROOT
ATOM      1  C   UNL     1      -8.996  -3.061  -1.572  0.00  0.00    -0.014 C 
ATOM      2  C   UNL     1      -8.666  -4.098  -0.509  0.00  0.00    +0.030 C 
ATOM      3  C   UNL     1      -9.708  -5.197  -0.393  0.00  0.00    +0.073 C 
ATOM      4  C   UNL     1     -10.000  -5.844  -1.735  0.00  0.00    +0.028 C 
ATOM      5  C   UNL     1     -10.343  -4.851  -2.832  0.00  0.00    -0.033 C 
ATOM      6  C   UNL     1      -9.384  -3.679  -2.901  0.00  0.00    +0.014 C 
ATOM      7  C   UNL     1     -10.248  -5.606  -4.181  0.00  0.00    +0.011 C 
ATOM      8  C   UNL     1     -11.792  -4.371  -2.697  0.00  0.00    +0.011 C 
ATOM      9  C   UNL     1     -10.070  -2.090  -1.075  0.00  0.00    +0.013 C 
ENDROOT
BRANCH   3  10
ATOM     10  N   UNL     1     -10.922  -4.738   0.272  0.00  0.00    -0.323 N 
ATOM     11  H   UNL     1     -11.130  -3.791   0.302  0.00  0.00    +0.148 HD
BRANCH  10  12
ATOM     12  C   UNL     1     -11.755  -5.630   0.844  0.00  0.00    +0.135 C 
ATOM     13  S   UNL     1     -11.388  -7.301   0.791  0.00  0.00    -0.019 S 
BRANCH  12  14
ATOM     14  N   UNL     1     -12.877  -5.205   1.459  0.00  0.00    -0.297 N 
ATOM     15  H   UNL     1     -13.125  -4.268   1.423  0.00  0.00    +0.154 HD
BRANCH  14  16
ATOM     16  C   UNL     1     -13.685  -6.117   2.147  0.00  0.00    +0.033 A 
ATOM     17  C   UNL     1     -13.107  -7.080   2.964  0.00  0.00    +0.023 A 
ATOM     18  C   UNL     1     -13.907  -7.978   3.643  0.00  0.00    +0.005 A 
ATOM     19  C   UNL     1     -15.283  -7.920   3.509  0.00  0.00    -0.048 A 
ATOM     20  C   UNL     1     -15.861  -6.962   2.696  0.00  0.00    +0.005 A 
ATOM     21  C   UNL     1     -15.067  -6.058   2.019  0.00  0.00    +0.023 A 
BRANCH  19  22
ATOM     22  C   UNL     1     -16.152  -8.902   4.250  0.00  0.00    +0.032 C 
ATOM     23  C   UNL     1     -16.518  -8.327   5.620  0.00  0.00    +0.009 C 
ENDBRANCH  19  22
ENDBRANCH  14  16
ENDBRANCH  12  14
ENDBRANCH  10  12
ENDBRANCH   3  10
BRANCH   1  24
ATOM     24  C   UNL     1      -7.713  -2.224  -1.807  0.00  0.00    +0.110 C 
BRANCH  24  25
ATOM     25  N   UNL     1      -7.296  -1.604  -0.547  0.00  0.00    -0.326 N 
ATOM     26  H   UNL     1      -7.811  -1.754   0.261  0.00  0.00    +0.148 HD
BRANCH  25  27
ATOM     27  C   UNL     1      -6.197  -0.825  -0.511  0.00  0.00    +0.135 C 
ATOM     28  S   UNL     1      -5.288  -0.560  -1.937  0.00  0.00    -0.019 S 
BRANCH  27  29
ATOM     29  N   UNL     1      -5.814  -0.255   0.648  0.00  0.00    -0.297 N 
ATOM     30  H   UNL     1      -6.271  -0.478   1.474  0.00  0.00    +0.154 HD
BRANCH  29  34
ATOM     31  C   UNL     1      -2.662   2.470   0.687  0.00  0.00    -0.048 A 
ATOM     32  C   UNL     1      -3.545   2.451  -0.377  0.00  0.00    +0.005 A 
ATOM     33  C   UNL     1      -4.591   1.549  -0.393  0.00  0.00    +0.023 A 
ATOM     34  C   UNL     1      -4.755   0.660   0.661  0.00  0.00    +0.033 A 
ATOM     35  C   UNL     1      -3.867   0.681   1.729  0.00  0.00    +0.023 A 
ATOM     36  C   UNL     1      -2.820   1.582   1.736  0.00  0.00    +0.005 A 
BRANCH  31  38
ATOM     37  C   UNL     1      -0.301   2.832   0.022  0.00  0.00    +0.009 C 
ATOM     38  C   UNL     1      -1.522   3.455   0.701  0.00  0.00    +0.032 C 
ENDBRANCH  31  38
ENDBRANCH  29  34
ENDBRANCH  27  29
ENDBRANCH  25  27
ENDBRANCH  24  25
ENDBRANCH   1  24
TORSDOF 11
