REMARK  Name = ZINC06409799
REMARK  12 active torsions:
REMARK  status: ('A' for Active; 'I' for Inactive)
REMARK    1  A    between atoms: C_1  and  C_2
REMARK    2  A    between atoms: C_7  and  C_14
REMARK    3  A    between atoms: C_14  and  C_16
REMARK    4  A    between atoms: C_14  and  N_66
REMARK    5  A    between atoms: N_20  and  C_21
REMARK    6  A    between atoms: C_21  and  C_22
REMARK    7  A    between atoms: C_21  and  C_23
REMARK    8  A    between atoms: C_21  and  C_24
REMARK    9  A    between atoms: C_25  and  C_26
REMARK   10  A    between atoms: C_25  and  N_66
REMARK   11  A    between atoms: C_33  and  C_34
REMARK   12  A    between atoms: C_33  and  N_66
REMARK                            x       y       z     vdW  Elec       q    Type
REMARK                         _______ _______ _______ _____ _____    ______ ____
ROOT
ATOM      1  C   UNL     1       3.782   1.653  -0.308  0.00  0.00    +0.040 C 
ENDROOT
BRANCH   1   8
ATOM      2  C   UNL     1      -3.724   4.264   0.379  0.00  0.00    +0.044 C 
ATOM      3  C   UNL     1      -2.398   3.557   0.260  0.00  0.00    -0.048 A 
ATOM      4  C   UNL     1      -2.358   2.169   0.262  0.00  0.00    +0.004 A 
ATOM      5  C   UNL     1      -1.167   1.508   0.162  0.00  0.00    +0.010 A 
ATOM      6  C   UNL     1       0.022   2.236   0.044  0.00  0.00    -0.001 A 
ATOM      7  C   UNL     1       1.316   1.560  -0.072  0.00  0.00    +0.017 A 
ATOM      8  C   UNL     1       2.435   2.318  -0.186  0.00  0.00    +0.011 A 
ATOM      9  C   UNL     1       2.342   3.726  -0.190  0.00  0.00    +0.251 A 
ATOM     10  O   UNL     1       3.360   4.388  -0.292  0.00  0.00    -0.268 OA
ATOM     11  N   UNL     1       1.159   4.356  -0.084  0.00  0.00    -0.322 N 
ATOM     12  H   UNL     1       1.131   5.325  -0.089  0.00  0.00    +0.169 HD
ATOM     13  C   UNL     1      -0.015   3.643   0.034  0.00  0.00    +0.049 A 
ATOM     14  C   UNL     1      -1.240   4.294   0.144  0.00  0.00    +0.029 A 
ENDBRANCH   1   8
BRANCH   1  15
ATOM     15  C   UNL     1       4.372   1.960  -1.661  0.00  0.00    +0.143 A 
ATOM     16  N   UNL     1       4.899   3.096  -2.045  0.00  0.00    -0.115 NA
ATOM     17  N   UNL     1       5.293   2.960  -3.265  0.00  0.00    -0.023 NA
ATOM     18  N   UNL     1       5.024   1.768  -3.670  0.00  0.00    -0.043 NA
ATOM     19  N   UNL     1       4.456   1.120  -2.710  0.00  0.00    -0.225 N 
BRANCH  19  20
ATOM     20  C   UNL     1       3.990  -0.268  -2.753  0.00  0.00    +0.059 C 
ATOM     21  C   UNL     1       2.504  -0.319  -2.392  0.00  0.00    +0.036 C 
ATOM     22  C   UNL     1       4.192  -0.830  -4.161  0.00  0.00    +0.036 C 
ATOM     23  C   UNL     1       4.787  -1.105  -1.750  0.00  0.00    +0.036 C 
ENDBRANCH  19  20
ENDBRANCH   1  15
BRANCH   1  24
ATOM     24  N   UNL     1       4.678   2.189   0.738  0.00  0.00    +0.397 N 
ATOM     25  H   UNL     1       4.811   3.195   0.581  0.00  0.00    -0.079 HD
BRANCH  24  26
ATOM     26  C   UNL     1       5.992   1.515   0.670  0.00  0.00    -0.039 C 
BRANCH  26  27
ATOM     27  C   UNL     1       6.806   2.156  -0.425  0.00  0.00    -0.046 A 
ATOM     28  C   UNL     1       7.047   1.469  -1.600  0.00  0.00    +0.003 A 
ATOM     29  C   UNL     1       7.790   2.059  -2.606  0.00  0.00    +0.000 A 
ATOM     30  C   UNL     1       8.300   3.332  -2.433  0.00  0.00    +0.001 A 
ATOM     31  C   UNL     1       8.065   4.018  -1.257  0.00  0.00    +0.020 A 
ATOM     32  C   UNL     1       7.317   3.430  -0.252  0.00  0.00    +0.042 A 
ATOM     33 CL   UNL     1       7.021   4.291   1.227  0.00  0.00    -0.083 Cl
ENDBRANCH  26  27
ENDBRANCH  24  26
BRANCH  24  34
ATOM     34  C   UNL     1       4.076   1.986   2.072  0.00  0.00    -0.001 C 
BRANCH  34  35
ATOM     35  C   UNL     1       4.811   2.843   3.070  0.00  0.00    +0.089 A 
ATOM     36  C   UNL     1       4.461   4.085   3.450  0.00  0.00    +0.042 A 
ATOM     37  C   UNL     1       5.422   4.510   4.396  0.00  0.00    +0.041 A 
ATOM     38  C   UNL     1       6.302   3.503   4.537  0.00  0.00    +0.195 A 
ATOM     39  O   UNL     1       5.924   2.493   3.736  0.00  0.00    -0.470 OA
ENDBRANCH  34  35
ENDBRANCH  24  34
ENDBRANCH   1  24
TORSDOF 8
