REMARK  Name = ZINC14671504
REMARK  8 active torsions:
REMARK  status: ('A' for Active; 'I' for Inactive)
REMARK    1  A    between atoms: C_1  and  C_2
REMARK    2  A    between atoms: C_4  and  C_38
REMARK    3  A    between atoms: N_10  and  C_11
REMARK    4  A    between atoms: C_11  and  C_13
REMARK    5  A    between atoms: C_16  and  C_19
REMARK    6  A    between atoms: N_25  and  C_26
REMARK    7  A    between atoms: C_26  and  C_27
REMARK    8  A    between atoms: C_27  and  C_28
REMARK                            x       y       z     vdW  Elec       q    Type
REMARK                         _______ _______ _______ _____ _____    ______ ____
ROOT
ATOM      1  C   UNL     1      -7.524  -2.740  -5.475  0.00  0.00    +0.066 C 
ATOM      2  C   UNL     1      -6.192  -2.051  -5.625  0.00  0.00    +0.044 A 
ATOM      3  C   UNL     1      -5.856  -1.425  -6.816  0.00  0.00    +0.046 A 
ATOM      4  C   UNL     1      -4.621  -0.803  -6.912  0.00  0.00    +0.044 A 
ATOM      5  N   UNL     1      -3.805  -0.825  -5.870  0.00  0.00    -0.217 NA
ATOM      6  C   UNL     1      -4.157  -1.432  -4.747  0.00  0.00    +0.231 A 
ATOM      7  N   UNL     1      -5.327  -2.039  -4.624  0.00  0.00    -0.217 NA
ATOM      8  N   UNL     1      -3.276  -1.435  -3.674  0.00  0.00    -0.297 N 
ATOM      9  C   UNL     1      -3.591  -2.120  -2.533  0.00  0.00    +0.196 C 
ATOM     10  N   UNL     1      -4.699  -2.841  -2.479  0.00  0.00    -0.143 NA
ATOM     11  N   UNL     1      -2.763  -2.059  -1.451  0.00  0.00    -0.357 N 
ATOM     12  C   UNL     1      -4.213  -0.110  -8.186  0.00  0.00    +0.066 C 
ATOM     13  H   UNL     1      -2.324  -0.887  -3.742  0.00  0.00    +0.171 HD
ATOM     14  H   UNL     1      -2.965  -2.683  -0.568  0.00  0.00    +0.162 HD
ENDROOT
BRANCH  10  15
ATOM     15  C   UNL     1      -5.192  -3.223  -1.293  0.00  0.00    +0.270 C 
ATOM     16  O   UNL     1      -4.701  -2.797  -0.263  0.00  0.00    -0.268 OA
BRANCH  15  17
ATOM     17  C   UNL     1      -6.335  -4.163  -1.234  0.00  0.00    +0.039 A 
ATOM     18  C   UNL     1      -6.902  -4.647  -2.414  0.00  0.00    +0.014 A 
ATOM     19  C   UNL     1      -7.961  -5.525  -2.359  0.00  0.00    +0.009 A 
ATOM     20  C   UNL     1      -8.475  -5.922  -1.124  0.00  0.00    -0.018 A 
ATOM     21  C   UNL     1      -7.912  -5.434   0.055  0.00  0.00    +0.009 A 
ATOM     22  C   UNL     1      -6.849  -4.561   0.001  0.00  0.00    +0.014 A 
BRANCH  20  23
ATOM     23  C   UNL     1      -9.619  -6.862  -1.066  0.00  0.00    -0.018 A 
ATOM     24  C   UNL     1     -10.131  -7.266   0.167  0.00  0.00    +0.008 A 
ATOM     25  C   UNL     1     -11.200  -8.137   0.215  0.00  0.00    +0.001 A 
ATOM     26  C   UNL     1     -11.756  -8.620  -0.956  0.00  0.00    +0.000 A 
ATOM     27  C   UNL     1     -11.249  -8.227  -2.182  0.00  0.00    +0.001 A 
ATOM     28  C   UNL     1     -10.184  -7.352  -2.243  0.00  0.00    +0.008 A 
ENDBRANCH  20  23
ENDBRANCH  15  17
ENDBRANCH  10  15
BRANCH  11  29
ATOM     29  C   UNL     1      -1.604  -1.164  -1.465  0.00  0.00    +0.120 C 
BRANCH  29  30
ATOM     30  C   UNL     1      -0.781  -1.375  -0.193  0.00  0.00    +0.058 C 
BRANCH  30  31
ATOM     31  C   UNL     1       0.344  -0.372  -0.150  0.00  0.00    -0.021 A 
ATOM     32  C   UNL     1       1.622  -0.590  -0.497  0.00  0.00    +0.087 A 
ATOM     33  N   UNL     1       2.353   0.554  -0.325  0.00  0.00    -0.360 N 
ATOM     34  H   UNL     1       3.428   0.560  -0.561  0.00  0.00    +0.165 HD
ATOM     35  C   UNL     1       1.543   1.561   0.149  0.00  0.00    +0.047 A 
ATOM     36  C   UNL     1       0.249   1.026   0.280  0.00  0.00    +0.003 A 
ATOM     37  C   UNL     1      -0.793   1.827   0.750  0.00  0.00    +0.010 A 
ATOM     38  C   UNL     1      -0.550   3.133   1.074  0.00  0.00    +0.001 A 
ATOM     39  C   UNL     1       0.725   3.666   0.947  0.00  0.00    +0.002 A 
ATOM     40  C   UNL     1       1.768   2.891   0.489  0.00  0.00    +0.026 A 
ENDBRANCH  30  31
ENDBRANCH  29  30
ENDBRANCH  11  29
TORSDOF 6
