REMARK  Name = ZINC13115511
REMARK  5 active torsions:
REMARK  status: ('A' for Active; 'I' for Inactive)
REMARK    1  A    between atoms: C_4  and  C_7
REMARK    2  A    between atoms: C_9  and  C_21
REMARK    3  A    between atoms: C_11  and  C_16
REMARK    4  A    between atoms: C_11  and  O_20
REMARK    5  A    between atoms: C_21  and  C_23
REMARK                            x       y       z     vdW  Elec       q    Type
REMARK                         _______ _______ _______ _____ _____    ______ ____
ROOT
ATOM      1  C   UNL     1       6.299  -0.456   0.396  0.00  0.00    +0.117 C 
ATOM      2  C   UNL     1       5.096   0.364  -0.083  0.00  0.00    +0.144 C 
ATOM      3  C   UNL     1       5.194   0.529  -1.604  0.00  0.00    +0.241 C 
ATOM      4  N   UNL     1       6.487   1.128  -1.939  0.00  0.00    -0.291 N 
ATOM      5  C   UNL     1       7.567   0.932  -1.169  0.00  0.00    +0.133 C 
ATOM      6  S   UNL     1       9.050   1.651  -1.633  0.00  0.00    -0.019 S 
ATOM      7  N   UNL     1       7.532   0.195  -0.049  0.00  0.00    -0.319 N 
ATOM      8  H   UNL     1       6.564   1.677  -2.735  0.00  0.00    +0.151 HD
ATOM      9  H   UNL     1       8.340   0.091   0.478  0.00  0.00    +0.148 HD
ENDROOT
BRANCH   1  13
ATOM     10  C   UNL     1       6.260  -0.688   4.661  0.00  0.00    +0.000 A 
ATOM     11  C   UNL     1       5.793  -1.748   3.907  0.00  0.00    +0.000 A 
ATOM     12  C   UNL     1       5.805  -1.673   2.527  0.00  0.00    +0.005 A 
ATOM     13  C   UNL     1       6.285  -0.538   1.901  0.00  0.00    -0.026 A 
ATOM     14  C   UNL     1       6.757   0.520   2.655  0.00  0.00    +0.005 A 
ATOM     15  C   UNL     1       6.740   0.447   4.035  0.00  0.00    +0.000 A 
ENDBRANCH   1  13
BRANCH   3  16
ATOM     16  C   UNL     1       4.067   1.442  -2.092  0.00  0.00    +0.436 C 
ATOM     17  F   UNL     1       4.104   2.648  -1.385  0.00  0.00    -0.166 F 
ATOM     18  F   UNL     1       4.232   1.697  -3.458  0.00  0.00    -0.166 F 
ATOM     19  F   UNL     1       2.834   0.815  -1.880  0.00  0.00    -0.166 F 
ENDBRANCH   3  16
BRANCH   3  20
ATOM     20  O   UNL     1       5.081  -0.749  -2.232  0.00  0.00    -0.364 OA
ATOM     21  H   UNL     1       5.134  -0.720  -3.197  0.00  0.00    +0.212 HD
ENDBRANCH   3  20
BRANCH   2  22
ATOM     22  C   UNL     1       3.820  -0.357   0.266  0.00  0.00    +0.173 C 
ATOM     23  O   UNL     1       3.623  -1.479  -0.151  0.00  0.00    -0.292 OA
BRANCH  22  24
ATOM     24  C   UNL     1       2.813   0.299   1.114  0.00  0.00    +0.018 A 
ATOM     25  C   UNL     1       1.571  -0.307   1.328  0.00  0.00    +0.011 A 
ATOM     26  C   UNL     1       0.632   0.315   2.124  0.00  0.00    +0.001 A 
ATOM     27  C   UNL     1       0.915   1.536   2.710  0.00  0.00    +0.000 A 
ATOM     28  C   UNL     1       2.142   2.143   2.503  0.00  0.00    +0.001 A 
ATOM     29  C   UNL     1       3.092   1.533   1.710  0.00  0.00    +0.011 A 
ENDBRANCH  22  24
ENDBRANCH   2  22
TORSDOF 5
