REMARK  Name = ZINC38655482
REMARK  10 active torsions:
REMARK  status: ('A' for Active; 'I' for Inactive)
REMARK    1  A    between atoms: C_1  and  C_2
REMARK    2  A    between atoms: C_2  and  C_3
REMARK    3  A    between atoms: C_4  and  C_22
REMARK    4  A    between atoms: C_10  and  O_20
REMARK    5  A    between atoms: C_11  and  O_18
REMARK    6  A    between atoms: O_18  and  C_19
REMARK    7  A    between atoms: O_20  and  C_21
REMARK    8  A    between atoms: C_26  and  O_35
REMARK    9  A    between atoms: C_27  and  O_33
REMARK   10  A    between atoms: O_33  and  C_34
REMARK                            x       y       z     vdW  Elec       q    Type
REMARK                         _______ _______ _______ _____ _____    ______ ____
ROOT
ATOM      1  C   UNL     1      -1.357  -0.718   0.003  0.00  0.00    -0.085 C 
ATOM      2  C   UNL     1      -2.001  -0.739  -1.125  0.00  0.00    -0.052 C 
ATOM      3  C   UNL     1      -3.473  -1.028  -1.211  0.00  0.00    +0.022 C 
ATOM      4  C   UNL     1      -3.952  -1.660   0.101  0.00  0.00    -0.033 C 
ATOM      5  C   UNL     1      -5.456  -1.729   0.091  0.00  0.00    -0.054 A 
ATOM      6  C   UNL     1      -6.087  -2.159  -1.069  0.00  0.00    +0.051 A 
ATOM      7  C   UNL     1      -7.466  -2.240  -1.127  0.00  0.00    +0.162 A 
ATOM      8  C   UNL     1      -8.227  -1.888  -0.016  0.00  0.00    +0.162 A 
ATOM      9  C   UNL     1      -7.595  -1.460   1.138  0.00  0.00    +0.053 A 
ATOM     10  C   UNL     1      -6.212  -1.381   1.190  0.00  0.00    -0.044 A 
ATOM     11  C   UNL     1      -5.563  -0.906   2.466  0.00  0.00    +0.017 C 
ATOM     12  C   UNL     1      -4.088  -1.306   2.468  0.00  0.00    -0.073 C 
ATOM     13  N   UNL     1      -3.471  -0.839   1.218  0.00  0.00    +0.387 N 
ATOM     14  C   UNL     1      -2.011  -0.992   1.326  0.00  0.00    -0.047 C 
ATOM     15  H   UNL     1      -3.714   0.128   1.058  0.00  0.00    -0.080 HD
ENDROOT
BRANCH   2  16
ATOM     16  C   UNL     1      -1.242  -0.461  -2.397  0.00  0.00    +0.111 C 
ATOM     17  C   UNL     1      -1.819   0.761  -3.064  0.00  0.00    -0.019 A 
ATOM     18  C   UNL     1      -2.154   1.848  -2.269  0.00  0.00    +0.055 A 
ATOM     19  C   UNL     1      -2.683   2.993  -2.836  0.00  0.00    +0.159 A 
ATOM     20  C   UNL     1      -2.880   3.054  -4.213  0.00  0.00    +0.162 A 
ATOM     21  C   UNL     1      -2.545   1.967  -5.001  0.00  0.00    +0.053 A 
ATOM     22  C   UNL     1      -2.018   0.820  -4.426  0.00  0.00    -0.038 A 
ATOM     23  C   UNL     1      -1.680  -0.342  -5.326  0.00  0.00    +0.050 C 
ATOM     24  C   UNL     1      -0.753  -1.315  -4.597  0.00  0.00    +0.086 C 
ATOM     25  N   UNL     1      -1.341  -1.624  -3.284  0.00  0.00    -0.306 NA
ATOM     26  H   UNL     1      -0.899  -2.432  -2.872  0.00  0.00    +0.123 HD
BRANCH  20  27
ATOM     27  O   UNL     1      -3.397   4.176  -4.780  0.00  0.00    -0.491 OA
ATOM     28  C   UNL     1      -3.570   4.165  -6.199  0.00  0.00    +0.277 C 
ENDBRANCH  20  27
BRANCH  19  29
ATOM     29  O   UNL     1      -3.012   4.055  -2.052  0.00  0.00    -0.503 OA
ATOM     30  H   UNL     1      -2.292   4.688  -1.926  0.00  0.00    +0.292 HD
ENDBRANCH  19  29
ENDBRANCH   2  16
BRANCH   1  32
ATOM     31  C   UNL     1       0.326   1.098   0.136  0.00  0.00    +0.008 C 
ATOM     32  C   UNL     1       0.117  -0.410  -0.018  0.00  0.00    +0.025 C 
ENDBRANCH   1  32
BRANCH   8  33
ATOM     33  O   UNL     1      -9.584  -1.964  -0.065  0.00  0.00    -0.491 OA
ATOM     34  C   UNL     1     -10.297  -1.587   1.115  0.00  0.00    +0.277 C 
ENDBRANCH   8  33
BRANCH   7  35
ATOM     35  O   UNL     1      -8.077  -2.660  -2.267  0.00  0.00    -0.491 OA
ATOM     36  C   UNL     1      -7.232  -3.003  -3.368  0.00  0.00    +0.277 C 
ENDBRANCH   7  35
TORSDOF 6
