REMARK  Name = ZINC00342917
REMARK  5 active torsions:
REMARK  status: ('A' for Active; 'I' for Inactive)
REMARK    1  A    between atoms: C_4  and  O_26
REMARK    2  A    between atoms: C_5  and  C_7
REMARK    3  A    between atoms: N_8  and  N_9
REMARK    4  A    between atoms: C_10  and  C_12
REMARK    5  A    between atoms: N_17  and  C_19
REMARK                            x       y       z     vdW  Elec       q    Type
REMARK                         _______ _______ _______ _____ _____    ______ ____
ROOT
ATOM      1  N   UNL     1       2.424  -4.189  -0.019  0.00  0.00    -0.207 N 
ATOM      2  C   UNL     1       3.600  -4.846  -0.041  0.00  0.00    +0.237 C 
ATOM      3  O   UNL     1       4.642  -4.225  -0.039  0.00  0.00    -0.274 OA
ATOM      4  H   UNL     1       1.591  -4.685  -0.019  0.00  0.00    +0.177 HD
ENDROOT
BRANCH   2   5
ATOM      5  C   UNL     1       3.621  -6.353  -0.066  0.00  0.00    +0.103 C 
ATOM      6  C   UNL     1       2.995  -6.893  -1.373  0.00  0.00    +0.110 C 
ATOM      7  C   UNL     1       4.175  -7.073  -2.303  0.00  0.00    +0.221 C 
ATOM      8  O   UNL     1       4.097  -7.209  -3.506  0.00  0.00    -0.275 OA
ATOM      9  N   UNL     1       5.322  -7.059  -1.602  0.00  0.00    -0.271 N 
ATOM     10  C   UNL     1       5.068  -6.884  -0.166  0.00  0.00    +0.127 C 
BRANCH   9  11
ATOM     11  C   UNL     1       6.596  -7.193  -2.169  0.00  0.00    +0.036 A 
ATOM     12  C   UNL     1       6.728  -7.466  -3.524  0.00  0.00    +0.026 A 
ATOM     13  C   UNL     1       7.985  -7.598  -4.080  0.00  0.00    +0.040 A 
ATOM     14  C   UNL     1       9.113  -7.459  -3.288  0.00  0.00    +0.124 A 
ATOM     15  C   UNL     1       8.982  -7.187  -1.937  0.00  0.00    +0.040 A 
ATOM     16  C   UNL     1       7.727  -7.048  -1.377  0.00  0.00    +0.026 A 
ATOM     17  F   UNL     1      10.341  -7.590  -3.835  0.00  0.00    -0.205 F 
ENDBRANCH   9  11
ENDBRANCH   2   5
BRANCH   1  19
ATOM     18  C   UNL     1       1.272  -2.155   0.026  0.00  0.00    +0.142 C 
ATOM     19  N   UNL     1       2.405  -2.788   0.005  0.00  0.00    -0.188 NA
BRANCH  18  24
ATOM     20  C   UNL     1       0.023   1.383   0.096  0.00  0.00    +0.001 A 
ATOM     21  C   UNL     1       1.212   2.091   0.098  0.00  0.00    +0.004 A 
ATOM     22  C   UNL     1       2.423   1.425   0.076  0.00  0.00    +0.046 A 
ATOM     23  C   UNL     1       2.453   0.040   0.053  0.00  0.00    +0.125 A 
ATOM     24  C   UNL     1       1.252  -0.681   0.052  0.00  0.00    +0.036 A 
ATOM     25  C   UNL     1       0.035   0.004   0.073  0.00  0.00    +0.013 A 
BRANCH  23  26
ATOM     26  O   UNL     1       3.642  -0.616   0.031  0.00  0.00    -0.506 OA
ATOM     27  H   UNL     1       3.995  -0.821   0.908  0.00  0.00    +0.292 HD
ENDBRANCH  23  26
ENDBRANCH  18  24
ENDBRANCH   1  19
TORSDOF 5
