REMARK  Name = ZINC08431880
REMARK  11 active torsions:
REMARK  status: ('A' for Active; 'I' for Inactive)
REMARK    1  A    between atoms: C_1  and  C_2
REMARK    2  A    between atoms: C_5  and  C_36
REMARK    3  A    between atoms: C_6  and  O_8
REMARK    4  A    between atoms: O_8  and  C_9
REMARK    5  A    between atoms: C_9  and  C_10
REMARK    6  A    between atoms: C_10  and  C_12
REMARK    7  A    between atoms: C_10  and  O_35
REMARK    8  A    between atoms: C_12  and  N_81
REMARK    9  A    between atoms: C_19  and  C_29
REMARK   10  A    between atoms: C_36  and  C_37
REMARK   11  A    between atoms: C_36  and  C_38
REMARK                            x       y       z     vdW  Elec       q    Type
REMARK                         _______ _______ _______ _____ _____    ______ ____
ROOT
ATOM      1  C   UNL     1      -4.007   3.852   6.707  0.00  0.00    -0.056 C 
ATOM      2  C   UNL     1      -2.627   3.405   6.209  0.00  0.00    +0.103 C 
ATOM      3  N   UNL     1      -2.667   3.353   4.739  0.00  0.00    -0.347 N 
ATOM      4  C   UNL     1      -1.831   2.743   3.834  0.00  0.00    +0.049 A 
ATOM      5  C   UNL     1      -0.683   1.975   4.011  0.00  0.00    +0.027 A 
ATOM      6  C   UNL     1      -0.051   1.508   2.873  0.00  0.00    +0.006 A 
ATOM      7  C   UNL     1      -0.520   1.791   1.601  0.00  0.00    -0.044 A 
ATOM      8  C   UNL     1      -1.647   2.544   1.390  0.00  0.00    +0.014 A 
ATOM      9  C   UNL     1      -2.314   3.026   2.521  0.00  0.00    +0.003 A 
ATOM     10  C   UNL     1      -3.496   3.827   2.696  0.00  0.00    -0.020 A 
ATOM     11  C   UNL     1      -3.676   3.957   4.026  0.00  0.00    +0.009 A 
ATOM     12  C   UNL     1      -4.839   4.731   4.605  0.00  0.00    -0.020 C 
ATOM     13  C   UNL     1      -5.015   6.002   3.789  0.00  0.00    -0.009 C 
ATOM     14  C   UNL     1      -4.814   5.874   2.299  0.00  0.00    +0.003 C 
ATOM     15  C   UNL     1      -4.469   4.492   1.763  0.00  0.00    +0.037 C 
ATOM     16  N   UNL     1      -4.446   5.072   5.996  0.00  0.00    +0.388 N 
ATOM     17  H   UNL     1      -3.667   5.741   5.969  0.00  0.00    -0.081 HD
ENDROOT
BRANCH   7  18
ATOM     18  C   UNL     1       0.229   1.250   0.410  0.00  0.00    +0.019 C 
ATOM     19  C   UNL     1       1.659   1.794   0.417  0.00  0.00    +0.008 C 
ATOM     20  C   UNL     1       2.419   1.245  -0.792  0.00  0.00    +0.001 C 
ATOM     21  C   UNL     1       2.454  -0.283  -0.721  0.00  0.00    +0.000 C 
ATOM     22  C   UNL     1       1.024  -0.827  -0.728  0.00  0.00    +0.001 C 
ATOM     23  C   UNL     1       0.264  -0.278   0.481  0.00  0.00    +0.008 C 
ENDBRANCH   7  18
BRANCH  16  24
ATOM     24  C   UNL     1      -5.585   5.689   6.707  0.00  0.00    -0.043 C 
BRANCH  24  25
ATOM     25  C   UNL     1      -6.745   4.698   6.822  0.00  0.00    +0.135 C 
BRANCH  25  26
ATOM     26  O   UNL     1      -6.366   3.619   7.678  0.00  0.00    -0.390 OA
ATOM     27  H   UNL     1      -6.134   3.892   8.576  0.00  0.00    +0.210 HD
ENDBRANCH  25  26
BRANCH  25  28
ATOM     28  C   UNL     1      -7.967   5.409   7.408  0.00  0.00    +0.258 C 
BRANCH  28  29
ATOM     29  O   UNL     1      -9.083   4.516   7.407  0.00  0.00    -0.489 OA
BRANCH  29  35
ATOM     30  C   UNL     1     -11.608   8.195   9.385  0.00  0.00    +0.044 C 
ATOM     31  C   UNL     1     -11.525   6.781   8.871  0.00  0.00    -0.047 A 
ATOM     32  C   UNL     1     -12.644   5.968   8.900  0.00  0.00    +0.004 A 
ATOM     33  C   UNL     1     -12.571   4.671   8.429  0.00  0.00    +0.008 A 
ATOM     34  C   UNL     1     -11.380   4.182   7.928  0.00  0.00    -0.003 A 
ATOM     35  C   UNL     1     -10.256   4.995   7.899  0.00  0.00    +0.124 A 
ATOM     36  C   UNL     1     -10.330   6.295   8.378  0.00  0.00    +0.049 A 
BRANCH  34  37
ATOM     37  C   UNL     1     -11.301   2.767   7.415  0.00  0.00    +0.016 C 
ATOM     38  C   UNL     1     -11.654   1.795   8.542  0.00  0.00    +0.012 C 
ATOM     39  C   UNL     1     -12.288   2.589   6.259  0.00  0.00    +0.012 C 
ENDBRANCH  34  37
ENDBRANCH  29  35
ENDBRANCH  28  29
ENDBRANCH  25  28
ENDBRANCH  24  25
ENDBRANCH  16  24
TORSDOF 8
