REMARK  Name = ZINC06732823
REMARK  14 active torsions:
REMARK  status: ('A' for Active; 'I' for Inactive)
REMARK    1  A    between atoms: C_1  and  C_2
REMARK    2  A    between atoms: C_2  and  O_3
REMARK    3  A    between atoms: O_3  and  C_4
REMARK    4  A    between atoms: C_4  and  C_6
REMARK    5  A    between atoms: C_7  and  C_31
REMARK    6  A    between atoms: N_8  and  C_30
REMARK    7  A    between atoms: C_12  and  O_15
REMARK    8  A    between atoms: O_15  and  C_16
REMARK    9  A    between atoms: C_16  and  C_17
REMARK   10  A    between atoms: C_17  and  C_19
REMARK   11  A    between atoms: C_17  and  O_29
REMARK   12  A    between atoms: C_19  and  N_62
REMARK   13  A    between atoms: C_20  and  N_62
REMARK   14  A    between atoms: C_26  and  C_28
REMARK                            x       y       z     vdW  Elec       q    Type
REMARK                         _______ _______ _______ _____ _____    ______ ____
ROOT
ATOM      1  C   UNL     1      -0.729   1.151   8.675  0.00  0.00    +0.087 A 
ATOM      2  C   UNL     1       0.229   0.546   9.436  0.00  0.00    +0.030 A 
ATOM      3  N   UNL     1       1.190   0.027   8.637  0.00  0.00    -0.346 N 
ATOM      4  C   UNL     1       0.898   0.274   7.309  0.00  0.00    +0.050 A 
ATOM      5  C   UNL     1      -0.312   0.986   7.270  0.00  0.00    +0.018 A 
ATOM      6  C   UNL     1      -0.852   1.380   6.049  0.00  0.00    +0.056 A 
ATOM      7  C   UNL     1      -0.196   1.056   4.875  0.00  0.00    +0.121 A 
ATOM      8  C   UNL     1       1.002   0.350   4.915  0.00  0.00    +0.048 A 
ATOM      9  C   UNL     1       1.546  -0.039   6.120  0.00  0.00    +0.030 A 
ATOM     10  C   UNL     1       2.373  -0.694   9.112  0.00  0.00    +0.149 C 
ATOM     11  C   UNL     1       0.217   0.467  10.941  0.00  0.00    +0.064 C 
ENDROOT
BRANCH   1  12
ATOM     12  C   UNL     1      -1.935   1.832   9.158  0.00  0.00    +0.341 C 
ATOM     13  O   UNL     1      -2.968   1.207   9.307  0.00  0.00    -0.245 OA
BRANCH  12  14
ATOM     14  O   UNL     1      -1.899   3.151   9.438  0.00  0.00    -0.461 OA
BRANCH  14  16
ATOM     15  C   UNL     1      -2.894   5.247  10.174  0.00  0.00    +0.048 C 
ATOM     16  C   UNL     1      -3.129   3.758   9.912  0.00  0.00    +0.229 C 
ENDBRANCH  14  16
ENDBRANCH  12  14
ENDBRANCH   1  12
BRANCH   7  17
ATOM     17  O   UNL     1      -0.721   1.434   3.679  0.00  0.00    -0.489 OA
BRANCH  17  18
ATOM     18  C   UNL     1       0.011   1.072   2.506  0.00  0.00    +0.258 C 
BRANCH  18  19
ATOM     19  C   UNL     1      -0.729   1.579   1.267  0.00  0.00    +0.135 C 
BRANCH  19  20
ATOM     20  O   UNL     1      -0.748   3.008   1.275  0.00  0.00    -0.390 OA
ATOM     21  H   UNL     1       0.130   3.413   1.268  0.00  0.00    +0.210 HD
ENDBRANCH  19  20
BRANCH  19  22
ATOM     22  C   UNL     1      -0.013   1.086   0.008  0.00  0.00    -0.047 C 
BRANCH  22  23
ATOM     23  N   UNL     1      -0.732   1.579  -1.182  0.00  0.00    +0.383 N 
ATOM     24  H   UNL     1      -0.746   2.605  -1.168  0.00  0.00    -0.085 HD
ATOM     25  H   UNL     1      -1.695   1.223  -1.167  0.00  0.00    -0.085 HD
BRANCH  23  26
ATOM     26  C   UNL     1      -0.062   1.117  -2.413  0.00  0.00    -0.069 C 
ATOM     27  C   UNL     1      -0.560  -0.285  -2.770  0.00  0.00    -0.016 C 
ATOM     28  C   UNL     1       0.128  -0.759  -4.051  0.00  0.00    -0.002 C 
ATOM     29  C   UNL     1      -0.200   0.205  -5.193  0.00  0.00    +0.000 C 
ATOM     30  C   UNL     1       0.297   1.607  -4.836  0.00  0.00    +0.002 C 
ATOM     31  C   UNL     1      -0.391   2.081  -3.554  0.00  0.00    -0.028 C 
ATOM     32  C   UNL     1       0.106   3.483  -3.197  0.00  0.00    +0.006 C 
ENDBRANCH  23  26
ENDBRANCH  22  23
ENDBRANCH  19  22
ENDBRANCH  18  19
ENDBRANCH  17  18
ENDBRANCH   7  17
TORSDOF 10
