REMARK  Name = ZINC02201210
REMARK  6 active torsions:
REMARK  status: ('A' for Active; 'I' for Inactive)
REMARK    1  A    between atoms: C_1  and  O_2
REMARK    2  A    between atoms: O_2  and  C_3
REMARK    3  A    between atoms: C_8  and  O_9
REMARK    4  A    between atoms: O_9  and  C_10
REMARK    5  A    between atoms: C_14  and  N_16
REMARK    6  A    between atoms: C_19  and  C_22
REMARK                            x       y       z     vdW  Elec       q    Type
REMARK                         _______ _______ _______ _____ _____    ______ ____
ROOT
ATOM      1  N   UNL     1       0.493  10.406   0.053  0.00  0.00    -0.285 N 
ATOM      2  C   UNL     1      -0.521   9.462   0.059  0.00  0.00    +0.162 A 
ATOM      3  N   UNL     1      -0.435   8.145   0.057  0.00  0.00    -0.225 NA
ATOM      4  C   UNL     1      -1.527   7.383   0.058  0.00  0.00    +0.087 A 
ATOM      5  C   UNL     1      -2.757   7.980   0.074  0.00  0.00    +0.077 A 
ATOM      6  S   UNL     1      -2.291   9.706   0.079  0.00  0.00    -0.060 S 
ATOM      7  H   UNL     1       1.420  10.122   0.042  0.00  0.00    +0.152 HD
ENDROOT
BRANCH   4   8
ATOM      8  C   UNL     1      -1.411   5.907   0.049  0.00  0.00    +0.086 A 
ATOM      9  C   UNL     1      -0.171   5.297   0.033  0.00  0.00    +0.029 A 
ATOM     10  C   UNL     1      -0.107   3.887   0.024  0.00  0.00    +0.026 A 
ATOM     11  C   UNL     1       1.186   3.200   0.008  0.00  0.00    -0.007 A 
ATOM     12  C   UNL     1       2.391   3.908  -0.000  0.00  0.00    +0.009 A 
ATOM     13  C   UNL     1       3.573   3.227  -0.016  0.00  0.00    +0.001 A 
ATOM     14  C   UNL     1       3.596   1.836  -0.023  0.00  0.00    +0.001 A 
ATOM     15  C   UNL     1       2.439   1.116  -0.016  0.00  0.00    +0.008 A 
ATOM     16  C   UNL     1       1.204   1.785   0.000  0.00  0.00    -0.017 A 
ATOM     17  C   UNL     1      -0.013   1.076   0.008  0.00  0.00    +0.012 A 
ATOM     18  C   UNL     1      -1.202   1.726   0.017  0.00  0.00    +0.047 A 
ATOM     19  C   UNL     1      -1.280   3.124   0.032  0.00  0.00    +0.140 A 
ATOM     20  O   UNL     1      -2.490   3.725   0.048  0.00  0.00    -0.422 OA
ATOM     21  C   UNL     1      -2.608   5.063   0.057  0.00  0.00    +0.347 A 
ATOM     22  O   UNL     1      -3.713   5.575   0.071  0.00  0.00    -0.244 OA
ENDBRANCH   4   8
BRANCH   1  32
ATOM     23  C   UNL     1       3.176  14.296   1.792  0.00  0.00    +0.162 A 
ATOM     24  C   UNL     1       2.578  13.386   2.648  0.00  0.00    +0.050 A 
ATOM     25  C   UNL     1       1.585  12.537   2.183  0.00  0.00    +0.013 A 
ATOM     26  C   UNL     1       1.188  12.594   0.869  0.00  0.00    +0.029 A 
ATOM     27  C   UNL     1       1.780  13.507  -0.011  0.00  0.00    +0.112 A 
ATOM     28  C   UNL     1       2.783  14.364   0.459  0.00  0.00    +0.176 A 
ATOM     29  C   UNL     1       1.157  13.337  -1.333  0.00  0.00    +0.345 C 
ATOM     30  O   UNL     1       1.444  13.978  -2.324  0.00  0.00    -0.245 OA
ATOM     31  O   UNL     1       0.225  12.370  -1.286  0.00  0.00    -0.435 OA
ATOM     32  C   UNL     1       0.165  11.834   0.064  0.00  0.00    +0.298 C 
BRANCH  23  34
ATOM     33  C   UNL     1       4.504  15.002   3.635  0.00  0.00    +0.277 C 
ATOM     34  O   UNL     1       4.149  15.126   2.256  0.00  0.00    -0.491 OA
ENDBRANCH  23  34
BRANCH  28  35
ATOM     35  O   UNL     1       3.368  15.256  -0.380  0.00  0.00    -0.491 OA
ATOM     36  C   UNL     1       4.530  14.818  -1.086  0.00  0.00    +0.277 C 
ENDBRANCH  28  35
ENDBRANCH   1  32
TORSDOF 4
