REMARK  Name = ZINC25011554
REMARK  9 active torsions:
REMARK  status: ('A' for Active; 'I' for Inactive)
REMARK    1  A    between atoms: C_1  and  C_2
REMARK    2  A    between atoms: N_5  and  C_8
REMARK    3  A    between atoms: C_8  and  C_9
REMARK    4  A    between atoms: C_15  and  C_17
REMARK    5  A    between atoms: C_17  and  C_19
REMARK    6  A    between atoms: C_17  and  N_22
REMARK    7  A    between atoms: C_19  and  C_20
REMARK    8  A    between atoms: C_19  and  C_21
REMARK    9  A    between atoms: C_23  and  C_25
REMARK                            x       y       z     vdW  Elec       q    Type
REMARK                         _______ _______ _______ _____ _____    ______ ____
ROOT
ATOM      1  C   UNL     1      -6.423  11.376  -2.078  0.00  0.00    +0.034 A 
ATOM      2  C   UNL     1      -6.980  10.567  -3.012  0.00  0.00    +0.070 A 
ATOM      3  S   UNL     1      -5.859   9.177  -2.959  0.00  0.00    -0.060 S 
ATOM      4  C   UNL     1      -4.792   9.794  -1.735  0.00  0.00    +0.165 A 
ATOM      5  N   UNL     1      -5.337  10.962  -1.455  0.00  0.00    -0.231 NA
ATOM      6  N   UNL     1      -3.658   9.206  -1.187  0.00  0.00    -0.263 N 
ATOM      7  C   UNL     1      -3.261   7.989  -1.607  0.00  0.00    +0.239 C 
ATOM      8  O   UNL     1      -3.837   7.446  -2.527  0.00  0.00    -0.273 OA
ATOM      9  H   UNL     1      -3.086   9.734  -0.410  0.00  0.00    +0.157 HD
ENDROOT
BRANCH   1  10
ATOM     10  C   UNL     1      -7.034  12.715  -1.755  0.00  0.00    -0.022 C 
BRANCH  10  15
ATOM     11  C   UNL     1      -9.816  12.665   3.238  0.00  0.00    +0.007 C 
ATOM     12  C   UNL     1      -8.767  12.902   2.149  0.00  0.00    -0.018 C 
ATOM     13  C   UNL     1      -9.386  13.716   1.010  0.00  0.00    -0.016 C 
ATOM     14  C   UNL     1      -8.351  13.896  -0.103  0.00  0.00    -0.078 C 
ATOM     15  N   UNL     1      -7.923  12.580  -0.594  0.00  0.00    +0.383 N 
ATOM     16  C   UNL     1      -7.282  11.799   0.472  0.00  0.00    -0.078 C 
ATOM     17  C   UNL     1      -8.286  11.555   1.601  0.00  0.00    -0.016 C 
ATOM     18  H   UNL     1      -8.822  12.034  -0.916  0.00  0.00    -0.081 HD
ENDBRANCH  10  15
ENDBRANCH   1  10
BRANCH   7  19
ATOM     19  C   UNL     1      -2.100   7.301  -0.935  0.00  0.00    +0.162 C 
BRANCH  19  20
ATOM     20  N   UNL     1      -2.245   5.850  -1.075  0.00  0.00    -0.303 N 
ATOM     21  C   UNL     1      -1.665   5.025  -0.181  0.00  0.00    +0.220 C 
ATOM     22  O   UNL     1      -1.023   5.485   0.741  0.00  0.00    -0.275 OA
ATOM     23  H   UNL     1      -2.826   5.433  -1.911  0.00  0.00    +0.149 HD
BRANCH  21  24
ATOM     24  C   UNL     1      -1.813   3.533  -0.325  0.00  0.00    +0.048 C 
ATOM     25  C   UNL     1      -1.229   3.090  -1.669  0.00  0.00    +0.019 C 
ATOM     26  C   UNL     1      -1.380   1.574  -1.815  0.00  0.00    -0.009 C 
ATOM     27  C   UNL     1      -0.631   0.875  -0.679  0.00  0.00    +0.007 C 
ATOM     28  C   UNL     1      -1.215   1.318   0.664  0.00  0.00    -0.009 C 
ATOM     29  C   UNL     1      -1.064   2.833   0.811  0.00  0.00    +0.019 C 
ATOM     30  C   UNL     1      -2.697   0.944   0.725  0.00  0.00    +0.007 C 
ATOM     31  C   UNL     1      -3.446   1.644  -0.412  0.00  0.00    -0.009 C 
ATOM     32  C   UNL     1      -2.862   1.201  -1.755  0.00  0.00    +0.007 C 
ATOM     33  C   UNL     1      -3.295   3.159  -0.265  0.00  0.00    +0.019 C 
ENDBRANCH  21  24
ENDBRANCH  19  20
BRANCH  19  34
ATOM     34  C   UNL     1      -0.792   7.749  -1.590  0.00  0.00    +0.012 C 
ATOM     35  C   UNL     1      -0.863   7.495  -3.097  0.00  0.00    +0.009 C 
ATOM     36  C   UNL     1      -0.580   9.243  -1.334  0.00  0.00    +0.009 C 
ENDBRANCH  19  34
ENDBRANCH   7  19
TORSDOF 6
