REMARK  Name = ZINC14023299
REMARK  9 active torsions:
REMARK  status: ('A' for Active; 'I' for Inactive)
REMARK    1  A    between atoms: C_1  and  C_2
REMARK    2  A    between atoms: C_2  and  N_62
REMARK    3  A    between atoms: C_8  and  N_14
REMARK    4  A    between atoms: C_9  and  C_10
REMARK    5  A    between atoms: C_10  and  O_12
REMARK    6  A    between atoms: O_12  and  C_13
REMARK    7  A    between atoms: C_15  and  C_17
REMARK    8  A    between atoms: N_22  and  S_24
REMARK    9  A    between atoms: S_24  and  C_27
REMARK                            x       y       z     vdW  Elec       q    Type
REMARK                         _______ _______ _______ _____ _____    ______ ____
ROOT
ATOM      1  N   UNL     1      -2.631   0.333   5.615  0.00  0.00    -0.279 N 
ATOM      2  C   UNL     1      -2.433  -0.267   4.425  0.00  0.00    +0.222 C 
ATOM      3  O   UNL     1      -3.235  -1.079   4.014  0.00  0.00    -0.275 OA
ATOM      4  H   UNL     1      -1.989   0.982   5.944  0.00  0.00    +0.155 HD
ENDROOT
BRANCH   1  10
ATOM      5  C   UNL     1      -7.401   0.081   9.586  0.00  0.00    -0.074 C 
ATOM      6  C   UNL     1      -5.922   0.476   9.534  0.00  0.00    +0.018 C 
ATOM      7  C   UNL     1      -5.359   0.033   8.189  0.00  0.00    -0.025 A 
ATOM      8  C   UNL     1      -6.017  -0.886   7.447  0.00  0.00    -0.021 A 
ATOM      9  S   UNL     1      -5.024  -1.093   5.999  0.00  0.00    -0.079 S 
ATOM     10  C   UNL     1      -3.751   0.022   6.370  0.00  0.00    +0.086 A 
ATOM     11  C   UNL     1      -4.122   0.526   7.611  0.00  0.00    +0.091 A 
ATOM     12  C   UNL     1      -7.304  -1.561   7.807  0.00  0.00    -0.035 C 
ATOM     13  N   UNL     1      -7.536  -1.353   9.257  0.00  0.00    +0.383 N 
ATOM     14  H   UNL     1      -6.836  -1.885   9.787  0.00  0.00    -0.081 HD
BRANCH  13  16
ATOM     15  C   UNL     1      -9.960  -0.991   8.936  0.00  0.00    -0.017 C 
ATOM     16  C   UNL     1      -8.885  -1.833   9.627  0.00  0.00    -0.082 C 
ENDBRANCH  13  16
BRANCH  11  17
ATOM     17  C   UNL     1      -3.300   1.518   8.307  0.00  0.00    +0.342 C 
ATOM     18  O   UNL     1      -3.493   2.705   8.122  0.00  0.00    -0.245 OA
BRANCH  17  19
ATOM     19  O   UNL     1      -2.329   1.116   9.152  0.00  0.00    -0.464 OA
ATOM     20  C   UNL     1      -1.553   2.154   9.807  0.00  0.00    +0.280 C 
ENDBRANCH  17  19
ENDBRANCH  11  17
ENDBRANCH   1  10
BRANCH   2  21
ATOM     21  C   UNL     1      -1.215   0.070   3.604  0.00  0.00    +0.091 C 
ATOM     22  C   UNL     1       0.048  -0.269   4.400  0.00  0.00    +0.015 C 
ATOM     23  C   UNL     1       1.285   0.104   3.580  0.00  0.00    +0.018 C 
ATOM     24  C   UNL     1       1.298  -0.716   2.281  0.00  0.00    +0.109 C 
ATOM     25  N   UNL     1       0.024  -0.502   1.581  0.00  0.00    -0.176 NA
ATOM     26  C   UNL     1      -1.230  -0.745   2.307  0.00  0.00    +0.122 C 
BRANCH  25  27
ATOM     27  S   UNL     1       0.002  -0.004   0.002  0.00  0.00    +0.061 S 
ATOM     28  O   UNL     1      -1.243  -0.424  -0.539  0.00  0.00    -0.153 OA
ATOM     29  O   UNL     1       1.248  -0.390  -0.563  0.00  0.00    -0.153 OA
BRANCH  27  30
ATOM     30  C   UNL     1      -0.022   1.758   0.012  0.00  0.00    +0.106 A 
ATOM     31  C   UNL     1      -1.229   2.432   0.021  0.00  0.00    +0.031 A 
ATOM     32  C   UNL     1      -1.248   3.814   0.035  0.00  0.00    +0.040 A 
ATOM     33  C   UNL     1      -0.059   4.523   0.026  0.00  0.00    +0.124 A 
ATOM     34  C   UNL     1       1.149   3.846   0.011  0.00  0.00    +0.040 A 
ATOM     35  C   UNL     1       1.166   2.465   0.004  0.00  0.00    +0.031 A 
ATOM     36  F   UNL     1      -0.078   5.874   0.033  0.00  0.00    -0.205 F 
ENDBRANCH  27  30
ENDBRANCH  25  27
ENDBRANCH   2  21
TORSDOF 7
