REMARK  Name = ZINC63204447
REMARK  8 active torsions:
REMARK  status: ('A' for Active; 'I' for Inactive)
REMARK    1  A    between atoms: C_1  and  C_2
REMARK    2  A    between atoms: C_2  and  C_4
REMARK    3  A    between atoms: C_8  and  S_10
REMARK    4  A    between atoms: S_10  and  N_13
REMARK    5  A    between atoms: N_13  and  C_14
REMARK    6  A    between atoms: C_14  and  C_15
REMARK    7  A    between atoms: C_15  and  C_16
REMARK    8  A    between atoms: C_21  and  C_24
REMARK                            x       y       z     vdW  Elec       q    Type
REMARK                         _______ _______ _______ _____ _____    ______ ____
ROOT
ATOM      1  C   UNL     1      -0.186  -5.340  -4.590  0.00  0.00    +0.220 C 
ATOM      2  O   UNL     1       0.629  -4.510  -4.247  0.00  0.00    -0.275 OA
ATOM      3  N   UNL     1      -0.043  -5.979  -5.768  0.00  0.00    -0.265 N 
ATOM      4  C   UNL     1       1.038  -5.688  -6.588  0.00  0.00    +0.165 A 
ATOM      5  N   UNL     1       1.343  -6.197  -7.762  0.00  0.00    -0.225 NA
ATOM      6  C   UNL     1       2.448  -5.761  -8.380  0.00  0.00    +0.079 A 
ATOM      7  C   UNL     1       3.217  -4.793  -7.747  0.00  0.00    +0.076 A 
ATOM      8  S   UNL     1       2.363  -4.525  -6.322  0.00  0.00    -0.060 S 
ATOM      9  H   UNL     1      -0.695  -6.642  -6.042  0.00  0.00    +0.157 HD
ENDROOT
BRANCH   6  10
ATOM     10  C   UNL     1       2.823  -6.274  -9.641  0.00  0.00    +0.007 C 
ATOM     11  C   UNL     1       2.151  -7.235 -10.391  0.00  0.00    +0.005 A 
ATOM     12  C   UNL     1       0.964  -7.965 -10.163  0.00  0.00    +0.010 A 
ATOM     13  C   UNL     1       0.535  -8.859 -11.090  0.00  0.00    +0.001 A 
ATOM     14  C   UNL     1       1.241  -9.080 -12.275  0.00  0.00    +0.002 A 
ATOM     15  C   UNL     1       2.387  -8.415 -12.560  0.00  0.00    +0.026 A 
ATOM     16  C   UNL     1       2.899  -7.465 -11.639  0.00  0.00    +0.043 A 
ATOM     17  N   UNL     1       3.973  -6.701 -11.680  0.00  0.00    -0.380 N 
ATOM     18  C   UNL     1       4.033  -5.887 -10.462  0.00  0.00    +0.151 C 
ATOM     19  H   UNL     1       4.619  -6.678 -12.403  0.00  0.00    +0.160 HD
ENDBRANCH   6  10
BRANCH   1  20
ATOM     20  C   UNL     1      -1.360  -5.655  -3.699  0.00  0.00    +0.113 C 
BRANCH  20  21
ATOM     21  C   UNL     1      -1.286  -4.797  -2.435  0.00  0.00    +0.115 C 
BRANCH  21  22
ATOM     22  N   UNL     1      -2.427  -5.104  -1.569  0.00  0.00    -0.189 NA
ATOM     23  H   UNL     1      -3.186  -5.593  -1.922  0.00  0.00    +0.148 HD
BRANCH  22  24
ATOM     24  S   UNL     1      -2.421  -4.616   0.014  0.00  0.00    +0.058 S 
ATOM     25  O   UNL     1      -1.168  -5.011   0.555  0.00  0.00    -0.153 OA
ATOM     26  O   UNL     1      -3.658  -5.034   0.573  0.00  0.00    -0.153 OA
BRANCH  24  31
ATOM     27  C   UNL     1      -1.262  -0.757   0.010  0.00  0.00    +0.019 A 
ATOM     28  C   UNL     1      -2.485  -0.078   0.019  0.00  0.00    +0.011 A 
ATOM     29  C   UNL     1      -3.665  -0.791   0.026  0.00  0.00    +0.003 A 
ATOM     30  C   UNL     1      -3.642  -2.175   0.024  0.00  0.00    +0.028 A 
ATOM     31  C   UNL     1      -2.437  -2.854   0.015  0.00  0.00    +0.106 A 
ATOM     32  C   UNL     1      -1.248  -2.155   0.002  0.00  0.00    +0.040 A 
BRANCH  27  34
ATOM     33  C   UNL     1      -0.018   1.503   0.010  0.00  0.00    +0.091 C 
ATOM     34  C   UNL     1       0.002  -0.004   0.002  0.00  0.00    +0.160 C 
ATOM     35  O   UNL     1       1.060  -0.596  -0.011  0.00  0.00    -0.292 OA
ENDBRANCH  27  34
ENDBRANCH  24  31
ENDBRANCH  22  24
ENDBRANCH  21  22
ENDBRANCH  20  21
ENDBRANCH   1  20
TORSDOF 7
