REMARK  Name = ZINC12503108
REMARK  11 active torsions:
REMARK  status: ('A' for Active; 'I' for Inactive)
REMARK    1  A    between atoms: C_1  and  C_2
REMARK    2  A    between atoms: C_6  and  O_8
REMARK    3  A    between atoms: O_8  and  C_9
REMARK    4  A    between atoms: C_9  and  C_10
REMARK    5  A    between atoms: N_12  and  C_13
REMARK    6  A    between atoms: C_13  and  N_15
REMARK    7  A    between atoms: N_15  and  N_16
REMARK    8  A    between atoms: C_17  and  C_19
REMARK    9  A    between atoms: C_19  and  C_21
REMARK   10  A    between atoms: C_19  and  O_22
REMARK   11  A    between atoms: O_22  and  C_23
REMARK                            x       y       z     vdW  Elec       q    Type
REMARK                         _______ _______ _______ _____ _____    ______ ____
ROOT
ATOM      1  N   UNL     1      -5.559  -4.307   0.304  0.00  0.00    -0.245 N 
ATOM      2  H   UNL     1      -6.413  -4.741   0.153  0.00  0.00    +0.172 HD
ENDROOT
BRANCH   1   3
ATOM      3  N   UNL     1      -4.383  -5.067   0.335  0.00  0.00    -0.232 N 
ATOM      4  C   UNL     1      -4.439  -6.402   0.155  0.00  0.00    +0.270 C 
ATOM      5  O   UNL     1      -5.507  -6.944  -0.035  0.00  0.00    -0.270 OA
ATOM      6  H   UNL     1      -3.529  -4.633   0.486  0.00  0.00    +0.173 HD
BRANCH   4   7
ATOM      7  C   UNL     1      -3.173  -7.220   0.188  0.00  0.00    +0.257 C 
ATOM      8  C   UNL     1      -2.278  -6.822  -0.988  0.00  0.00    +0.062 C 
BRANCH   7   9
ATOM      9  O   UNL     1      -3.501  -8.607   0.089  0.00  0.00    -0.478 OA
BRANCH   9  10
ATOM     10  C   UNL     1      -2.607  -9.491   0.609  0.00  0.00    +0.140 A 
ATOM     11  C   UNL     1      -1.390  -9.040   1.098  0.00  0.00    +0.048 A 
ATOM     12  C   UNL     1      -0.485  -9.939   1.630  0.00  0.00    +0.023 A 
ATOM     13  C   UNL     1      -0.788 -11.289   1.666  0.00  0.00    +0.043 A 
ATOM     14  C   UNL     1      -1.999 -11.741   1.174  0.00  0.00    +0.043 A 
ATOM     15  C   UNL     1      -2.910 -10.845   0.646  0.00  0.00    +0.084 A 
ATOM     16 CL   UNL     1      -4.430 -11.412   0.029  0.00  0.00    -0.080 Cl
ATOM     17 CL   UNL     1       0.354 -12.415   2.330  0.00  0.00    -0.083 Cl
ENDBRANCH   9  10
ENDBRANCH   7   9
ENDBRANCH   4   7
ENDBRANCH   1   3
BRANCH   1  18
ATOM     18  C   UNL     1      -5.504  -2.972   0.485  0.00  0.00    +0.153 C 
ATOM     19  S   UNL     1      -6.941  -2.043   0.447  0.00  0.00    -0.017 S 
BRANCH  18  22
ATOM     20  C   UNL     1      -4.261  -1.035   0.875  0.00  0.00    +0.256 C 
ATOM     21  O   UNL     1      -5.279  -0.377   0.849  0.00  0.00    -0.272 OA
ATOM     22  N   UNL     1      -4.317  -2.369   0.695  0.00  0.00    -0.264 N 
ATOM     23  H   UNL     1      -3.502  -2.896   0.716  0.00  0.00    +0.157 HD
BRANCH  20  24
ATOM     24  C   UNL     1      -2.934  -0.361   1.111  0.00  0.00    +0.324 C 
BRANCH  24  25
ATOM     25  O   UNL     1      -3.136   1.044   1.272  0.00  0.00    -0.483 OA
BRANCH  25  31
ATOM     26  C   UNL     1      -1.162   5.438   2.062  0.00  0.00    +0.044 C 
ATOM     27  C   UNL     1      -1.030   3.947   1.883  0.00  0.00    -0.047 A 
ATOM     28  C   UNL     1       0.218   3.353   1.938  0.00  0.00    +0.003 A 
ATOM     29  C   UNL     1       0.342   1.986   1.774  0.00  0.00    +0.004 A 
ATOM     30  C   UNL     1      -0.779   1.210   1.554  0.00  0.00    +0.045 A 
ATOM     31  C   UNL     1      -2.031   1.805   1.493  0.00  0.00    +0.121 A 
ATOM     32  C   UNL     1      -2.154   3.176   1.663  0.00  0.00    +0.049 A 
ENDBRANCH  25  31
ENDBRANCH  24  25
ENDBRANCH  20  24
ENDBRANCH  18  22
ENDBRANCH   1  18
TORSDOF 9
