REMARK  Name = ZINC59115201
REMARK  12 active torsions:
REMARK  status: ('A' for Active; 'I' for Inactive)
REMARK    1  A    between atoms: C_1  and  C_2
REMARK    2  A    between atoms: C_2  and  C_22
REMARK    3  A    between atoms: C_4  and  N_11
REMARK    4  A    between atoms: C_7  and  C_9
REMARK    5  A    between atoms: C_7  and  C_10
REMARK    6  A    between atoms: N_11  and  C_12
REMARK    7  A    between atoms: C_12  and  N_14
REMARK    8  A    between atoms: N_14  and  C_15
REMARK    9  A    between atoms: C_22  and  N_23
REMARK   10  A    between atoms: N_23  and  C_24
REMARK   11  A    between atoms: C_24  and  N_26
REMARK   12  A    between atoms: N_26  and  C_27
REMARK                            x       y       z     vdW  Elec       q    Type
REMARK                         _______ _______ _______ _____ _____    ______ ____
ROOT
ATOM      1  C   UNL     1      -0.011   2.262  -0.104  0.00  0.00    +0.013 C 
ATOM      2  C   UNL     1      -0.226   0.748  -0.159  0.00  0.00    -0.014 C 
ATOM      3  C   UNL     1       0.145   0.194  -1.526  0.00  0.00    +0.030 C 
ATOM      4  C   UNL     1       1.642   0.061  -1.739  0.00  0.00    +0.073 C 
ATOM      5  C   UNL     1       2.305  -0.723  -0.620  0.00  0.00    +0.028 C 
ATOM      6  C   UNL     1       1.974  -0.204   0.769  0.00  0.00    -0.033 C 
ATOM      7  C   UNL     1       0.494   0.048   0.978  0.00  0.00    +0.014 C 
ATOM      8  C   UNL     1       2.405  -1.296   1.780  0.00  0.00    +0.011 C 
ATOM      9  C   UNL     1       2.798   1.046   1.094  0.00  0.00    +0.011 C 
ENDROOT
BRANCH   4  10
ATOM     10  N   UNL     1       2.285   1.351  -1.963  0.00  0.00    -0.323 N 
ATOM     11  H   UNL     1       1.877   2.162  -1.620  0.00  0.00    +0.148 HD
BRANCH  10  12
ATOM     12  C   UNL     1       3.445   1.417  -2.646  0.00  0.00    +0.135 C 
ATOM     13  S   UNL     1       4.164  -0.015  -3.251  0.00  0.00    -0.019 S 
BRANCH  12  14
ATOM     14  N   UNL     1       4.039   2.609  -2.853  0.00  0.00    -0.297 N 
ATOM     15  H   UNL     1       3.599   3.425  -2.569  0.00  0.00    +0.154 HD
BRANCH  14  16
ATOM     16  C   UNL     1       5.290   2.668  -3.478  0.00  0.00    +0.033 A 
ATOM     17  C   UNL     1       5.533   1.917  -4.620  0.00  0.00    +0.026 A 
ATOM     18  C   UNL     1       6.769   1.977  -5.235  0.00  0.00    +0.040 A 
ATOM     19  C   UNL     1       7.764   2.786  -4.713  0.00  0.00    +0.124 A 
ATOM     20  C   UNL     1       7.524   3.535  -3.574  0.00  0.00    +0.040 A 
ATOM     21  C   UNL     1       6.288   3.483  -2.959  0.00  0.00    +0.026 A 
ATOM     22  F   UNL     1       8.972   2.843  -5.316  0.00  0.00    -0.205 F 
ENDBRANCH  14  16
ENDBRANCH  12  14
ENDBRANCH  10  12
ENDBRANCH   4  10
BRANCH   2  23
ATOM     23  C   UNL     1      -1.744   0.506   0.036  0.00  0.00    +0.110 C 
BRANCH  23  24
ATOM     24  N   UNL     1      -2.487   1.177  -1.034  0.00  0.00    -0.326 N 
ATOM     25  H   UNL     1      -2.010   1.674  -1.717  0.00  0.00    +0.148 HD
BRANCH  24  26
ATOM     26  C   UNL     1      -3.832   1.103  -1.069  0.00  0.00    +0.135 C 
ATOM     27  S   UNL     1      -4.673   0.225   0.137  0.00  0.00    -0.019 S 
BRANCH  26  28
ATOM     28  N   UNL     1      -4.515   1.720  -2.053  0.00  0.00    -0.297 N 
ATOM     29  H   UNL     1      -4.038   2.141  -2.785  0.00  0.00    +0.154 HD
BRANCH  28  30
ATOM     30  C   UNL     1      -5.915   1.754  -2.018  0.00  0.00    +0.033 A 
ATOM     31  C   UNL     1      -6.576   1.935  -0.811  0.00  0.00    +0.026 A 
ATOM     32  C   UNL     1      -7.957   1.968  -0.779  0.00  0.00    +0.040 A 
ATOM     33  C   UNL     1      -8.681   1.821  -1.951  0.00  0.00    +0.124 A 
ATOM     34  C   UNL     1      -8.023   1.639  -3.155  0.00  0.00    +0.040 A 
ATOM     35  C   UNL     1      -6.642   1.612  -3.192  0.00  0.00    +0.026 A 
ATOM     36  F   UNL     1     -10.031   1.853  -1.917  0.00  0.00    -0.205 F 
ENDBRANCH  28  30
ENDBRANCH  26  28
ENDBRANCH  24  26
ENDBRANCH  23  24
ENDBRANCH   2  23
TORSDOF 9
