REMARK  Name = ZINC28686375
REMARK  7 active torsions:
REMARK  status: ('A' for Active; 'I' for Inactive)
REMARK    1  A    between atoms: C_2  and  C_3
REMARK    2  A    between atoms: C_3  and  N_4
REMARK    3  A    between atoms: C_5  and  C_29
REMARK    4  A    between atoms: C_8  and  S_9
REMARK    5  A    between atoms: S_9  and  C_10
REMARK    6  A    between atoms: C_10  and  C_11
REMARK    7  A    between atoms: C_16  and  C_19
REMARK                            x       y       z     vdW  Elec       q    Type
REMARK                         _______ _______ _______ _____ _____    ______ ____
ROOT
ATOM      1  C   UNL     1      -4.933  -2.805   1.034  0.00  0.00    +0.229 C 
ATOM      2  O   UNL     1      -4.617  -3.039  -0.114  0.00  0.00    -0.275 OA
ATOM      3  N   UNL     1      -5.777  -3.631   1.683  0.00  0.00    -0.264 N 
ATOM      4  C   UNL     1      -6.286  -4.751   1.037  0.00  0.00    +0.165 A 
ATOM      5  N   UNL     1      -7.114  -5.666   1.500  0.00  0.00    -0.225 NA
ATOM      6  C   UNL     1      -7.506  -6.682   0.745  0.00  0.00    +0.082 A 
ATOM      7  C   UNL     1      -7.025  -6.756  -0.532  0.00  0.00    +0.077 A 
ATOM      8  S   UNL     1      -5.998  -5.296  -0.586  0.00  0.00    -0.060 S 
ATOM      9  H   UNL     1      -6.062  -3.419   2.723  0.00  0.00    +0.157 HD
ENDROOT
BRANCH   6  10
ATOM     10  C   UNL     1      -8.438  -7.710   1.272  0.00  0.00    +0.026 A 
ATOM     11  C   UNL     1      -8.909  -8.790   0.605  0.00  0.00    +0.093 A 
ATOM     12  N   UNL     1      -9.745  -9.506   1.419  0.00  0.00    -0.360 N 
ATOM     13  H   UNL     1     -10.225 -10.422   1.044  0.00  0.00    +0.165 HD
ATOM     14  C   UNL     1      -9.839  -8.900   2.652  0.00  0.00    +0.047 A 
ATOM     15  C   UNL     1      -9.023  -7.755   2.621  0.00  0.00    +0.009 A 
ATOM     16  C   UNL     1      -8.930  -6.935   3.744  0.00  0.00    +0.010 A 
ATOM     17  C   UNL     1      -9.624  -7.254   4.878  0.00  0.00    +0.001 A 
ATOM     18  C   UNL     1     -10.426  -8.386   4.917  0.00  0.00    +0.002 A 
ATOM     19  C   UNL     1     -10.537  -9.207   3.816  0.00  0.00    +0.026 A 
ENDBRANCH   6  10
BRANCH   1  20
ATOM     20  C   UNL     1      -4.380  -1.590   1.734  0.00  0.00    +0.173 C 
BRANCH  20  21
ATOM     21  S   UNL     1      -3.286  -0.690   0.608  0.00  0.00    -0.077 S 
BRANCH  21  26
ATOM     22  N   UNL     1      -1.952   1.661   1.326  0.00  0.00    -0.298 N 
ATOM     23  C   UNL     1      -1.875   2.455   2.447  0.00  0.00    +0.165 A 
ATOM     24  N   UNL     1      -2.636   1.904   3.363  0.00  0.00    -0.128 NA
ATOM     25  N   UNL     1      -3.177   0.834   2.898  0.00  0.00    -0.122 NA
ATOM     26  C   UNL     1      -2.797   0.641   1.655  0.00  0.00    +0.193 A 
BRANCH  23  27
ATOM     27  C   UNL     1      -1.084   3.696   2.592  0.00  0.00    +0.019 A 
ATOM     28  C   UNL     1      -0.028   3.960   1.719  0.00  0.00    +0.011 A 
ATOM     29  C   UNL     1       0.703   5.122   1.857  0.00  0.00    +0.001 A 
ATOM     30  C   UNL     1       0.398   6.019   2.866  0.00  0.00    +0.000 A 
ATOM     31  C   UNL     1      -0.645   5.761   3.738  0.00  0.00    +0.001 A 
ATOM     32  C   UNL     1      -1.387   4.605   3.607  0.00  0.00    +0.011 A 
ENDBRANCH  23  27
BRANCH  22  33
ATOM     33  C   UNL     1      -1.273   1.871   0.045  0.00  0.00    +0.152 C 
BRANCH  33  35
ATOM     34  C   UNL     1       1.149   1.750  -0.239  0.00  0.00    +0.005 C 
ATOM     35  C   UNL     1       0.034   1.121   0.040  0.00  0.00    -0.013 C 
ENDBRANCH  33  35
ENDBRANCH  22  33
ENDBRANCH  21  26
ENDBRANCH  20  21
ENDBRANCH   1  20
TORSDOF 7
