REMARK  Name = ZINC05782634
REMARK  14 active torsions:
REMARK  status: ('A' for Active; 'I' for Inactive)
REMARK    1  A    between atoms: C_1  and  C_2
REMARK    2  A    between atoms: C_2  and  C_3
REMARK    3  A    between atoms: C_3  and  C_4
REMARK    4  A    between atoms: C_4  and  C_5
REMARK    5  A    between atoms: C_5  and  C_6
REMARK    6  A    between atoms: C_6  and  N_58
REMARK    7  A    between atoms: C_7  and  C_8
REMARK    8  A    between atoms: C_7  and  N_58
REMARK    9  A    between atoms: C_8  and  C_9
REMARK   10  A    between atoms: C_9  and  N_10
REMARK   11  A    between atoms: N_10  and  C_11
REMARK   12  A    between atoms: C_14  and  O_27
REMARK   13  A    between atoms: C_20  and  N_24
REMARK   14  A    between atoms: O_27  and  C_28
REMARK                            x       y       z     vdW  Elec       q    Type
REMARK                         _______ _______ _______ _____ _____    ______ ____
ROOT
ATOM      1  C   UNL     1       2.681   1.181   0.462  0.00  0.00    +0.048 A 
ATOM      2  C   UNL     1       1.617   1.884   1.064  0.00  0.00    +0.023 A 
ATOM      3  C   UNL     1       0.529   1.187   1.620  0.00  0.00    +0.057 A 
ATOM      4  C   UNL     1      -0.496   1.881   2.195  0.00  0.00    +0.121 A 
ATOM      5  C   UNL     1      -0.471   3.279   2.247  0.00  0.00    +0.047 A 
ATOM      6  C   UNL     1       0.564   3.981   1.720  0.00  0.00    +0.030 A 
ATOM      7  C   UNL     1       1.641   3.301   1.112  0.00  0.00    +0.049 A 
ATOM      8  C   UNL     1       3.690   3.395   0.012  0.00  0.00    +0.051 A 
ATOM      9  C   UNL     1       3.740   1.934  -0.076  0.00  0.00    +0.050 A 
ATOM     10  C   UNL     1       4.842   1.322  -0.697  0.00  0.00    +0.137 A 
ATOM     11  C   UNL     1       5.840   2.097  -1.202  0.00  0.00    +0.033 A 
ATOM     12  C   UNL     1       5.796   3.487  -1.119  0.00  0.00    +0.004 A 
ATOM     13  C   UNL     1       4.757   4.137  -0.532  0.00  0.00    +0.026 A 
ATOM     14  N   UNL     1       2.655   4.075   0.598  0.00  0.00    -0.354 N 
ATOM     15  H   UNL     1       2.637   5.101   0.651  0.00  0.00    +0.166 HD
ENDROOT
BRANCH  10  16
ATOM     16  N   UNL     1       4.918  -0.153  -0.799  0.00  0.00    +0.057 N 
ATOM     17  O   UNL     1       4.805  -0.840   0.201  0.00  0.00    -0.126 OA
ATOM     18  O   UNL     1       5.093  -0.680  -1.883  0.00  0.00    -0.126 OA
ENDBRANCH  10  16
BRANCH   1  19
ATOM     19  N   UNL     1       2.683  -0.197   0.403  0.00  0.00    -0.343 N 
ATOM     20  H   UNL     1       2.376  -0.597   1.277  0.00  0.00    +0.146 HD
BRANCH  19  21
ATOM     21  C   UNL     1       1.857  -0.677  -0.714  0.00  0.00    +0.100 C 
BRANCH  21  22
ATOM     22  C   UNL     1       1.784  -2.205  -0.674  0.00  0.00    -0.000 C 
BRANCH  22  23
ATOM     23  C   UNL     1       0.924  -2.704  -1.837  0.00  0.00    -0.081 C 
BRANCH  23  24
ATOM     24  N   UNL     1       0.858  -4.177  -1.791  0.00  0.00    +0.379 N 
ATOM     25  H   UNL     1       1.807  -4.561  -1.869  0.00  0.00    -0.086 HD
ATOM     26  H   UNL     1       0.443  -4.471  -0.899  0.00  0.00    -0.086 HD
BRANCH  24  27
ATOM     27  C   UNL     1       0.034  -4.688  -2.903  0.00  0.00    -0.083 C 
BRANCH  27  28
ATOM     28  C   UNL     1      -0.016  -6.215  -2.830  0.00  0.00    -0.019 C 
BRANCH  28  29
ATOM     29  C   UNL     1      -0.869  -6.753  -3.980  0.00  0.00    -0.002 C 
BRANCH  29  30
ATOM     30  C   UNL     1      -0.919  -8.281  -3.907  0.00  0.00    -0.000 C 
BRANCH  30  32
ATOM     31  C   UNL     1      -1.822 -10.347  -4.984  0.00  0.00    +0.004 C 
ATOM     32  C   UNL     1      -1.772  -8.819  -5.057  0.00  0.00    -0.003 C 
ENDBRANCH  30  32
ENDBRANCH  29  30
ENDBRANCH  28  29
ENDBRANCH  27  28
ENDBRANCH  24  27
ENDBRANCH  23  24
ENDBRANCH  22  23
ENDBRANCH  21  22
ENDBRANCH  19  21
ENDBRANCH   1  19
BRANCH   4  33
ATOM     33  O   UNL     1      -1.550   1.206   2.726  0.00  0.00    -0.495 OA
ATOM     34  C   UNL     1      -2.591   1.988   3.313  0.00  0.00    +0.277 C 
ENDBRANCH   4  33
TORSDOF 12
