REMARK  Name = ZINC08671867
REMARK  9 active torsions:
REMARK  status: ('A' for Active; 'I' for Inactive)
REMARK    1  A    between atoms: C_1  and  C_2
REMARK    2  A    between atoms: C_2  and  C_3
REMARK    3  A    between atoms: N_9  and  C_10
REMARK    4  A    between atoms: C_10  and  C_11
REMARK    5  A    between atoms: C_11  and  C_12
REMARK    6  A    between atoms: C_12  and  N_13
REMARK    7  A    between atoms: C_14  and  C_16
REMARK    8  A    between atoms: C_19  and  C_22
REMARK    9  A    between atoms: C_22  and  N_23
REMARK                            x       y       z     vdW  Elec       q    Type
REMARK                         _______ _______ _______ _____ _____    ______ ____
ROOT
ATOM      1  C   UNL     1      -3.310   4.698   6.715  0.00  0.00    +0.075 C 
ATOM      2  C   UNL     1      -4.671   4.013   6.575  0.00  0.00    +0.013 C 
ATOM      3  C   UNL     1      -5.390   4.557   5.339  0.00  0.00    +0.006 C 
ATOM      4  C   UNL     1      -5.592   6.066   5.490  0.00  0.00    +0.009 C 
ATOM      5  C   UNL     1      -4.232   6.751   5.630  0.00  0.00    +0.006 C 
ATOM      6  C   UNL     1      -3.512   6.207   6.866  0.00  0.00    +0.013 C 
ENDROOT
BRANCH   1   8
ATOM      7  N   UNL     1      -2.172   3.153   5.154  0.00  0.00    -0.315 N 
ATOM      8  C   UNL     1      -2.480   4.422   5.489  0.00  0.00    +0.216 C 
ATOM      9  O   UNL     1      -2.088   5.342   4.802  0.00  0.00    -0.276 OA
ATOM     10  H   UNL     1      -2.486   2.418   5.703  0.00  0.00    +0.149 HD
BRANCH   7  11
ATOM     11  C   UNL     1      -1.365   2.885   3.962  0.00  0.00    +0.102 C 
BRANCH  11  12
ATOM     12  C   UNL     1      -1.163   1.376   3.811  0.00  0.00    +0.000 C 
BRANCH  12  13
ATOM     13  C   UNL     1      -0.320   1.096   2.566  0.00  0.00    -0.077 C 
BRANCH  13  19
ATOM     14  C   UNL     1       0.584  -0.628   1.166  0.00  0.00    -0.069 C 
ATOM     15  C   UNL     1       0.716  -2.140   0.972  0.00  0.00    -0.015 C 
ATOM     16  C   UNL     1       1.502  -2.733   2.145  0.00  0.00    -0.003 C 
ATOM     17  C   UNL     1       0.792  -2.376   3.454  0.00  0.00    -0.019 C 
ATOM     18  C   UNL     1       0.657  -0.856   3.557  0.00  0.00    -0.078 C 
ATOM     19  N   UNL     1      -0.126  -0.353   2.421  0.00  0.00    +0.382 N 
ATOM     20  H   UNL     1      -1.025  -0.811   2.405  0.00  0.00    -0.081 HD
BRANCH  14  22
ATOM     21  C   UNL     1       0.583  -0.238  -1.302  0.00  0.00    +0.002 C 
ATOM     22  C   UNL     1      -0.201  -0.031  -0.004  0.00  0.00    -0.019 C 
ENDBRANCH  14  22
ENDBRANCH  13  19
ENDBRANCH  12  13
ENDBRANCH  11  12
ENDBRANCH   7  11
ENDBRANCH   1   8
BRANCH   4  23
ATOM     23  C   UNL     1      -6.312   6.610   4.254  0.00  0.00    +0.133 C 
BRANCH  23  24
ATOM     24  N   UNL     1      -6.612   8.030   4.449  0.00  0.00    -0.260 N 
ATOM     25  C   UNL     1      -7.782   8.388   5.021  0.00  0.00    +0.264 A 
ATOM     26  O   UNL     1      -8.586   7.547   5.374  0.00  0.00    -0.267 OA
ATOM     27  C   UNL     1      -8.059   9.824   5.206  0.00  0.00    +0.063 A 
ATOM     28  C   UNL     1      -9.242  10.273   5.788  0.00  0.00    +0.015 A 
ATOM     29  C   UNL     1      -9.453  11.627   5.940  0.00  0.00    +0.001 A 
ATOM     30  C   UNL     1      -8.497  12.538   5.517  0.00  0.00    +0.002 A 
ATOM     31  C   UNL     1      -7.320  12.106   4.938  0.00  0.00    +0.026 A 
ATOM     32  C   UNL     1      -7.090  10.748   4.778  0.00  0.00    +0.056 A 
ATOM     33  N   UNL     1      -5.921  10.272   4.202  0.00  0.00    -0.307 N 
ATOM     34  H   UNL     1      -5.244  10.899   3.902  0.00  0.00    +0.170 HD
ATOM     35  C   UNL     1      -5.716   8.951   4.061  0.00  0.00    +0.330 A 
ATOM     36  O   UNL     1      -4.676   8.575   3.555  0.00  0.00    -0.246 OA
ENDBRANCH  23  24
ENDBRANCH   4  23
TORSDOF 8
