REMARK  Name = ZINC05499747
REMARK  5 active torsions:
REMARK  status: ('A' for Active; 'I' for Inactive)
REMARK    1  A    between atoms: C_1  and  C_2
REMARK    2  A    between atoms: C_2  and  O_3
REMARK    3  A    between atoms: O_3  and  C_4
REMARK    4  A    between atoms: C_4  and  C_6
REMARK    5  A    between atoms: C_21  and  C_26
REMARK                            x       y       z     vdW  Elec       q    Type
REMARK                         _______ _______ _______ _____ _____    ______ ____
ROOT
ATOM      1  C   UNL     1      -1.168  -0.652  -0.690  0.00  0.00    +0.184 C 
ATOM      2  C   UNL     1       0.002  -0.004   0.002  0.00  0.00    +0.036 C 
ATOM      3  C   UNL     1       1.326  -0.335  -0.720  0.00  0.00    +0.042 C 
ATOM      4  C   UNL     1       2.212   0.846  -0.430  0.00  0.00    -0.043 A 
ATOM      5  C   UNL     1       3.589   0.952  -0.541  0.00  0.00    +0.004 A 
ATOM      6  C   UNL     1       4.159   2.171  -0.199  0.00  0.00    +0.000 A 
ATOM      7  C   UNL     1       3.392   3.234   0.232  0.00  0.00    +0.000 A 
ATOM      8  C   UNL     1       2.011   3.134   0.341  0.00  0.00    +0.004 A 
ATOM      9  C   UNL     1       1.438   1.921  -0.001  0.00  0.00    -0.036 A 
ATOM     10  C   UNL     1      -0.019   1.524   0.010  0.00  0.00    +0.057 C 
ATOM     11  C   UNL     1      -0.685   2.117  -1.198  0.00  0.00    -0.019 A 
ATOM     12  C   UNL     1      -0.560   3.487  -1.406  0.00  0.00    +0.009 A 
ATOM     13  C   UNL     1      -1.143   4.083  -2.506  0.00  0.00    -0.050 A 
ATOM     14  C   UNL     1      -1.842   3.320  -3.423  0.00  0.00    +0.005 A 
ATOM     15  C   UNL     1      -1.953   1.957  -3.236  0.00  0.00    +0.023 A 
ATOM     16  C   UNL     1      -1.365   1.355  -2.128  0.00  0.00    +0.032 A 
ATOM     17  N   UNL     1      -1.486  -0.024  -1.962  0.00  0.00    -0.331 N 
ATOM     18  C   UNL     1      -1.017   5.572  -2.708  0.00  0.00    +0.044 C 
ATOM     19  H   UNL     1      -1.786  -0.571  -2.705  0.00  0.00    +0.147 HD
ENDROOT
BRANCH   1  20
ATOM     20  C   UNL     1      -2.373  -0.565   0.210  0.00  0.00    +0.328 C 
ATOM     21  O   UNL     1      -3.208   0.289   0.022  0.00  0.00    -0.249 OA
BRANCH  20  22
ATOM     22  O   UNL     1      -2.521  -1.437   1.220  0.00  0.00    -0.464 OA
BRANCH  22  24
ATOM     23  C   UNL     1      -3.701  -2.368   3.136  0.00  0.00    +0.048 C 
ATOM     24  C   UNL     1      -3.707  -1.294   2.046  0.00  0.00    +0.229 C 
ENDBRANCH  22  24
ENDBRANCH  20  22
ENDBRANCH   1  20
TORSDOF 3
