REMARK  Name = ZINC02293262
REMARK  6 active torsions:
REMARK  status: ('A' for Active; 'I' for Inactive)
REMARK    1  A    between atoms: C_1  and  C_2
REMARK    2  A    between atoms: N_5  and  C_7
REMARK    3  A    between atoms: C_7  and  C_8
REMARK    4  A    between atoms: C_15  and  N_28
REMARK    5  A    between atoms: C_16  and  C_26
REMARK    6  A    between atoms: C_17  and  C_19
REMARK                            x       y       z     vdW  Elec       q    Type
REMARK                         _______ _______ _______ _____ _____    ______ ____
ROOT
ATOM      1  C   UNL     1      -0.636   6.551  -0.697  0.00  0.00    +0.068 C 
ATOM      2  C   UNL     1       0.328   5.398  -0.585  0.00  0.00    +0.068 A 
ATOM      3  C   UNL     1      -0.003   4.087  -0.269  0.00  0.00    +0.049 A 
ATOM      4  C   UNL     1       1.147   3.348  -0.270  0.00  0.00    +0.225 A 
ATOM      5  N   UNL     1       2.160   4.175  -0.576  0.00  0.00    -0.228 N 
ATOM      6  N   UNL     1       1.625   5.457  -0.771  0.00  0.00    -0.173 NA
ATOM      7  O   UNL     1       1.164   2.019   0.002  0.00  0.00    -0.423 OA
ATOM      8  C   UNL     1      -0.017   1.369   0.010  0.00  0.00    +0.200 C 
ATOM      9  C   UNL     1      -1.217   1.988   0.019  0.00  0.00    +0.098 C 
ATOM     10  C   UNL     1      -1.352   3.491   0.038  0.00  0.00    +0.101 C 
ENDROOT
BRANCH  10  11
ATOM     11  C   UNL     1      -1.813   3.948   1.398  0.00  0.00    -0.034 A 
ATOM     12  C   UNL     1      -1.062   3.647   2.519  0.00  0.00    +0.005 A 
ATOM     13  C   UNL     1      -1.481   4.070   3.766  0.00  0.00    +0.015 A 
ATOM     14  C   UNL     1      -2.659   4.785   3.894  0.00  0.00    +0.018 A 
ATOM     15  C   UNL     1      -3.413   5.081   2.772  0.00  0.00    +0.015 A 
ATOM     16  C   UNL     1      -2.989   4.662   1.525  0.00  0.00    +0.005 A 
ATOM     17 BR   UNL     1      -3.236   5.358   5.601  0.00  0.00    -0.050 Br
ENDBRANCH  10  11
BRANCH   8  18
ATOM     18  N   UNL     1       0.002  -0.004   0.002  0.00  0.00    -0.328 N 
ATOM     19  H   UNL     1       0.849  -0.478  -0.009  0.00  0.00    +0.145 HD
ATOM     20  H   UNL     1      -0.831  -0.500   0.007  0.00  0.00    +0.145 HD
ENDBRANCH   8  18
BRANCH   9  21
ATOM     21  C   UNL     1      -2.406   1.190   0.016  0.00  0.00    +0.101 C 
ATOM     22  N   UNL     1      -3.349   0.556   0.014  0.00  0.00    -0.191 NA
ENDBRANCH   9  21
BRANCH   5  23
ATOM     23  C   UNL     1       3.573   3.803  -0.687  0.00  0.00    +0.182 C 
BRANCH  23  24
ATOM     24  C   UNL     1       3.874   3.390  -2.105  0.00  0.00    -0.026 A 
ATOM     25  C   UNL     1       3.741   2.067  -2.482  0.00  0.00    +0.005 A 
ATOM     26  C   UNL     1       4.013   1.688  -3.784  0.00  0.00    +0.000 A 
ATOM     27  C   UNL     1       4.426   2.632  -4.706  0.00  0.00    +0.000 A 
ATOM     28  C   UNL     1       4.564   3.954  -4.327  0.00  0.00    +0.000 A 
ATOM     29  C   UNL     1       4.288   4.333  -3.026  0.00  0.00    +0.005 A 
ENDBRANCH  23  24
ENDBRANCH   5  23
TORSDOF 5
