REMARK  Name = ZINC31057368
REMARK  8 active torsions:
REMARK  status: ('A' for Active; 'I' for Inactive)
REMARK    1  A    between atoms: C_4  and  S_28
REMARK    2  A    between atoms: C_5  and  N_7
REMARK    3  A    between atoms: C_8  and  C_10
REMARK    4  A    between atoms: N_15  and  C_17
REMARK    5  A    between atoms: C_17  and  C_18
REMARK    6  A    between atoms: C_20  and  C_23
REMARK    7  A    between atoms: S_28  and  C_29
REMARK    8  A    between atoms: C_29  and  C_30
REMARK                            x       y       z     vdW  Elec       q    Type
REMARK                         _______ _______ _______ _____ _____    ______ ____
ROOT
ATOM      1  N   UNL     1      -0.054   5.249   0.031  0.00  0.00    -0.284 N 
ATOM      2  C   UNL     1       1.103   5.933   0.126  0.00  0.00    +0.219 C 
ATOM      3  O   UNL     1       2.161   5.341   0.113  0.00  0.00    -0.275 OA
ATOM      4  H   UNL     1      -1.009   5.790  -0.049  0.00  0.00    +0.155 HD
ENDROOT
BRANCH   2   5
ATOM      5  C   UNL     1       1.082   7.435   0.247  0.00  0.00    +0.059 C 
ATOM      6  C   UNL     1       0.399   8.039  -0.983  0.00  0.00    +0.009 C 
ATOM      7  C   UNL     1       0.436   9.566  -0.880  0.00  0.00    -0.018 C 
ATOM      8  C   UNL     1       1.889  10.029  -0.757  0.00  0.00    -0.078 C 
ATOM      9  N   UNL     1       2.497   9.426   0.435  0.00  0.00    +0.386 N 
ATOM     10  C   UNL     1       2.516   7.961   0.338  0.00  0.00    -0.065 C 
ATOM     11  H   UNL     1       1.876   9.696   1.302  0.00  0.00    -0.081 HD
BRANCH   9  12
ATOM     12  C   UNL     1       3.848   9.956   0.663  0.00  0.00    +0.022 C 
BRANCH  12  13
ATOM     13  C   UNL     1       3.762  11.422   1.001  0.00  0.00    +0.211 A 
ATOM     14  N   UNL     1       3.634  11.938   2.198  0.00  0.00    -0.192 NA
ATOM     15  C   UNL     1       3.603  13.279   2.015  0.00  0.00    +0.209 A 
ATOM     16  N   UNL     1       3.704  13.494   0.726  0.00  0.00    -0.056 NA
ATOM     17  O   UNL     1       3.796  12.439   0.134  0.00  0.00    -0.340 OA
BRANCH  15  18
ATOM     18  C   UNL     1       3.474  14.306   3.069  0.00  0.00    +0.060 A 
ATOM     19  C   UNL     1       3.437  15.669   2.945  0.00  0.00    +0.019 A 
ATOM     20  C   UNL     1       3.305  16.434   4.082  0.00  0.00    +0.008 A 
ATOM     21  C   UNL     1       3.228  15.816   5.290  0.00  0.00    +0.046 A 
ATOM     22  S   UNL     1       3.333  14.092   4.836  0.00  0.00    -0.093 S 
ENDBRANCH  15  18
ENDBRANCH  12  13
ENDBRANCH   9  12
ENDBRANCH   2   5
BRANCH   1  27
ATOM     23  C   UNL     1       1.019   1.781   0.629  0.00  0.00    +0.002 A 
ATOM     24  C   UNL     1      -0.015   1.076   0.042  0.00  0.00    +0.001 A 
ATOM     25  C   UNL     1      -1.063   1.749  -0.557  0.00  0.00    +0.016 A 
ATOM     26  C   UNL     1      -1.085   3.137  -0.559  0.00  0.00    +0.029 A 
ATOM     27  C   UNL     1      -0.042   3.847   0.035  0.00  0.00    +0.047 A 
ATOM     28  C   UNL     1       1.008   3.163   0.628  0.00  0.00    +0.024 A 
BRANCH  26  29
ATOM     29  S   UNL     1      -2.423   3.998  -1.315  0.00  0.00    -0.119 S 
BRANCH  29  30
ATOM     30  C   UNL     1      -3.503   2.678  -1.931  0.00  0.00    +0.109 C 
BRANCH  30  31
ATOM     31  C   UNL     1      -4.703   3.286  -2.610  0.00  0.00    -0.037 A 
ATOM     32  C   UNL     1      -5.846   3.557  -1.881  0.00  0.00    +0.006 A 
ATOM     33  C   UNL     1      -6.945   4.120  -2.502  0.00  0.00    +0.020 A 
ATOM     34  C   UNL     1      -6.905   4.402  -3.856  0.00  0.00    +0.041 A 
ATOM     35  C   UNL     1      -5.763   4.125  -4.586  0.00  0.00    +0.020 A 
ATOM     36  C   UNL     1      -4.663   3.567  -3.963  0.00  0.00    +0.006 A 
ATOM     37 CL   UNL     1      -8.288   5.103  -4.638  0.00  0.00    -0.084 Cl
ENDBRANCH  30  31
ENDBRANCH  29  30
ENDBRANCH  26  29
ENDBRANCH   1  27
TORSDOF 8
