REMARK  Name = ZINC06229270
REMARK  8 active torsions:
REMARK  status: ('A' for Active; 'I' for Inactive)
REMARK    1  A    between atoms: C_1  and  C_2
REMARK    2  A    between atoms: C_6  and  C_39
REMARK    3  A    between atoms: C_7  and  N_8
REMARK    4  A    between atoms: N_8  and  S_9
REMARK    5  A    between atoms: S_9  and  C_12
REMARK    6  A    between atoms: C_25  and  C_28
REMARK    7  A    between atoms: C_32  and  O_34
REMARK    8  A    between atoms: O_34  and  C_35
REMARK                            x       y       z     vdW  Elec       q    Type
REMARK                         _______ _______ _______ _____ _____    ______ ____
ROOT
ATOM      1  C   UNL     1       0.957   8.581   0.061  0.00  0.00    +0.109 A 
ATOM      2  C   UNL     1       1.371   8.270   1.344  0.00  0.00    +0.030 A 
ATOM      3  C   UNL     1       1.813   6.998   1.641  0.00  0.00    +0.025 A 
ATOM      4  C   UNL     1       1.847   6.019   0.655  0.00  0.00    +0.031 A 
ATOM      5  C   UNL     1       1.416   6.337  -0.638  0.00  0.00    -0.018 A 
ATOM      6  C   UNL     1       0.981   7.612  -0.925  0.00  0.00    +0.034 A 
ATOM      7  C   UNL     1       1.448   5.261  -1.652  0.00  0.00    +0.049 C 
ATOM      8  C   UNL     1       1.573   5.553  -3.103  0.00  0.00    -0.023 C 
ATOM      9  C   UNL     1       2.228   4.554  -3.682  0.00  0.00    -0.030 C 
ATOM     10  C   UNL     1       2.627   3.514  -2.634  0.00  0.00    +0.033 C 
ATOM     11  C   UNL     1       2.689   4.367  -1.360  0.00  0.00    +0.029 C 
ATOM     12  C   UNL     1       2.387   3.671  -0.045  0.00  0.00    +0.105 C 
ATOM     13  N   UNL     1       2.334   4.745   0.971  0.00  0.00    -0.336 N 
ATOM     14  H   UNL     1       2.642   4.563   1.873  0.00  0.00    +0.147 HD
ENDROOT
BRANCH  12  15
ATOM     15  C   UNL     1       1.059   2.963  -0.124  0.00  0.00    -0.024 A 
ATOM     16  C   UNL     1      -0.094   3.611   0.281  0.00  0.00    +0.006 A 
ATOM     17  C   UNL     1      -1.314   2.964   0.209  0.00  0.00    +0.004 A 
ATOM     18  C   UNL     1      -1.385   1.671  -0.272  0.00  0.00    +0.045 A 
ATOM     19  C   UNL     1      -0.229   1.017  -0.673  0.00  0.00    +0.121 A 
ATOM     20  C   UNL     1       0.994   1.668  -0.600  0.00  0.00    +0.051 A 
BRANCH  19  21
ATOM     21  O   UNL     1      -0.295  -0.257  -1.141  0.00  0.00    -0.487 OA
BRANCH  21  22
ATOM     22  C   UNL     1      -1.578  -0.887  -1.128  0.00  0.00    +0.193 C 
ATOM     23  C   UNL     1      -1.749  -1.878   0.026  0.00  0.00    +0.114 C 
ATOM     24  S   UNL     1      -2.839  -2.892  -1.011  0.00  0.00    -0.153 S 
ATOM     25  C   UNL     1      -1.693  -2.039  -2.129  0.00  0.00    +0.114 C 
ENDBRANCH  21  22
ENDBRANCH  19  21
ENDBRANCH  12  15
BRANCH   1  26
ATOM     26  S   UNL     1       0.400  10.210  -0.315  0.00  0.00    +0.072 S 
ATOM     27  O   UNL     1       0.894  11.056   0.714  0.00  0.00    -0.150 OA
ATOM     28  O   UNL     1       0.691  10.431  -1.688  0.00  0.00    -0.150 OA
BRANCH  26  29
ATOM     29  N   UNL     1      -1.250  10.207  -0.175  0.00  0.00    -0.216 N 
ATOM     30  H   UNL     1      -1.804  10.311  -0.965  0.00  0.00    +0.174 HD
BRANCH  29  37
ATOM     31  C   UNL     1      -2.429   7.697   0.458  0.00  0.00    +0.046 C 
ATOM     32  C   UNL     1      -2.431   8.848   1.431  0.00  0.00    -0.028 A 
ATOM     33  C   UNL     1      -3.014   8.701   2.675  0.00  0.00    +0.005 A 
ATOM     34  C   UNL     1      -3.022   9.758   3.566  0.00  0.00    +0.001 A 
ATOM     35  C   UNL     1      -2.443  10.964   3.217  0.00  0.00    +0.005 A 
ATOM     36  C   UNL     1      -1.854  11.117   1.977  0.00  0.00    -0.028 A 
ATOM     37  C   UNL     1      -1.844  10.056   1.080  0.00  0.00    +0.054 A 
ATOM     38  C   UNL     1      -1.223  12.432   1.598  0.00  0.00    +0.046 C 
ENDBRANCH  29  37
ENDBRANCH  26  29
ENDBRANCH   1  26
TORSDOF 6
