REMARK  Name = ZINC12902057
REMARK  5 active torsions:
REMARK  status: ('A' for Active; 'I' for Inactive)
REMARK    1  A    between atoms: C_1  and  C_2
REMARK    2  A    between atoms: C_13  and  C_15
REMARK    3  A    between atoms: C_15  and  C_16
REMARK    4  A    between atoms: C_23  and  O_26
REMARK    5  A    between atoms: N_29  and  C_32
REMARK                            x       y       z     vdW  Elec       q    Type
REMARK                         _______ _______ _______ _____ _____    ______ ____
ROOT
ATOM      1  C   UNL     1       5.966  -0.554  -6.348  0.00  0.00    +0.044 C 
ATOM      2  C   UNL     1       4.731  -1.265  -5.859  0.00  0.00    -0.050 A 
ATOM      3  C   UNL     1       3.617  -1.361  -6.673  0.00  0.00    +0.005 A 
ATOM      4  C   UNL     1       2.483  -2.009  -6.231  0.00  0.00    +0.024 A 
ATOM      5  C   UNL     1       2.451  -2.574  -4.958  0.00  0.00    +0.036 A 
ATOM      6  C   UNL     1       3.578  -2.473  -4.148  0.00  0.00    -0.027 A 
ATOM      7  C   UNL     1       4.708  -1.825  -4.594  0.00  0.00    +0.008 A 
ATOM      8  C   UNL     1       3.225  -3.172  -2.865  0.00  0.00    +0.050 C 
ATOM      9  C   UNL     1       4.181  -4.338  -2.581  0.00  0.00    +0.088 C 
ATOM     10  C   UNL     1       5.216  -3.759  -1.577  0.00  0.00    +0.074 C 
ATOM     11  C   UNL     1       4.775  -2.297  -1.351  0.00  0.00    -0.053 C 
ATOM     12  C   UNL     1       4.980  -4.553  -0.312  0.00  0.00    +0.228 C 
ATOM     13  O   UNL     1       5.585  -4.410   0.728  0.00  0.00    -0.275 OA
ATOM     14  N   UNL     1       3.984  -5.440  -0.539  0.00  0.00    -0.210 N 
ATOM     15  C   UNL     1       3.474  -5.406  -1.775  0.00  0.00    +0.229 C 
ATOM     16  O   UNL     1       2.584  -6.119  -2.186  0.00  0.00    -0.275 OA
ATOM     17  C   UNL     1       1.813  -3.652  -3.056  0.00  0.00    +0.211 C 
ATOM     18  O   UNL     1       1.142  -4.265  -2.254  0.00  0.00    -0.277 OA
ATOM     19  N   UNL     1       1.438  -3.268  -4.292  0.00  0.00    -0.286 N 
ATOM     20  H   UNL     1       0.567  -3.453  -4.675  0.00  0.00    +0.155 HD
ATOM     21  N   UNL     1       3.355  -2.299  -1.706  0.00  0.00    +0.394 N 
ATOM     22  H   UNL     1       2.794  -2.658  -0.925  0.00  0.00    -0.083 HD
ATOM     23  H   UNL     1       3.046  -1.348  -1.941  0.00  0.00    -0.083 HD
ENDROOT
BRANCH  14  24
ATOM     24  C   UNL     1       3.529  -6.330   0.444  0.00  0.00    +0.044 A 
ATOM     25  C   UNL     1       2.867  -5.848   1.565  0.00  0.00    +0.024 A 
ATOM     26  C   UNL     1       2.414  -6.728   2.529  0.00  0.00    +0.002 A 
ATOM     27  C   UNL     1       2.630  -8.086   2.384  0.00  0.00    +0.000 A 
ATOM     28  C   UNL     1       3.295  -8.568   1.272  0.00  0.00    +0.002 A 
ATOM     29  C   UNL     1       3.744  -7.694   0.301  0.00  0.00    +0.024 A 
ENDBRANCH  14  24
BRANCH  11  30
ATOM     30  C   UNL     1       4.986  -1.897   0.110  0.00  0.00    +0.022 C 
BRANCH  30  31
ATOM     31  C   UNL     1       4.666  -0.434   0.281  0.00  0.00    -0.024 A 
ATOM     32  C   UNL     1       5.541   0.584   0.247  0.00  0.00    +0.087 A 
ATOM     33  N   UNL     1       4.886   1.769   0.441  0.00  0.00    -0.360 N 
ATOM     34  H   UNL     1       5.307   2.642   0.458  0.00  0.00    +0.165 HD
ATOM     35  C   UNL     1       3.537   1.536   0.610  0.00  0.00    +0.047 A 
ATOM     36  C   UNL     1       3.342   0.146   0.517  0.00  0.00    +0.006 A 
ATOM     37  C   UNL     1       2.059  -0.389   0.650  0.00  0.00    +0.055 A 
ATOM     38  C   UNL     1       0.988   0.453   0.873  0.00  0.00    +0.118 A 
ATOM     39  C   UNL     1       1.185   1.829   0.965  0.00  0.00    +0.047 A 
ATOM     40  C   UNL     1       2.445   2.368   0.835  0.00  0.00    +0.030 A 
BRANCH  38  41
ATOM     41  O   UNL     1      -0.263  -0.062   1.003  0.00  0.00    -0.507 OA
ATOM     42  H   UNL     1      -0.747  -0.136   0.169  0.00  0.00    +0.292 HD
ENDBRANCH  38  41
ENDBRANCH  30  31
ENDBRANCH  11  30
TORSDOF 4
