REMARK  Name = ZINC13494576
REMARK  19 active torsions:
REMARK  status: ('A' for Active; 'I' for Inactive)
REMARK    1  A    between atoms: C_1  and  C_2
REMARK    2  A    between atoms: C_2  and  C_3
REMARK    3  A    between atoms: C_3  and  C_5
REMARK    4  A    between atoms: C_3  and  N_79
REMARK    5  A    between atoms: N_9  and  C_10
REMARK    6  A    between atoms: C_10  and  C_11
REMARK    7  A    between atoms: C_10  and  C_12
REMARK    8  A    between atoms: C_10  and  C_13
REMARK    9  A    between atoms: C_14  and  C_15
REMARK   10  A    between atoms: C_14  and  N_79
REMARK   11  A    between atoms: C_15  and  C_16
REMARK   12  A    between atoms: C_19  and  O_24
REMARK   13  A    between atoms: C_20  and  O_22
REMARK   14  A    between atoms: O_22  and  C_23
REMARK   15  A    between atoms: O_24  and  C_25
REMARK   16  A    between atoms: C_26  and  C_27
REMARK   17  A    between atoms: C_26  and  N_79
REMARK   18  A    between atoms: C_31  and  C_40
REMARK   19  A    between atoms: C_33  and  C_39
REMARK                            x       y       z     vdW  Elec       q    Type
REMARK                         _______ _______ _______ _____ _____    ______ ____
ROOT
ATOM      1  N   UNL     1      -0.149  -0.158  -0.058  0.00  0.00    +0.389 N 
ATOM      2  H   UNL     1       0.255  -0.246  -0.997  0.00  0.00    -0.080 HD
ENDROOT
BRANCH   1   3
ATOM      3  C   UNL     1       0.592  -1.039   0.869  0.00  0.00    +0.003 C 
BRANCH   3   4
ATOM      4  C   UNL     1       1.998  -1.203   0.352  0.00  0.00    +0.139 A 
ATOM      5  N   UNL     1       2.717  -0.296  -0.261  0.00  0.00    -0.115 NA
ATOM      6  N   UNL     1       3.861  -0.818  -0.544  0.00  0.00    -0.023 NA
ATOM      7  N   UNL     1       3.889  -2.036  -0.128  0.00  0.00    -0.043 NA
ATOM      8  N   UNL     1       2.761  -2.309   0.436  0.00  0.00    -0.226 N 
BRANCH   8   9
ATOM      9  C   UNL     1       2.380  -3.584   1.048  0.00  0.00    +0.059 C 
ATOM     10  C   UNL     1       1.262  -4.230   0.228  0.00  0.00    +0.036 C 
ATOM     11  C   UNL     1       3.593  -4.517   1.079  0.00  0.00    +0.036 C 
ATOM     12  C   UNL     1       1.889  -3.338   2.476  0.00  0.00    +0.036 C 
ENDBRANCH   8   9
ENDBRANCH   3   4
BRANCH   3  14
ATOM     13  C   UNL     1      -0.782  -0.397   2.855  0.00  0.00    +0.002 C 
ATOM     14  C   UNL     1       0.632  -0.426   2.270  0.00  0.00    -0.011 C 
ENDBRANCH   3  14
ENDBRANCH   1   3
BRANCH   1  15
ATOM     15  C   UNL     1      -0.036   1.248   0.384  0.00  0.00    -0.073 C 
BRANCH  15  16
ATOM     16  C   UNL     1       1.378   1.747   0.078  0.00  0.00    +0.017 C 
BRANCH  16  17
ATOM     17  C   UNL     1       1.463   3.224   0.368  0.00  0.00    -0.045 A 
ATOM     18  C   UNL     1       1.180   4.139  -0.628  0.00  0.00    +0.007 A 
ATOM     19  C   UNL     1       1.251   5.495  -0.366  0.00  0.00    +0.049 A 
ATOM     20  C   UNL     1       1.619   5.938   0.894  0.00  0.00    +0.161 A 
ATOM     21  C   UNL     1       1.910   5.016   1.895  0.00  0.00    +0.162 A 
ATOM     22  C   UNL     1       1.831   3.659   1.627  0.00  0.00    +0.053 A 
BRANCH  21  23
ATOM     23  O   UNL     1       2.271   5.447   3.134  0.00  0.00    -0.491 OA
ATOM     24  C   UNL     1       2.555   4.444   4.111  0.00  0.00    +0.277 C 
ENDBRANCH  21  23
BRANCH  20  25
ATOM     25  O   UNL     1       1.695   7.271   1.152  0.00  0.00    -0.491 OA
ATOM     26  C   UNL     1       1.382   8.159   0.077  0.00  0.00    +0.277 C 
ENDBRANCH  20  25
ENDBRANCH  16  17
ENDBRANCH  15  16
ENDBRANCH   1  15
BRANCH   1  27
ATOM     27  C   UNL     1      -1.571  -0.558  -0.108  0.00  0.00    -0.037 C 
BRANCH  27  28
ATOM     28  C   UNL     1      -1.687  -1.833  -0.902  0.00  0.00    +0.001 A 
ATOM     29  C   UNL     1      -1.757  -3.026  -0.261  0.00  0.00    +0.017 A 
ATOM     30  C   UNL     1      -1.874  -4.245  -1.062  0.00  0.00    -0.001 A 
ATOM     31  C   UNL     1      -1.956  -5.504  -0.456  0.00  0.00    +0.013 A 
ATOM     32  C   UNL     1      -2.058  -6.623  -1.232  0.00  0.00    -0.050 A 
ATOM     33  C   UNL     1      -2.083  -6.524  -2.617  0.00  0.00    +0.008 A 
ATOM     34  C   UNL     1      -2.003  -5.294  -3.235  0.00  0.00    -0.026 A 
ATOM     35  C   UNL     1      -1.898  -4.140  -2.465  0.00  0.00    +0.052 A 
ATOM     36  N   UNL     1      -1.817  -2.898  -3.057  0.00  0.00    -0.322 N 
ATOM     37  H   UNL     1      -1.834  -2.827  -4.024  0.00  0.00    +0.169 HD
ATOM     38  C   UNL     1      -1.716  -1.782  -2.313  0.00  0.00    +0.251 A 
ATOM     39  O   UNL     1      -1.647  -0.701  -2.870  0.00  0.00    -0.268 OA
ATOM     40  C   UNL     1      -2.031  -5.201  -4.739  0.00  0.00    +0.046 C 
ATOM     41  C   UNL     1      -2.146  -7.979  -0.580  0.00  0.00    +0.044 C 
ENDBRANCH  27  28
ENDBRANCH   1  27
TORSDOF 11
