REMARK  Name = ZINC36504525
REMARK  7 active torsions:
REMARK  status: ('A' for Active; 'I' for Inactive)
REMARK    1  A    between atoms: C_8  and  C_15
REMARK    2  A    between atoms: C_15  and  C_17
REMARK    3  A    between atoms: C_15  and  N_26
REMARK    4  A    between atoms: N_19  and  C_20
REMARK    5  A    between atoms: N_26  and  C_27
REMARK    6  A    between atoms: C_27  and  C_28
REMARK    7  A    between atoms: C_33  and  C_35
REMARK                            x       y       z     vdW  Elec       q    Type
REMARK                         _______ _______ _______ _____ _____    ______ ____
ROOT
ATOM      1  C   UNL     1       3.454  -5.300  -0.859  0.00  0.00    +0.193 C 
ENDROOT
BRANCH   1   9
ATOM      2  C   UNL     1       1.029  -0.879   2.649  0.00  0.00    +0.001 A 
ATOM      3  C   UNL     1       2.073   0.035   2.559  0.00  0.00    +0.001 A 
ATOM      4  C   UNL     1       3.189  -0.251   1.826  0.00  0.00    +0.009 A 
ATOM      5  C   UNL     1       3.286  -1.474   1.160  0.00  0.00    -0.010 A 
ATOM      6  C   UNL     1       2.227  -2.406   1.249  0.00  0.00    -0.017 A 
ATOM      7  C   UNL     1       1.094  -2.082   2.010  0.00  0.00    +0.008 A 
ATOM      8  C   UNL     1       2.321  -3.645   0.575  0.00  0.00    +0.015 A 
ATOM      9  C   UNL     1       3.405  -3.965  -0.160  0.00  0.00    -0.010 A 
ATOM     10  C   UNL     1       4.497  -3.077  -0.289  0.00  0.00    -0.012 A 
ATOM     11  C   UNL     1       4.465  -1.822   0.362  0.00  0.00    -0.010 A 
ATOM     12  C   UNL     1       5.545  -0.947   0.233  0.00  0.00    +0.009 A 
ATOM     13  C   UNL     1       6.625  -1.312  -0.521  0.00  0.00    +0.001 A 
ATOM     14  C   UNL     1       6.661  -2.545  -1.161  0.00  0.00    +0.001 A 
ATOM     15  C   UNL     1       5.620  -3.420  -1.055  0.00  0.00    +0.009 A 
ENDBRANCH   1   9
BRANCH   1  16
ATOM     16  C   UNL     1       4.124  -6.311   0.035  0.00  0.00    +0.238 C 
ATOM     17  O   UNL     1       3.562  -6.701   1.037  0.00  0.00    -0.273 OA
ATOM     18  N   UNL     1       5.347  -6.782  -0.278  0.00  0.00    -0.311 N 
ATOM     19  H   UNL     1       5.796  -6.470  -1.079  0.00  0.00    +0.149 HD
BRANCH  18  20
ATOM     20  C   UNL     1       5.998  -7.765   0.591  0.00  0.00    +0.073 C 
ATOM     21  C   UNL     1       6.729  -7.040   1.724  0.00  0.00    +0.022 C 
ATOM     22  C   UNL     1       7.409  -8.066   2.631  0.00  0.00    +0.002 C 
ATOM     23  C   UNL     1       8.414  -8.882   1.816  0.00  0.00    +0.000 C 
ATOM     24  C   UNL     1       7.684  -9.607   0.684  0.00  0.00    +0.002 C 
ATOM     25  C   UNL     1       7.004  -8.580  -0.224  0.00  0.00    +0.022 C 
ENDBRANCH  18  20
ENDBRANCH   1  16
BRANCH   1  26
ATOM     26  N   UNL     1       2.091  -5.743  -1.162  0.00  0.00    -0.277 N 
ATOM     27  C   UNL     1       1.353  -5.077  -2.072  0.00  0.00    +0.237 C 
ATOM     28  O   UNL     1       0.237  -5.465  -2.349  0.00  0.00    -0.274 OA
BRANCH  27  29
ATOM     29  C   UNL     1       1.913  -3.851  -2.746  0.00  0.00    +0.159 C 
ATOM     30  C   UNL     1       1.244  -2.578  -2.181  0.00  0.00    +0.041 C 
ATOM     31  C   UNL     1       0.088  -2.358  -3.185  0.00  0.00    +0.098 C 
ATOM     32  C   UNL     1       0.561  -3.038  -4.450  0.00  0.00    +0.214 C 
ATOM     33  O   UNL     1       0.085  -2.864  -5.552  0.00  0.00    -0.276 OA
ATOM     34  N   UNL     1       1.588  -3.865  -4.177  0.00  0.00    -0.304 N 
ATOM     35  H   UNL     1       2.053  -4.400  -4.839  0.00  0.00    +0.149 HD
ENDBRANCH  27  29
BRANCH  26  36
ATOM     36  C   UNL     1       1.530  -6.909  -0.475  0.00  0.00    +0.183 C 
BRANCH  36  37
ATOM     37  C   UNL     1       0.733  -6.453   0.720  0.00  0.00    +0.122 A 
ATOM     38  C   UNL     1      -0.579  -6.156   0.723  0.00  0.00    +0.046 A 
ATOM     39  C   UNL     1      -0.909  -5.777   2.045  0.00  0.00    +0.041 A 
ATOM     40  C   UNL     1       0.220  -5.864   2.769  0.00  0.00    +0.195 A 
ATOM     41  O   UNL     1       1.210  -6.280   1.963  0.00  0.00    -0.466 OA
ENDBRANCH  36  37
ENDBRANCH  26  36
ENDBRANCH   1  26
TORSDOF 7
