REMARK  Name = ZINC20234522
REMARK  9 active torsions:
REMARK  status: ('A' for Active; 'I' for Inactive)
REMARK    1  A    between atoms: C_1  and  C_2
REMARK    2  A    between atoms: C_2  and  C_3
REMARK    3  A    between atoms: C_12  and  S_14
REMARK    4  A    between atoms: S_14  and  N_17
REMARK    5  A    between atoms: N_17  and  C_18
REMARK    6  A    between atoms: C_18  and  C_20
REMARK    7  A    between atoms: C_18  and  C_27
REMARK    8  A    between atoms: C_20  and  C_21
REMARK    9  A    between atoms: N_29  and  C_30
REMARK                            x       y       z     vdW  Elec       q    Type
REMARK                         _______ _______ _______ _____ _____    ______ ____
ROOT
ATOM      1  C   UNL     1      -2.946   0.714   1.468  0.00  0.00    +0.167 C 
ENDROOT
BRANCH   1   2
ATOM      2  C   UNL     1      -4.298   0.048   1.466  0.00  0.00    +0.236 C 
ATOM      3  O   UNL     1      -4.432  -1.055   1.952  0.00  0.00    -0.274 OA
ATOM      4  N   UNL     1      -5.359   0.678   0.922  0.00  0.00    -0.284 N 
ATOM      5  H   UNL     1      -5.255   1.708   0.550  0.00  0.00    +0.155 HD
BRANCH   4   6
ATOM      6  C   UNL     1      -6.592   0.022   0.832  0.00  0.00    +0.036 A 
ATOM      7  C   UNL     1      -7.426   0.255  -0.254  0.00  0.00    +0.026 A 
ATOM      8  C   UNL     1      -8.640  -0.398  -0.345  0.00  0.00    +0.043 A 
ATOM      9  C   UNL     1      -9.033  -1.274   0.652  0.00  0.00    +0.159 A 
ATOM     10  C   UNL     1      -8.205  -1.505   1.740  0.00  0.00    +0.160 A 
ATOM     11  C   UNL     1      -6.986  -0.858   1.831  0.00  0.00    +0.064 A 
ATOM     12  F   UNL     1      -8.590  -2.361   2.712  0.00  0.00    -0.202 F 
ATOM     13  F   UNL     1     -10.223  -1.907   0.563  0.00  0.00    -0.202 F 
ENDBRANCH   4   6
ENDBRANCH   1   2
BRANCH   1  14
ATOM     14  N   UNL     1      -1.969  -0.169   2.110  0.00  0.00    -0.178 NA
ATOM     15  H   UNL     1      -2.136  -1.256   2.127  0.00  0.00    +0.149 HD
BRANCH  14  16
ATOM     16  S   UNL     1      -0.746   0.476   3.022  0.00  0.00    +0.059 S 
ATOM     17  O   UNL     1       0.007  -0.620   3.524  0.00  0.00    -0.153 OA
ATOM     18  O   UNL     1      -0.159   1.509   2.243  0.00  0.00    -0.153 OA
BRANCH  16  28
ATOM     19  C   UNL     1      -3.591   2.871   8.831  0.00  0.00    +0.220 C 
ATOM     20  O   UNL     1      -3.372   1.725   9.164  0.00  0.00    -0.275 OA
ATOM     21  N   UNL     1      -3.260   3.287   7.593  0.00  0.00    -0.271 N 
ATOM     22  C   UNL     1      -3.475   4.642   7.077  0.00  0.00    +0.118 C 
ATOM     23  C   UNL     1      -2.938   4.615   5.636  0.00  0.00    +0.056 C 
ATOM     24  C   UNL     1      -2.445   3.199   5.440  0.00  0.00    -0.023 A 
ATOM     25  C   UNL     1      -2.663   2.490   6.611  0.00  0.00    +0.040 A 
ATOM     26  C   UNL     1      -2.285   1.148   6.671  0.00  0.00    +0.026 A 
ATOM     27  C   UNL     1      -1.702   0.540   5.579  0.00  0.00    +0.030 A 
ATOM     28  C   UNL     1      -1.490   1.256   4.415  0.00  0.00    +0.106 A 
ATOM     29  C   UNL     1      -1.857   2.587   4.350  0.00  0.00    +0.034 A 
BRANCH  19  31
ATOM     30  C   UNL     1      -4.503   3.108  11.125  0.00  0.00    +0.013 C 
ATOM     31  C   UNL     1      -4.231   3.828   9.802  0.00  0.00    +0.093 C 
ENDBRANCH  19  31
ENDBRANCH  16  28
ENDBRANCH  14  16
ENDBRANCH   1  14
BRANCH   1  32
ATOM     32  C   UNL     1      -2.513   0.993   0.028  0.00  0.00    +0.065 C 
BRANCH  32  33
ATOM     33  C   UNL     1      -1.220   1.768   0.034  0.00  0.00    -0.045 A 
ATOM     34  C   UNL     1      -0.012   1.096   0.023  0.00  0.00    +0.004 A 
ATOM     35  C   UNL     1       1.174   1.807   0.022  0.00  0.00    +0.000 A 
ATOM     36  C   UNL     1       1.152   3.189   0.038  0.00  0.00    +0.000 A 
ATOM     37  C   UNL     1      -0.057   3.860   0.055  0.00  0.00    +0.000 A 
ATOM     38  C   UNL     1      -1.242   3.150   0.055  0.00  0.00    +0.004 A 
ENDBRANCH  32  33
ENDBRANCH   1  32
TORSDOF 8
