REMARK  Name = ZINC36500904
REMARK  10 active torsions:
REMARK  status: ('A' for Active; 'I' for Inactive)
REMARK    1  A    between atoms: C_1  and  C_2
REMARK    2  A    between atoms: C_5  and  C_8
REMARK    3  A    between atoms: C_8  and  C_10
REMARK    4  A    between atoms: C_8  and  N_19
REMARK    5  A    between atoms: N_12  and  C_13
REMARK    6  A    between atoms: N_19  and  C_20
REMARK    7  A    between atoms: C_20  and  C_21
REMARK    8  A    between atoms: C_26  and  C_28
REMARK    9  A    between atoms: C_32  and  O_35
REMARK   10  A    between atoms: C_33  and  O_34
REMARK                            x       y       z     vdW  Elec       q    Type
REMARK                         _______ _______ _______ _____ _____    ______ ____
ROOT
ATOM      1  N   UNL     1      -1.246  -4.353   1.518  0.00  0.00    -0.275 N 
ATOM      2  C   UNL     1      -2.315  -5.083   1.144  0.00  0.00    +0.252 C 
ATOM      3  O   UNL     1      -2.564  -6.130   1.710  0.00  0.00    -0.270 OA
ENDROOT
BRANCH   2   4
ATOM      4  C   UNL     1      -3.184  -4.613   0.048  0.00  0.00    +0.082 A 
ATOM      5  C   UNL     1      -2.626  -4.235  -1.177  0.00  0.00    +0.017 A 
ATOM      6  C   UNL     1      -3.440  -3.797  -2.198  0.00  0.00    +0.005 A 
ATOM      7  C   UNL     1      -4.812  -3.728  -2.019  0.00  0.00    +0.049 A 
ATOM      8  C   UNL     1      -5.379  -4.099  -0.812  0.00  0.00    +0.159 A 
ATOM      9  C   UNL     1      -4.570  -4.549   0.228  0.00  0.00    +0.171 A 
BRANCH   9  10
ATOM     10  O   UNL     1      -5.123  -4.919   1.411  0.00  0.00    -0.503 OA
ATOM     11  H   UNL     1      -5.207  -4.197   2.049  0.00  0.00    +0.292 HD
ENDBRANCH   9  10
BRANCH   8  12
ATOM     12  O   UNL     1      -6.727  -4.028  -0.643  0.00  0.00    -0.503 OA
ATOM     13  H   UNL     1      -7.197  -4.838  -0.887  0.00  0.00    +0.292 HD
ENDBRANCH   8  12
ENDBRANCH   2   4
BRANCH   1  14
ATOM     14  C   UNL     1      -0.991  -3.054   0.890  0.00  0.00    +0.193 C 
BRANCH  14  19
ATOM     15  C   UNL     1      -4.267   0.981   3.416  0.00  0.00    +0.044 C 
ATOM     16  C   UNL     1      -3.413  -0.071   2.757  0.00  0.00    -0.050 A 
ATOM     17  C   UNL     1      -3.103   0.032   1.414  0.00  0.00    +0.004 A 
ATOM     18  C   UNL     1      -2.319  -0.934   0.810  0.00  0.00    +0.006 A 
ATOM     19  C   UNL     1      -1.845  -2.001   1.549  0.00  0.00    -0.018 A 
ATOM     20  C   UNL     1      -2.154  -2.103   2.893  0.00  0.00    +0.006 A 
ATOM     21  C   UNL     1      -2.934  -1.135   3.498  0.00  0.00    +0.004 A 
ENDBRANCH  14  19
BRANCH  14  22
ATOM     22  C   UNL     1       0.463  -2.695   1.052  0.00  0.00    +0.238 C 
ATOM     23  O   UNL     1       1.214  -3.452   1.630  0.00  0.00    -0.273 OA
ATOM     24  N   UNL     1       0.930  -1.532   0.555  0.00  0.00    -0.311 N 
ATOM     25  H   UNL     1       0.329  -0.926   0.094  0.00  0.00    +0.149 HD
BRANCH  24  26
ATOM     26  C   UNL     1       2.344  -1.183   0.713  0.00  0.00    +0.073 C 
ATOM     27  C   UNL     1       2.556  -0.517   2.074  0.00  0.00    +0.022 C 
ATOM     28  C   UNL     1       4.033  -0.152   2.238  0.00  0.00    +0.002 C 
ATOM     29  C   UNL     1       4.446   0.815   1.127  0.00  0.00    +0.000 C 
ATOM     30  C   UNL     1       4.234   0.149  -0.234  0.00  0.00    +0.002 C 
ATOM     31  C   UNL     1       2.757  -0.215  -0.398  0.00  0.00    +0.022 C 
ENDBRANCH  24  26
ENDBRANCH  14  22
ENDBRANCH   1  14
BRANCH   1  32
ATOM     32  C   UNL     1      -0.340  -4.857   2.553  0.00  0.00    +0.183 C 
BRANCH  32  33
ATOM     33  C   UNL     1       0.642  -5.819   1.934  0.00  0.00    +0.122 A 
ATOM     34  C   UNL     1       1.960  -5.604   1.774  0.00  0.00    +0.046 A 
ATOM     35  C   UNL     1       2.492  -6.760   1.157  0.00  0.00    +0.041 A 
ATOM     36  C   UNL     1       1.467  -7.612   0.977  0.00  0.00    +0.195 A 
ATOM     37  O   UNL     1       0.350  -7.039   1.455  0.00  0.00    -0.466 OA
ENDBRANCH  32  33
ENDBRANCH   1  32
TORSDOF 9
