REMARK  Name = ZINC00690049
REMARK  7 active torsions:
REMARK  status: ('A' for Active; 'I' for Inactive)
REMARK    1  A    between atoms: C_1  and  C_2
REMARK    2  A    between atoms: C_2  and  C_3
REMARK    3  A    between atoms: C_5  and  C_26
REMARK    4  A    between atoms: C_6  and  N_8
REMARK    5  A    between atoms: C_9  and  O_11
REMARK    6  A    between atoms: O_11  and  C_12
REMARK    7  A    between atoms: C_12  and  C_13
REMARK                            x       y       z     vdW  Elec       q    Type
REMARK                         _______ _______ _______ _____ _____    ______ ____
ROOT
ATOM      1  N   UNL     1      -3.849   6.505  -2.143  0.00  0.00    -0.245 N 
ATOM      2  C   UNL     1      -2.501   6.498  -2.159  0.00  0.00    +0.405 C 
ATOM      3  O   UNL     1      -1.902   6.982  -3.099  0.00  0.00    -0.226 OA
ATOM      4  H   UNL     1      -4.327   6.118  -1.392  0.00  0.00    +0.159 HD
ENDROOT
BRANCH   1   8
ATOM      5  C   UNL     1      -5.459   8.242  -5.433  0.00  0.00    -0.008 A 
ATOM      6  C   UNL     1      -6.394   7.803  -4.571  0.00  0.00    +0.026 A 
ATOM      7  C   UNL     1      -5.929   7.161  -3.365  0.00  0.00    +0.065 A 
ATOM      8  C   UNL     1      -4.552   7.065  -3.198  0.00  0.00    +0.087 A 
ATOM      9  S   UNL     1      -3.928   7.807  -4.633  0.00  0.00    -0.078 S 
BRANCH   7  10
ATOM     10  C   UNL     1      -6.862   6.641  -2.362  0.00  0.00    +0.244 C 
ATOM     11  O   UNL     1      -6.438   6.108  -1.353  0.00  0.00    -0.270 OA
ATOM     12  N   UNL     1      -8.191   6.752  -2.556  0.00  0.00    -0.325 N 
ATOM     13  H   UNL     1      -8.530   7.176  -3.360  0.00  0.00    +0.145 HD
ATOM     14  H   UNL     1      -8.809   6.407  -1.893  0.00  0.00    +0.145 HD
ENDBRANCH   7  10
BRANCH   5  16
ATOM     15  C   UNL     1      -5.711  10.449  -6.535  0.00  0.00    +0.009 C 
ATOM     16  C   UNL     1      -5.658   8.936  -6.755  0.00  0.00    +0.039 C 
ENDBRANCH   5  16
ENDBRANCH   1   8
BRANCH   2  17
ATOM     17  O   UNL     1      -1.818   5.954  -1.134  0.00  0.00    -0.449 OA
BRANCH  17  18
ATOM     18  C   UNL     1      -0.369   5.982  -1.218  0.00  0.00    +0.246 C 
BRANCH  18  19
ATOM     19  C   UNL     1       0.227   5.323   0.027  0.00  0.00    +0.088 C 
ATOM     20  C   UNL     1      -0.064   3.843   0.022  0.00  0.00    -0.029 A 
ATOM     21  C   UNL     1      -1.245   3.132   0.029  0.00  0.00    +0.005 A 
ATOM     22  C   UNL     1      -1.221   1.748   0.017  0.00  0.00    +0.000 A 
ATOM     23  C   UNL     1      -0.013   1.076   0.008  0.00  0.00    +0.001 A 
ATOM     24  C   UNL     1       1.174   1.779   0.000  0.00  0.00    +0.009 A 
ATOM     25  C   UNL     1       1.157   3.175   0.008  0.00  0.00    -0.014 A 
ATOM     26  C   UNL     1       2.262   4.166   0.002  0.00  0.00    -0.014 A 
ATOM     27  C   UNL     1       1.731   5.452   0.014  0.00  0.00    -0.029 A 
ATOM     28  C   UNL     1       2.566   6.550   0.011  0.00  0.00    +0.005 A 
ATOM     29  C   UNL     1       3.938   6.376  -0.003  0.00  0.00    +0.000 A 
ATOM     30  C   UNL     1       4.476   5.101  -0.015  0.00  0.00    +0.001 A 
ATOM     31  C   UNL     1       3.648   3.998  -0.012  0.00  0.00    +0.009 A 
ENDBRANCH  18  19
ENDBRANCH  17  18
ENDBRANCH   2  17
TORSDOF 6
