REMARK  Name = ZINC10514459
REMARK  4 active torsions:
REMARK  status: ('A' for Active; 'I' for Inactive)
REMARK    1  A    between atoms: C_6  and  S_7
REMARK    2  A    between atoms: S_7  and  N_10
REMARK    3  A    between atoms: N_14  and  S_15
REMARK    4  A    between atoms: S_15  and  C_18
REMARK                            x       y       z     vdW  Elec       q    Type
REMARK                         _______ _______ _______ _____ _____    ______ ____
ROOT
ATOM      1  C   UNL     1      -0.016   1.375  -0.007  0.00  0.00    +0.030 A 
ATOM      2  C   UNL     1       1.171   2.081  -0.009  0.00  0.00    +0.027 A 
ATOM      3  C   UNL     1       2.384   1.402  -0.018  0.00  0.00    +0.055 A 
ATOM      4  C   UNL     1       2.403   0.016  -0.022  0.00  0.00    -0.023 A 
ATOM      5  C   UNL     1       1.209  -0.684  -0.022  0.00  0.00    +0.034 A 
ATOM      6  C   UNL     1       0.004  -0.007  -0.015  0.00  0.00    +0.105 A 
ATOM      7  C   UNL     1       3.698  -0.753  -0.021  0.00  0.00    +0.039 C 
ATOM      8  C   UNL     1       4.844   0.127  -0.520  0.00  0.00    +0.025 C 
ATOM      9  C   UNL     1       4.838   1.444   0.267  0.00  0.00    +0.132 C 
ATOM     10  N   UNL     1       3.575   2.136  -0.025  0.00  0.00    -0.203 N 
ENDROOT
BRANCH   6  11
ATOM     11  S   UNL     1      -1.510  -0.908  -0.015  0.00  0.00    +0.056 S 
ATOM     12  O   UNL     1      -1.221  -2.189   0.528  0.00  0.00    -0.153 OA
ATOM     13  O   UNL     1      -2.494  -0.049   0.543  0.00  0.00    -0.153 OA
BRANCH  11  14
ATOM     14  N   UNL     1      -1.936  -1.150  -1.597  0.00  0.00    -0.204 NA
ATOM     15  H   UNL     1      -2.442  -1.939  -1.848  0.00  0.00    +0.144 HD
ATOM     16  H   UNL     1      -1.679  -0.504  -2.273  0.00  0.00    +0.144 HD
ENDBRANCH  11  14
ENDBRANCH   6  11
BRANCH  10  17
ATOM     17  S   UNL     1       3.562   3.758  -0.357  0.00  0.00    +0.075 S 
ATOM     18  O   UNL     1       4.889   4.107  -0.728  0.00  0.00    -0.150 OA
ATOM     19  O   UNL     1       2.447   3.990  -1.207  0.00  0.00    -0.150 OA
BRANCH  17  20
ATOM     20  C   UNL     1       3.225   4.597   1.155  0.00  0.00    +0.114 A 
ATOM     21  C   UNL     1       1.919   4.864   1.520  0.00  0.00    +0.067 A 
ATOM     22  C   UNL     1       1.652   5.524   2.708  0.00  0.00    +0.128 A 
ATOM     23  C   UNL     1       2.695   5.915   3.531  0.00  0.00    +0.076 A 
ATOM     24  C   UNL     1       4.002   5.647   3.164  0.00  0.00    +0.128 A 
ATOM     25  C   UNL     1       4.266   4.982   1.978  0.00  0.00    +0.067 A 
ATOM     26  F   UNL     1       5.020   6.028   3.966  0.00  0.00    -0.205 F 
ATOM     27  F   UNL     1       0.376   5.786   3.064  0.00  0.00    -0.205 F 
ENDBRANCH  17  20
ENDBRANCH  10  17
TORSDOF 4
