REMARK  Name = ZINC01009140
REMARK  12 active torsions:
REMARK  status: ('A' for Active; 'I' for Inactive)
REMARK    1  A    between atoms: C_1  and  C_2
REMARK    2  A    between atoms: C_4  and  C_32
REMARK    3  A    between atoms: C_5  and  C_17
REMARK    4  A    between atoms: C_7  and  C_8
REMARK    5  A    between atoms: C_8  and  O_9
REMARK    6  A    between atoms: O_9  and  C_10
REMARK    7  A    between atoms: C_19  and  C_30
REMARK    8  A    between atoms: C_20  and  N_29
REMARK    9  A    between atoms: C_22  and  C_28
REMARK   10  A    between atoms: C_23  and  C_24
REMARK   11  A    between atoms: C_24  and  O_26
REMARK   12  A    between atoms: O_26  and  C_27
REMARK                            x       y       z     vdW  Elec       q    Type
REMARK                         _______ _______ _______ _____ _____    ______ ____
ROOT
ATOM      1  C   UNL     1       3.123   3.807  -1.126  0.00  0.00    +0.044 C 
ATOM      2  C   UNL     1       1.762   3.226  -0.839  0.00  0.00    -0.044 A 
ATOM      3  C   UNL     1       0.811   3.985  -0.184  0.00  0.00    +0.007 A 
ATOM      4  C   UNL     1      -0.437   3.453   0.079  0.00  0.00    -0.046 A 
ATOM      5  C   UNL     1      -0.735   2.162  -0.317  0.00  0.00    -0.031 A 
ATOM      6  C   UNL     1       0.218   1.401  -0.967  0.00  0.00    +0.012 A 
ATOM      7  C   UNL     1       1.466   1.934  -1.231  0.00  0.00    -0.007 A 
ATOM      8  C   UNL     1      -1.474   4.280   0.794  0.00  0.00    +0.044 C 
ENDROOT
BRANCH   5   9
ATOM      9  C   UNL     1      -2.098   1.583  -0.034  0.00  0.00    +0.105 C 
ATOM     10  C   UNL     1      -1.967   0.454   0.953  0.00  0.00    +0.098 C 
ATOM     11  C   UNL     1      -2.047  -0.835   0.545  0.00  0.00    +0.198 C 
ATOM     12  O   UNL     1      -2.243  -1.160  -0.745  0.00  0.00    -0.445 OA
ATOM     13  C   UNL     1      -2.735  -0.240  -1.587  0.00  0.00    +0.115 C 
ATOM     14  C   UNL     1      -2.699   1.071  -1.315  0.00  0.00    +0.087 C 
ATOM     15  C   UNL     1      -3.350  -0.697  -2.885  0.00  0.00    +0.087 C 
BRANCH  11  16
ATOM     16  N   UNL     1      -1.925  -1.838   1.474  0.00  0.00    -0.328 N 
ATOM     17  H   UNL     1      -1.988  -2.890   1.160  0.00  0.00    +0.145 HD
ATOM     18  H   UNL     1      -1.764  -1.590   2.534  0.00  0.00    +0.145 HD
ENDBRANCH  11  16
BRANCH  14  19
ATOM     19  C   UNL     1      -3.235   1.991  -2.249  0.00  0.00    +0.339 C 
ATOM     20  O   UNL     1      -4.356   2.437  -2.089  0.00  0.00    -0.245 OA
BRANCH  19  21
ATOM     21  O   UNL     1      -2.503   2.373  -3.316  0.00  0.00    -0.465 OA
ATOM     22  C   UNL     1      -3.106   3.304  -4.217  0.00  0.00    +0.280 C 
ENDBRANCH  19  21
ENDBRANCH  14  19
BRANCH  10  23
ATOM     23  C   UNL     1      -1.756   0.747   2.339  0.00  0.00    +0.101 C 
ATOM     24  N   UNL     1      -1.588   0.979   3.438  0.00  0.00    -0.191 NA
ENDBRANCH  10  23
ENDBRANCH   5   9
BRANCH   7  25
ATOM     25  C   UNL     1       2.503   1.106  -1.945  0.00  0.00    +0.264 C 
BRANCH  25  26
ATOM     26  O   UNL     1       1.962  -0.182  -2.242  0.00  0.00    -0.486 OA
BRANCH  26  27
ATOM     27  C   UNL     1       2.775  -1.058  -2.890  0.00  0.00    +0.135 A 
ATOM     28  C   UNL     1       4.064  -0.683  -3.238  0.00  0.00    +0.047 A 
ATOM     29  C   UNL     1       4.890  -1.577  -3.892  0.00  0.00    +0.004 A 
ATOM     30  C   UNL     1       4.430  -2.841  -4.209  0.00  0.00    +0.001 A 
ATOM     31  C   UNL     1       3.143  -3.216  -3.869  0.00  0.00    +0.019 A 
ATOM     32  C   UNL     1       2.314  -2.328  -3.210  0.00  0.00    +0.059 A 
ATOM     33 BR   UNL     1       0.554  -2.841  -2.746  0.00  0.00    -0.047 Br
ENDBRANCH  26  27
ENDBRANCH  25  26
ENDBRANCH   7  25
TORSDOF 8
