REMARK  Name = ZINC34896884
REMARK  14 active torsions:
REMARK  status: ('A' for Active; 'I' for Inactive)
REMARK    1  A    between atoms: C_1  and  C_2
REMARK    2  A    between atoms: C_2  and  C_3
REMARK    3  A    between atoms: C_3  and  C_38
REMARK    4  A    between atoms: N_8  and  C_9
REMARK    5  A    between atoms: C_12  and  C_15
REMARK    6  A    between atoms: N_16  and  C_17
REMARK    7  A    between atoms: C_17  and  C_19
REMARK    8  A    between atoms: C_17  and  C_34
REMARK    9  A    between atoms: C_19  and  N_21
REMARK   10  A    between atoms: C_19  and  O_26
REMARK   11  A    between atoms: O_26  and  C_27
REMARK   12  A    between atoms: C_34  and  C_35
REMARK   13  A    between atoms: C_34  and  C_36
REMARK   14  A    between atoms: C_34  and  C_37
REMARK                            x       y       z     vdW  Elec       q    Type
REMARK                         _______ _______ _______ _____ _____    ______ ____
ROOT
ATOM      1  C   UNL     1       2.515  -0.317   1.511  0.00  0.00    +0.089 C 
ATOM      2  C   UNL     1       2.076  -1.765   1.424  0.00  0.00    +0.090 C 
ATOM      3  N   UNL     1       1.720  -2.111   2.634  0.00  0.00    -0.287 N 
ATOM      4  C   UNL     1       1.856  -1.113   3.512  0.00  0.00    +0.143 C 
ATOM      5  S   UNL     1       1.474  -1.246   5.176  0.00  0.00    -0.018 S 
ATOM      6  N   UNL     1       2.328   0.009   2.937  0.00  0.00    -0.270 N 
ATOM      7  N   UNL     1       2.055  -2.546   0.313  0.00  0.00    -0.325 N 
ATOM      8  C   UNL     1       3.985  -0.171   1.113  0.00  0.00    +0.040 C 
ATOM      9  H   UNL     1       2.343  -2.184  -0.540  0.00  0.00    +0.147 HD
ATOM     10  H   UNL     1       1.393  -2.994   2.869  0.00  0.00    +0.155 HD
ENDROOT
BRANCH   6  11
ATOM     11  C   UNL     1       2.587   1.233   3.562  0.00  0.00    +0.036 A 
ATOM     12  C   UNL     1       1.544   1.968   4.110  0.00  0.00    +0.024 A 
ATOM     13  C   UNL     1       1.802   3.176   4.727  0.00  0.00    +0.005 A 
ATOM     14  C   UNL     1       3.098   3.654   4.800  0.00  0.00    -0.050 A 
ATOM     15  C   UNL     1       4.139   2.925   4.254  0.00  0.00    +0.005 A 
ATOM     16  C   UNL     1       3.888   1.713   3.641  0.00  0.00    +0.024 A 
ATOM     17  C   UNL     1       3.377   4.973   5.474  0.00  0.00    +0.044 C 
ENDBRANCH   6  11
BRANCH   1  19
ATOM     18  C   UNL     1       2.064   2.029   0.781  0.00  0.00    +0.006 C 
ATOM     19  C   UNL     1       1.629   0.569   0.634  0.00  0.00    +0.030 C 
ENDBRANCH   1  19
BRANCH   7  20
ATOM     20  C   UNL     1       1.598  -3.935   0.402  0.00  0.00    +0.140 C 
BRANCH  20  21
ATOM     21  C   UNL     1       2.764  -4.829   0.830  0.00  0.00    -0.014 C 
ATOM     22  C   UNL     1       3.198  -4.456   2.249  0.00  0.00    +0.012 C 
ATOM     23  C   UNL     1       2.322  -6.293   0.800  0.00  0.00    +0.012 C 
ATOM     24  C   UNL     1       3.938  -4.631  -0.131  0.00  0.00    +0.012 C 
ENDBRANCH  20  21
BRANCH  20  25
ATOM     25  C   UNL     1       1.081  -4.391  -0.964  0.00  0.00    +0.315 C 
BRANCH  25  26
ATOM     26  N   UNL     1      -0.077  -3.578  -1.343  0.00  0.00    -0.211 N 
ATOM     27  C   UNL     1      -0.230  -2.873  -2.478  0.00  0.00    +0.223 A 
ATOM     28  N   UNL     1      -1.399  -2.287  -2.438  0.00  0.00    -0.223 NA
ATOM     29  C   UNL     1      -2.018  -2.592  -1.298  0.00  0.00    +0.245 A 
ATOM     30  N   UNL     1      -1.251  -3.385  -0.597  0.00  0.00    -0.155 NA
ENDBRANCH  25  26
BRANCH  25  31
ATOM     31  O   UNL     1       2.113  -4.235  -1.940  0.00  0.00    -0.465 OA
BRANCH  31  32
ATOM     32  C   UNL     1       2.039  -5.021  -3.046  0.00  0.00    +0.124 A 
ATOM     33  C   UNL     1       0.933  -5.833  -3.249  0.00  0.00    +0.047 A 
ATOM     34  C   UNL     1       0.860  -6.631  -4.374  0.00  0.00    +0.023 A 
ATOM     35  C   UNL     1       1.890  -6.622  -5.298  0.00  0.00    +0.041 A 
ATOM     36  C   UNL     1       2.994  -5.813  -5.098  0.00  0.00    +0.023 A 
ATOM     37  C   UNL     1       3.068  -5.008  -3.977  0.00  0.00    +0.047 A 
ATOM     38 CL   UNL     1       1.796  -7.626  -6.711  0.00  0.00    -0.084 Cl
ENDBRANCH  31  32
ENDBRANCH  25  31
ENDBRANCH  20  25
ENDBRANCH   7  20
TORSDOF 8
