REMARK  Name = ZINC39687450
REMARK  6 active torsions:
REMARK  status: ('A' for Active; 'I' for Inactive)
REMARK    1  A    between atoms: C_1  and  C_2
REMARK    2  A    between atoms: C_2  and  C_3
REMARK    3  A    between atoms: C_3  and  C_5
REMARK    4  A    between atoms: C_3  and  C_11
REMARK    5  A    between atoms: C_15  and  C_24
REMARK    6  A    between atoms: N_26  and  C_27
REMARK                            x       y       z     vdW  Elec       q    Type
REMARK                         _______ _______ _______ _____ _____    ______ ____
ROOT
ATOM      1  C   UNL     1       0.650  -2.085  -1.363  0.00  0.00    +0.223 C 
ATOM      2  O   UNL     1       1.654  -2.762  -1.441  0.00  0.00    -0.275 OA
ATOM      3  N   UNL     1      -0.563  -2.666  -1.443  0.00  0.00    -0.300 N 
ATOM      4  C   UNL     1      -1.890  -2.011  -1.375  0.00  0.00    +0.121 C 
ATOM      5  C   UNL     1      -2.746  -2.753  -2.426  0.00  0.00    +0.100 C 
ATOM      6  C   UNL     1      -2.073  -4.128  -2.580  0.00  0.00    -0.004 C 
ATOM      7  C   UNL     1      -0.871  -4.105  -1.625  0.00  0.00    +0.115 C 
ATOM      8  C   UNL     1      -3.042  -5.238  -2.184  0.00  0.00    -0.010 C 
ATOM      9  C   UNL     1      -2.370  -6.597  -2.401  0.00  0.00    -0.082 C 
ATOM     10  N   UNL     1      -1.985  -6.735  -3.811  0.00  0.00    +0.379 N 
ATOM     11  C   UNL     1      -0.983  -5.720  -4.158  0.00  0.00    -0.082 C 
ATOM     12  C   UNL     1      -1.596  -4.324  -4.016  0.00  0.00    -0.010 C 
ATOM     13  H   UNL     1      -1.598  -7.654  -3.964  0.00  0.00    -0.086 HD
ATOM     14  H   UNL     1      -2.800  -6.614  -4.394  0.00  0.00    -0.086 HD
ENDROOT
BRANCH   5  15
ATOM     15  C   UNL     1      -4.161  -2.912  -1.933  0.00  0.00    +0.218 C 
ATOM     16  O   UNL     1      -4.381  -3.024  -0.746  0.00  0.00    -0.275 OA
ATOM     17  N   UNL     1      -5.183  -2.928  -2.812  0.00  0.00    -0.312 N 
ATOM     18  H   UNL     1      -5.007  -2.838  -3.762  0.00  0.00    +0.149 HD
BRANCH  17  19
ATOM     19  C   UNL     1      -6.559  -3.082  -2.333  0.00  0.00    +0.076 C 
ATOM     20  C   UNL     1      -6.875  -4.569  -2.159  0.00  0.00    +0.041 C 
ATOM     21  C   UNL     1      -8.302  -4.725  -1.625  0.00  0.00    +0.108 C 
ATOM     22  N   UNL     1      -9.223  -4.013  -2.522  0.00  0.00    -0.317 N 
ATOM     23  C   UNL     1      -8.959  -2.600  -2.829  0.00  0.00    +0.108 C 
ATOM     24  C   UNL     1      -7.524  -2.469  -3.349  0.00  0.00    +0.041 C 
ATOM     25  C   UNL     1     -10.322  -4.663  -3.070  0.00  0.00    +0.099 A 
ATOM     26  C   UNL     1     -11.105  -4.014  -4.019  0.00  0.00    +0.042 A 
ATOM     27  C   UNL     1     -12.196  -4.673  -4.556  0.00  0.00    +0.005 A 
ATOM     28  C   UNL     1     -12.469  -5.964  -4.125  0.00  0.00    +0.018 A 
ATOM     29  C   UNL     1     -11.650  -6.548  -3.180  0.00  0.00    +0.084 A 
ATOM     30  N   UNL     1     -10.612  -5.897  -2.688  0.00  0.00    -0.350 N 
ATOM     31  H   UNL     1     -10.050  -6.333  -2.028  0.00  0.00    +0.166 HD
ENDBRANCH  17  19
ENDBRANCH   5  15
BRANCH   1  32
ATOM     32  C   UNL     1       0.760  -0.594  -1.175  0.00  0.00    +0.105 C 
BRANCH  32  33
ATOM     33  C   UNL     1       2.214  -0.200  -1.117  0.00  0.00    -0.036 A 
ATOM     34  C   UNL     1       3.034  -0.726  -0.136  0.00  0.00    +0.004 A 
ATOM     35  C   UNL     1       4.367  -0.366  -0.083  0.00  0.00    +0.000 A 
ATOM     36  C   UNL     1       4.881   0.520  -1.011  0.00  0.00    +0.000 A 
ATOM     37  C   UNL     1       4.062   1.046  -1.992  0.00  0.00    +0.000 A 
ATOM     38  C   UNL     1       2.729   0.682  -2.048  0.00  0.00    +0.004 A 
ENDBRANCH  32  33
BRANCH  32  40
ATOM     39  C   UNL     1       0.073   1.333   0.260  0.00  0.00    +0.005 C 
ATOM     40  C   UNL     1       0.071  -0.192   0.130  0.00  0.00    +0.014 C 
ENDBRANCH  32  40
ENDBRANCH   1  32
TORSDOF 5
