REMARK  Name = ZINC27319261
REMARK  5 active torsions:
REMARK  status: ('A' for Active; 'I' for Inactive)
REMARK    1  A    between atoms: C_6  and  N_7
REMARK    2  A    between atoms: N_7  and  C_8
REMARK    3  A    between atoms: N_17  and  C_18
REMARK    4  A    between atoms: C_22  and  C_25
REMARK    5  A    between atoms: C_25  and  O_26
REMARK                            x       y       z     vdW  Elec       q    Type
REMARK                         _______ _______ _______ _____ _____    ______ ____
ROOT
ATOM      1  C   UNL     1      -6.379  -1.263  -2.240  0.00  0.00    +0.045 A 
ATOM      2  C   UNL     1      -6.284   0.039  -1.785  0.00  0.00    +0.115 A 
ATOM      3  N   UNL     1      -5.123   0.570  -1.457  0.00  0.00    -0.236 NA
ATOM      4  C   UNL     1      -3.992  -0.115  -1.547  0.00  0.00    +0.164 A 
ATOM      5  C   UNL     1      -4.001  -1.443  -2.000  0.00  0.00    +0.129 A 
ATOM      6  C   UNL     1      -5.226  -2.033  -2.356  0.00  0.00    +0.058 A 
ATOM      7  N   UNL     1      -2.717  -1.881  -1.986  0.00  0.00    -0.232 NA
ATOM      8  C   UNL     1      -1.938  -0.926  -1.568  0.00  0.00    +0.203 A 
ATOM      9  N   UNL     1      -2.674   0.183  -1.278  0.00  0.00    -0.288 N 
ENDROOT
BRANCH   9  10
ATOM     10  C   UNL     1      -2.159   1.459  -0.778  0.00  0.00    +0.222 C 
ATOM     11  C   UNL     1      -2.264   1.501   0.759  0.00  0.00    +0.057 C 
ATOM     12  C   UNL     1      -0.796   1.614   1.237  0.00  0.00    +0.038 C 
ATOM     13  C   UNL     1      -0.013   1.086   0.008  0.00  0.00    +0.146 C 
ATOM     14  O   UNL     1      -0.764   1.590  -1.117  0.00  0.00    -0.351 OA
BRANCH  13  15
ATOM     15  C   UNL     1       1.412   1.642  -0.003  0.00  0.00    +0.187 C 
BRANCH  15  16
ATOM     16  O   UNL     1       2.132   1.089  -1.107  0.00  0.00    -0.392 OA
ATOM     17  H   UNL     1       3.180   1.374  -1.278  0.00  0.00    +0.210 HD
ENDBRANCH  15  16
ENDBRANCH  13  15
ENDBRANCH   9  10
BRANCH   6  18
ATOM     18  N   UNL     1      -5.285  -3.346  -2.809  0.00  0.00    -0.339 N 
ATOM     19  H   UNL     1      -4.362  -3.940  -2.894  0.00  0.00    +0.146 HD
BRANCH  18  20
ATOM     20  C   UNL     1      -6.574  -3.939  -3.172  0.00  0.00    +0.070 C 
ATOM     21  C   UNL     1      -7.277  -4.431  -1.891  0.00  0.00    +0.022 C 
ATOM     22  C   UNL     1      -8.750  -4.558  -2.172  0.00  0.00    +0.002 C 
ATOM     23  C   UNL     1      -9.148  -5.984  -2.595  0.00  0.00    +0.000 C 
ATOM     24  C   UNL     1      -8.140  -6.622  -3.570  0.00  0.00    +0.000 C 
ATOM     25  C   UNL     1      -7.661  -5.654  -4.617  0.00  0.00    +0.002 C 
ATOM     26  C   UNL     1      -6.346  -5.014  -4.127  0.00  0.00    +0.022 C 
ENDBRANCH  18  20
ENDBRANCH   6  18
TORSDOF 5
