REMARK  Name = ZINC09194381
REMARK  12 active torsions:
REMARK  status: ('A' for Active; 'I' for Inactive)
REMARK    1  A    between atoms: C_1  and  C_2
REMARK    2  A    between atoms: C_2  and  O_3
REMARK    3  A    between atoms: O_3  and  C_4
REMARK    4  A    between atoms: C_6  and  C_20
REMARK    5  A    between atoms: C_9  and  O_10
REMARK    6  A    between atoms: O_10  and  C_11
REMARK    7  A    between atoms: C_11  and  C_12
REMARK    8  A    between atoms: C_20  and  N_54
REMARK    9  A    between atoms: C_21  and  C_22
REMARK   10  A    between atoms: C_21  and  N_54
REMARK   11  A    between atoms: C_22  and  N_23
REMARK   12  A    between atoms: C_24  and  C_26
REMARK                            x       y       z     vdW  Elec       q    Type
REMARK                         _______ _______ _______ _____ _____    ______ ____
ROOT
ATOM      1  C   UNL     1       2.792  -6.046  -1.257  0.00  0.00    +0.162 A 
ATOM      2  C   UNL     1       2.809  -4.661  -1.248  0.00  0.00    +0.051 A 
ATOM      3  C   UNL     1       2.830  -3.978  -0.046  0.00  0.00    -0.061 A 
ATOM      4  C   UNL     1       2.838  -4.674   1.148  0.00  0.00    +0.005 A 
ATOM      5  C   UNL     1       2.815  -6.056   1.146  0.00  0.00    +0.049 A 
ATOM      6  C   UNL     1       2.795  -6.747  -0.055  0.00  0.00    +0.162 A 
ENDROOT
BRANCH   1   7
ATOM      7  O   UNL     1       2.772  -6.720  -2.438  0.00  0.00    -0.489 OA
BRANCH   7   9
ATOM      8  C   UNL     1       2.747  -6.861  -4.851  0.00  0.00    +0.048 C 
ATOM      9  C   UNL     1       2.771  -5.935  -3.632  0.00  0.00    +0.226 C 
ENDBRANCH   7   9
ENDBRANCH   1   7
BRANCH   6  10
ATOM     10  O   UNL     1       2.777  -8.107  -0.058  0.00  0.00    -0.484 OA
BRANCH  10  11
ATOM     11  C   UNL     1       2.781  -8.759   1.213  0.00  0.00    +0.266 C 
BRANCH  11  12
ATOM     12  C   UNL     1       2.759 -10.252   1.012  0.00  0.00    +0.008 A 
ATOM     13  C   UNL     1       2.740 -10.777  -0.267  0.00  0.00    +0.010 A 
ATOM     14  C   UNL     1       2.720 -12.146  -0.453  0.00  0.00    +0.020 A 
ATOM     15  C   UNL     1       2.721 -12.993   0.642  0.00  0.00    +0.042 A 
ATOM     16  C   UNL     1       2.740 -12.469   1.921  0.00  0.00    +0.040 A 
ATOM     17  C   UNL     1       2.765 -11.098   2.106  0.00  0.00    +0.049 A 
ATOM     18 CL   UNL     1       2.796 -10.439   3.712  0.00  0.00    -0.083 Cl
ATOM     19 CL   UNL     1       2.696 -14.713   0.408  0.00  0.00    -0.083 Cl
ENDBRANCH  11  12
ENDBRANCH  10  11
ENDBRANCH   6  10
BRANCH   3  20
ATOM     20  C   UNL     1       2.850  -2.471  -0.038  0.00  0.00    -0.047 C 
BRANCH  20  21
ATOM     21  N   UNL     1       1.462  -1.969  -0.022  0.00  0.00    +0.383 N 
ATOM     22  H   UNL     1       0.987  -2.316   0.819  0.00  0.00    -0.085 HD
ATOM     23  H   UNL     1       0.971  -2.307  -0.858  0.00  0.00    -0.085 HD
BRANCH  21  24
ATOM     24  C   UNL     1       1.451  -0.494  -0.015  0.00  0.00    -0.063 C 
BRANCH  24  25
ATOM     25  C   UNL     1       0.002  -0.004   0.002  0.00  0.00    +0.085 C 
BRANCH  25  26
ATOM     26  N   UNL     1      -0.018   1.461   0.010  0.00  0.00    -0.312 N 
ATOM     27  C   UNL     1      -1.194   2.119   0.019  0.00  0.00    +0.269 C 
ATOM     28  O   UNL     1      -2.238   1.497   0.021  0.00  0.00    -0.268 OA
ATOM     29  H   UNL     1       0.816   1.957   0.005  0.00  0.00    +0.149 HD
BRANCH  27  30
ATOM     30  C   UNL     1      -1.214   3.600   0.027  0.00  0.00    +0.209 A 
ATOM     31  C   UNL     1      -2.381   4.511   0.038  0.00  0.00    +0.192 A 
ATOM     32  N   UNL     1      -1.818   5.697   0.042  0.00  0.00    -0.033 NA
ATOM     33  O   UNL     1      -0.616   5.571   0.035  0.00  0.00    -0.240 OA
ATOM     34  N   UNL     1      -0.199   4.437   0.033  0.00  0.00    -0.042 NA
ATOM     35  N   UNL     1      -3.732   4.191   0.043  0.00  0.00    -0.339 N 
ATOM     36  H   UNL     1      -4.011   3.262   0.040  0.00  0.00    +0.144 HD
ATOM     37  H   UNL     1      -4.397   4.897   0.050  0.00  0.00    +0.144 HD
ENDBRANCH  27  30
ENDBRANCH  25  26
ENDBRANCH  24  25
ENDBRANCH  21  24
ENDBRANCH  20  21
ENDBRANCH   3  20
TORSDOF 11
