REMARK  Name = ZINC01866491
REMARK  14 active torsions:
REMARK  status: ('A' for Active; 'I' for Inactive)
REMARK    1  A    between atoms: C_1  and  C_2
REMARK    2  A    between atoms: C_13  and  C_14
REMARK    3  A    between atoms: C_13  and  O_16
REMARK    4  A    between atoms: C_21  and  N_26
REMARK    5  A    between atoms: C_24  and  C_25
REMARK    6  A    between atoms: N_26  and  O_27
REMARK    7  A    between atoms: O_27  and  C_28
REMARK    8  A    between atoms: C_28  and  C_29
REMARK    9  A    between atoms: N_31  and  C_32
REMARK   10  A    between atoms: C_32  and  C_34
REMARK   11  A    between atoms: C_32  and  C_46
REMARK   12  A    between atoms: C_34  and  C_36
REMARK   13  A    between atoms: C_34  and  O_45
REMARK   14  A    between atoms: C_40  and  N_42
REMARK                            x       y       z     vdW  Elec       q    Type
REMARK                         _______ _______ _______ _____ _____    ______ ____
ROOT
ATOM      1  N   UNK A   0      -2.414   3.812   6.468  0.00  0.00    -0.266 N 
ATOM      2  H   UNK A   0      -1.946   3.768   7.316  0.00  0.00    +0.194 HD
ENDROOT
BRANCH   1  17
ATOM      3  C   UNK A   0      -0.019   1.526   0.010  0.00  0.00    +0.015 C 
ATOM      4  C   UNK A   0       0.002  -0.004   0.002  0.00  0.00    +0.011 C 
ATOM      5  C   UNK A   0      -1.415  -0.542   0.089  0.00  0.00    +0.011 C 
ATOM      6  C   UNK A   0      -2.065   0.119   1.312  0.00  0.00    +0.005 C 
ATOM      7  C   UNK A   0      -1.285  -0.137   2.600  0.00  0.00    +0.003 C 
ATOM      8  C   UNK A   0       0.195   0.227   2.472  0.00  0.00    -0.003 C 
ATOM      9  C   UNK A   0       0.750  -0.531   1.254  0.00  0.00    +0.002 C 
ATOM     10  C   UNK A   0       2.208  -0.206   0.908  0.00  0.00    +0.008 C 
ATOM     11  C   UNK A   0       2.301  -0.586  -0.595  0.00  0.00    +0.049 C 
ATOM     12  C   UNK A   0       0.859  -0.507  -1.156  0.00  0.00    +0.132 C 
ATOM     13  C   UNK A   0       0.996  -0.198   3.698  0.00  0.00    +0.008 C 
ATOM     14  C   UNK A   0       0.176  -0.125   4.979  0.00  0.00    +0.031 C 
ATOM     15  C   UNK A   0      -0.920   0.896   4.818  0.00  0.00    -0.061 C 
ATOM     16  C   UNK A   0      -1.013   1.930   5.639  0.00  0.00    +0.027 C 
ATOM     17  C   UNK A   0      -2.079   2.930   5.438  0.00  0.00    +0.057 C 
ATOM     18  C   UNK A   0      -2.723   2.988   4.270  0.00  0.00    +0.001 C 
ATOM     19  C   UNK A   0      -2.347   2.055   3.149  0.00  0.00    +0.040 C 
ATOM     20  C   UNK A   0      -1.917   0.723   3.705  0.00  0.00    -0.004 C 
ATOM     21  C   UNK A   0      -3.149   0.012   4.268  0.00  0.00    +0.016 C 
BRANCH  12  22
ATOM     22  C   UNK A   0       0.802   0.439  -2.282  0.00  0.00    -0.070 C 
ATOM     23  C   UNK A   0       0.756   1.194  -3.180  0.00  0.00    +0.007 C 
ENDBRANCH  12  22
BRANCH  12  24
ATOM     24  O   UNK A   0       0.418  -1.801  -1.572  0.00  0.00    -0.376 OA
ATOM     25  H   UNK A   0       0.927  -2.172  -2.307  0.00  0.00    +0.211 HD
ENDBRANCH  12  24
ENDBRANCH   1  17
BRANCH   1  26
ATOM     26  O   UNK A   0      -3.438   4.771   6.273  0.00  0.00    -0.265 OA
BRANCH  26  27
ATOM     27  C   UNK A   0      -3.675   5.607   7.407  0.00  0.00    +0.288 C 
BRANCH  27  28
ATOM     28  C   UNK A   0      -4.778   6.584   7.090  0.00  0.00    +0.242 C 
ATOM     29  O   UNK A   0      -5.308   6.566   6.000  0.00  0.00    -0.273 OA
ATOM     30  N   UNK A   1      -5.174   7.477   8.018  0.00  0.00    -0.298 N 
ATOM     31  H   UNK A   1      -4.750   7.491   8.890  0.00  0.00    +0.150 HD
BRANCH  30  32
ATOM     32  C   UNK A   1      -6.246   8.427   7.710  0.00  0.00    +0.220 C 
BRANCH  32  33
ATOM     33  C   UNK A   1      -7.582   7.779   7.972  0.00  0.00    +0.379 C 
ATOM     34  O   UNK A   1      -7.636   6.705   8.546  0.00  0.00    -0.244 OA
ATOM     35  O   UNK A   1      -8.607   8.329   7.609  0.00  0.00    -0.244 OA
ENDBRANCH  32  33
BRANCH  32  36
ATOM     36  C   UNK A   1      -6.099   9.667   8.594  0.00  0.00    +0.176 C 
BRANCH  36  37
ATOM     37  C   UNK A   1      -7.125  10.695   8.193  0.00  0.00    -0.015 A 
ATOM     38  C   UNK A   1      -8.402  10.639   8.721  0.00  0.00    +0.006 A 
ATOM     39  C   UNK A   1      -9.344  11.582   8.353  0.00  0.00    +0.003 A 
ATOM     40  C   UNK A   1      -9.009  12.580   7.457  0.00  0.00    +0.033 A 
ATOM     41  C   UNK A   1      -7.733  12.636   6.930  0.00  0.00    +0.127 A 
ATOM     42  C   UNK A   1      -6.790  11.696   7.301  0.00  0.00    +0.039 A 
BRANCH  41  43
ATOM     43  N   UNK A   1      -7.375  13.705   5.970  0.00  0.00    +0.056 N 
ATOM     44  O   UNK A   1      -8.199  14.528   5.648  0.00  0.00    -0.126 OA
ATOM     45  O   UNK A   1      -6.258  13.753   5.508  0.00  0.00    -0.126 OA
ENDBRANCH  41  43
ENDBRANCH  36  37
BRANCH  36  46
ATOM     46  O   UNK A   1      -6.298   9.304   9.961  0.00  0.00    -0.385 OA
ATOM     47  H   UNK A   1      -7.168   8.924  10.145  0.00  0.00    +0.210 HD
ENDBRANCH  36  46
ENDBRANCH  32  36
ENDBRANCH  30  32
ENDBRANCH  27  28
ENDBRANCH  26  27
ENDBRANCH   1  26
TORSDOF 12
