REMARK  Name = ZINC09883885
REMARK  9 active torsions:
REMARK  status: ('A' for Active; 'I' for Inactive)
REMARK    1  A    between atoms: C_1  and  C_2
REMARK    2  A    between atoms: C_2  and  C_4
REMARK    3  A    between atoms: C_2  and  S_17
REMARK    4  A    between atoms: N_6  and  C_7
REMARK    5  A    between atoms: C_10  and  S_13
REMARK    6  A    between atoms: S_13  and  N_16
REMARK    7  A    between atoms: S_17  and  C_18
REMARK    8  A    between atoms: C_21  and  C_24
REMARK    9  A    between atoms: N_22  and  N_23
REMARK                            x       y       z     vdW  Elec       q    Type
REMARK                         _______ _______ _______ _____ _____    ______ ____
ROOT
ATOM      1  C   UNL     1      -1.306  -2.684  -3.250  0.00  0.00    +0.029 C 
ATOM      2  C   UNL     1      -0.019  -1.930  -3.592  0.00  0.00    +0.137 C 
ENDROOT
BRANCH   2   3
ATOM      3  C   UNL     1       0.072  -1.742  -5.084  0.00  0.00    +0.230 C 
ATOM      4  O   UNL     1      -0.238  -0.680  -5.582  0.00  0.00    -0.274 OA
ATOM      5  N   UNL     1       0.497  -2.755  -5.866  0.00  0.00    -0.285 N 
ATOM      6  H   UNL     1       0.849  -3.691  -5.410  0.00  0.00    +0.155 HD
BRANCH   5   7
ATOM      7  C   UNL     1       0.489  -2.614  -7.258  0.00  0.00    +0.034 A 
ATOM      8  C   UNL     1       0.210  -3.708  -8.066  0.00  0.00    +0.025 A 
ATOM      9  C   UNL     1       0.197  -3.564  -9.440  0.00  0.00    +0.030 A 
ATOM     10  C   UNL     1       0.474  -2.336 -10.011  0.00  0.00    +0.105 A 
ATOM     11  C   UNL     1       0.759  -1.246  -9.209  0.00  0.00    +0.030 A 
ATOM     12  C   UNL     1       0.767  -1.381  -7.835  0.00  0.00    +0.025 A 
BRANCH  10  13
ATOM     13  S   UNL     1       0.464  -2.159 -11.764  0.00  0.00    +0.056 S 
ATOM     14  O   UNL     1      -0.365  -3.194 -12.272  0.00  0.00    -0.153 OA
ATOM     15  O   UNL     1       0.218  -0.785 -12.032  0.00  0.00    -0.153 OA
BRANCH  13  16
ATOM     16  N   UNL     1       1.999  -2.477 -12.297  0.00  0.00    -0.204 NA
ATOM     17  H   UNL     1       2.035  -2.377 -13.392  0.00  0.00    +0.144 HD
ATOM     18  H   UNL     1       2.280  -3.502 -12.013  0.00  0.00    +0.144 HD
ENDBRANCH  13  16
ENDBRANCH  10  13
ENDBRANCH   5   7
ENDBRANCH   2   3
BRANCH   2  19
ATOM     19  S   UNL     1      -0.034  -0.312  -2.780  0.00  0.00    -0.072 S 
BRANCH  19  20
ATOM     20  C   UNL     1       0.009  -0.816  -1.092  0.00  0.00    +0.209 A 
ATOM     21  N   UNL     1       0.044  -2.053  -0.648  0.00  0.00    -0.121 NA
ATOM     22  N   UNL     1       0.063  -2.060   0.636  0.00  0.00    -0.127 NA
ATOM     23  C   UNL     1       0.047  -0.829   1.092  0.00  0.00    +0.182 A 
ATOM     24  N   UNL     1       0.015   0.005  -0.001  0.00  0.00    -0.224 N 
BRANCH  23  25
ATOM     25  C   UNL     1       0.059  -0.417   2.512  0.00  0.00    +0.021 A 
ATOM     26  C   UNL     1       0.357   0.902   2.856  0.00  0.00    +0.011 A 
ATOM     27  C   UNL     1       0.362   1.281   4.183  0.00  0.00    +0.001 A 
ATOM     28  C   UNL     1       0.083   0.353   5.171  0.00  0.00    +0.000 A 
ATOM     29  C   UNL     1      -0.208  -0.957   4.837  0.00  0.00    +0.001 A 
ATOM     30  C   UNL     1      -0.222  -1.348   3.514  0.00  0.00    +0.011 A 
ENDBRANCH  23  25
BRANCH  24  31
ATOM     31  N   UNL     1      -0.010   1.371   0.004  0.00  0.00    -0.295 N 
ATOM     32  H   UNL     1      -0.002   1.918   0.958  0.00  0.00    +0.163 HD
ATOM     33  H   UNL     1      -0.040   1.924  -0.947  0.00  0.00    +0.163 HD
ENDBRANCH  24  31
ENDBRANCH  19  20
ENDBRANCH   2  19
TORSDOF 8
