REMARK  Name = ZINC18406046
REMARK  7 active torsions:
REMARK  status: ('A' for Active; 'I' for Inactive)
REMARK    1  A    between atoms: C_1  and  C_2
REMARK    2  A    between atoms: C_2  and  C_4
REMARK    3  A    between atoms: C_2  and  O_15
REMARK    4  A    between atoms: N_6  and  C_7
REMARK    5  A    between atoms: O_15  and  C_16
REMARK    6  A    between atoms: C_16  and  C_18
REMARK    7  A    between atoms: C_23  and  N_24
REMARK                            x       y       z     vdW  Elec       q    Type
REMARK                         _______ _______ _______ _____ _____    ______ ____
ROOT
ATOM      1  C   UNL     1       2.410  -0.408  -1.176  0.00  0.00    +0.062 C 
ATOM      2  C   UNL     1       2.201   0.458   0.068  0.00  0.00    +0.259 C 
ENDROOT
BRANCH   2   3
ATOM      3  C   UNL     1       0.873   1.164  -0.029  0.00  0.00    +0.258 C 
ATOM      4  O   UNL     1       0.834   2.373  -0.114  0.00  0.00    -0.271 OA
ATOM      5  N   UNL     1      -0.271   0.451  -0.021  0.00  0.00    -0.280 N 
ATOM      6  H   UNL     1      -0.239  -0.518  -0.015  0.00  0.00    +0.155 HD
BRANCH   5   7
ATOM      7  C   UNL     1      -1.507   1.111  -0.027  0.00  0.00    +0.069 A 
ATOM      8  C   UNL     1      -1.654   2.305  -0.719  0.00  0.00    +0.027 A 
ATOM      9  C   UNL     1      -2.874   2.954  -0.723  0.00  0.00    +0.017 A 
ATOM     10  C   UNL     1      -3.949   2.415  -0.039  0.00  0.00    +0.021 A 
ATOM     11  C   UNL     1      -3.806   1.225   0.653  0.00  0.00    +0.055 A 
ATOM     12  C   UNL     1      -2.589   0.568   0.656  0.00  0.00    +0.146 A 
ATOM     13  F   UNL     1      -2.451  -0.597   1.326  0.00  0.00    -0.204 F 
ATOM     14 BR   UNL     1      -5.616   3.307  -0.047  0.00  0.00    -0.050 Br
ENDBRANCH   5   7
ENDBRANCH   2   3
BRANCH   2  15
ATOM     15  O   UNL     1       3.266   1.440   0.158  0.00  0.00    -0.449 OA
BRANCH  15  16
ATOM     16  C   UNL     1       4.371   1.084   0.842  0.00  0.00    +0.342 C 
ATOM     17  O   UNL     1       4.442  -0.018   1.350  0.00  0.00    -0.245 OA
BRANCH  16  18
ATOM     18  C   UNL     1       5.492   2.030   0.975  0.00  0.00    +0.081 A 
ATOM     19  C   UNL     1       5.371   3.337   0.494  0.00  0.00    +0.017 A 
ATOM     20  C   UNL     1       6.422   4.217   0.622  0.00  0.00    +0.002 A 
ATOM     21  C   UNL     1       7.604   3.814   1.226  0.00  0.00    +0.022 A 
ATOM     22  C   UNL     1       7.740   2.528   1.707  0.00  0.00    +0.062 A 
ATOM     23  C   UNL     1       6.687   1.626   1.592  0.00  0.00    +0.057 A 
ATOM     24 CL   UNL     1       9.224   2.037   2.462  0.00  0.00    -0.082 Cl
BRANCH  23  25
ATOM     25  N   UNL     1       6.819   0.333   2.079  0.00  0.00    -0.356 N 
ATOM     26  H   UNL     1       6.060  -0.271   2.065  0.00  0.00    +0.142 HD
ATOM     27  H   UNL     1       7.671   0.033   2.434  0.00  0.00    +0.142 HD
ENDBRANCH  23  25
ENDBRANCH  16  18
ENDBRANCH  15  16
ENDBRANCH   2  15
TORSDOF 6
