REMARK  Name = ZINC66122820
REMARK  12 active torsions:
REMARK  status: ('A' for Active; 'I' for Inactive)
REMARK    1  A    between atoms: C_1  and  C_2
REMARK    2  A    between atoms: C_2  and  C_4
REMARK    3  A    between atoms: C_2  and  N_21
REMARK    4  A    between atoms: C_4  and  C_5
REMARK    5  A    between atoms: N_7  and  N_8
REMARK    6  A    between atoms: N_8  and  C_9
REMARK    7  A    between atoms: C_9  and  N_11
REMARK    8  A    between atoms: N_11  and  C_12
REMARK    9  A    between atoms: C_17  and  C_18
REMARK   10  A    between atoms: C_18  and  C_19
REMARK   11  A    between atoms: C_18  and  C_20
REMARK   12  A    between atoms: C_22  and  C_24
REMARK                            x       y       z     vdW  Elec       q    Type
REMARK                         _______ _______ _______ _____ _____    ______ ____
ROOT
ATOM      1  C   UNL     1       0.225  -1.790   1.713  0.00  0.00    +0.231 C 
ATOM      2  O   UNL     1      -0.158  -2.338   0.701  0.00  0.00    -0.274 OA
ATOM      3  N   UNL     1       0.897  -2.493   2.647  0.00  0.00    -0.235 N 
ATOM      4  H   UNL     1       1.203  -2.054   3.457  0.00  0.00    +0.173 HD
ENDROOT
BRANCH   3   5
ATOM      5  N   UNL     1       1.152  -3.856   2.449  0.00  0.00    -0.246 N 
ATOM      6  H   UNL     1       0.846  -4.294   1.640  0.00  0.00    +0.172 HD
BRANCH   5   7
ATOM      7  C   UNL     1       1.823  -4.558   3.383  0.00  0.00    +0.151 C 
ATOM      8  S   UNL     1       2.136  -6.224   3.142  0.00  0.00    -0.017 S 
BRANCH   7   9
ATOM      9  N   UNL     1       2.249  -3.949   4.508  0.00  0.00    -0.296 N 
ATOM     10  H   UNL     1       2.143  -2.990   4.610  0.00  0.00    +0.154 HD
BRANCH   9  11
ATOM     11  C   UNL     1       2.844  -4.700   5.528  0.00  0.00    +0.036 A 
ATOM     12  C   UNL     1       2.279  -5.905   5.924  0.00  0.00    +0.023 A 
ATOM     13  C   UNL     1       2.868  -6.644   6.931  0.00  0.00    +0.002 A 
ATOM     14  C   UNL     1       4.019  -6.184   7.545  0.00  0.00    +0.000 A 
ATOM     15  C   UNL     1       4.584  -4.984   7.153  0.00  0.00    +0.006 A 
ATOM     16  C   UNL     1       4.003  -4.244   6.142  0.00  0.00    -0.024 A 
BRANCH  16  17
ATOM     17  C   UNL     1       4.622  -2.940   5.710  0.00  0.00    +0.015 C 
ATOM     18  C   UNL     1       4.638  -1.968   6.892  0.00  0.00    +0.012 C 
ATOM     19  C   UNL     1       6.055  -3.188   5.235  0.00  0.00    +0.012 C 
ENDBRANCH  16  17
ENDBRANCH   9  11
ENDBRANCH   7   9
ENDBRANCH   5   7
ENDBRANCH   3   5
BRANCH   1  20
ATOM     20  C   UNL     1      -0.049  -0.324   1.926  0.00  0.00    +0.119 C 
BRANCH  20  22
ATOM     21  C   UNL     1      -1.208   1.685   0.997  0.00  0.00    +0.028 C 
ATOM     22  C   UNL     1      -0.820   0.230   0.726  0.00  0.00    +0.079 C 
BRANCH  22  23
ATOM     23  N   UNL     1       0.024   0.163  -0.469  0.00  0.00    -0.308 N 
ATOM     24  C   UNL     1      -0.542   0.104  -1.691  0.00  0.00    +0.244 C 
ATOM     25  O   UNL     1      -1.752   0.107  -1.801  0.00  0.00    -0.270 OA
ATOM     26  H   UNL     1       0.990   0.162  -0.382  0.00  0.00    +0.149 HD
BRANCH  24  27
ATOM     27  C   UNL     1       0.310   0.037  -2.898  0.00  0.00    +0.037 A 
ATOM     28  C   UNL     1       1.700   0.029  -2.775  0.00  0.00    +0.013 A 
ATOM     29  C   UNL     1       2.489  -0.035  -3.905  0.00  0.00    +0.001 A 
ATOM     30  C   UNL     1       1.905  -0.089  -5.158  0.00  0.00    +0.000 A 
ATOM     31  C   UNL     1       0.528  -0.081  -5.287  0.00  0.00    +0.001 A 
ATOM     32  C   UNL     1      -0.273  -0.024  -4.165  0.00  0.00    +0.013 A 
ENDBRANCH  24  27
ENDBRANCH  22  23
ENDBRANCH  20  22
ENDBRANCH   1  20
TORSDOF 9
