REMARK  Name = ZINC12347599
REMARK  9 active torsions:
REMARK  status: ('A' for Active; 'I' for Inactive)
REMARK    1  A    between atoms: C_1  and  C_2
REMARK    2  A    between atoms: C_2  and  N_3
REMARK    3  A    between atoms: N_3  and  C_4
REMARK    4  A    between atoms: N_3  and  C_6
REMARK    5  A    between atoms: C_4  and  C_5
REMARK    6  A    between atoms: C_9  and  C_12
REMARK    7  A    between atoms: C_19  and  O_20
REMARK    8  A    between atoms: C_27  and  C_29
REMARK    9  A    between atoms: C_27  and  C_30
REMARK                            x       y       z     vdW  Elec       q    Type
REMARK                         _______ _______ _______ _____ _____    ______ ____
ROOT
ATOM      1  C   UNL     1       2.490   1.044  -0.016  0.00  0.00    +0.092 C 
ATOM      2  C   UNL     1       3.284   1.411   1.205  0.00  0.00    +0.067 A 
ATOM      3  C   UNL     1       4.378   2.233   1.150  0.00  0.00    +0.126 A 
ATOM      4  N   UNL     1       4.857   2.365   2.401  0.00  0.00    -0.260 N 
ATOM      5  H   UNL     1       5.650   2.910   2.675  0.00  0.00    +0.190 HD
ATOM      6  N   UNL     1       4.043   1.602   3.254  0.00  0.00    -0.134 NA
ATOM      7  C   UNL     1       3.102   1.032   2.532  0.00  0.00    +0.237 A 
ATOM      8  N   UNL     1       4.820   2.770  -0.054  0.00  0.00    -0.303 N 
ATOM      9  C   UNL     1       4.346   2.230  -1.223  0.00  0.00    +0.017 C 
ATOM     10  C   UNL     1       3.264   1.422  -1.260  0.00  0.00    +0.024 C 
ATOM     11  C   UNL     1       2.801   0.891  -2.478  0.00  0.00    +0.162 C 
ATOM     12  O   UNL     1       1.829   0.162  -2.476  0.00  0.00    -0.292 OA
ATOM     13  C   UNL     1       3.482   1.204  -3.781  0.00  0.00    +0.086 C 
ATOM     14  C   UNL     1       4.139   2.585  -3.676  0.00  0.00    -0.023 C 
ATOM     15  C   UNL     1       5.101   2.571  -2.488  0.00  0.00    +0.058 C 
ATOM     16  C   UNL     1       3.064   3.652  -3.458  0.00  0.00    +0.011 C 
ATOM     17  C   UNL     1       4.912   2.888  -4.962  0.00  0.00    +0.011 C 
ATOM     18  H   UNL     1       5.448   3.509  -0.067  0.00  0.00    +0.153 HD
ENDROOT
BRANCH   1  22
ATOM     19  C   UNL     1      -1.236   3.138   0.031  0.00  0.00    +0.030 A 
ATOM     20  C   UNL     1      -1.218   1.749   0.017  0.00  0.00    +0.023 A 
ATOM     21  C   UNL     1      -0.013   1.076   0.008  0.00  0.00    +0.006 A 
ATOM     22  C   UNL     1       1.176   1.783   0.000  0.00  0.00    -0.035 A 
ATOM     23  C   UNL     1       1.162   3.166   0.008  0.00  0.00    +0.006 A 
ATOM     24  C   UNL     1      -0.040   3.845   0.024  0.00  0.00    +0.023 A 
BRANCH  19  25
ATOM     25  N   UNL     1      -2.454   3.822   0.046  0.00  0.00    -0.330 N 
BRANCH  25  27
ATOM     26  C   UNL     1      -4.139   2.807   1.499  0.00  0.00    +0.024 C 
ATOM     27  C   UNL     1      -3.714   3.075   0.054  0.00  0.00    +0.102 C 
ENDBRANCH  25  27
BRANCH  25  28
ATOM     28  C   UNL     1      -2.471   5.287   0.054  0.00  0.00    +0.102 C 
ATOM     29  C   UNL     1      -2.490   5.806  -1.385  0.00  0.00    +0.024 C 
ENDBRANCH  25  28
ENDBRANCH  19  25
ENDBRANCH   1  22
BRANCH   7  30
ATOM     30  O   UNL     1       2.122   0.215   3.001  0.00  0.00    -0.491 OA
ATOM     31  H   UNL     1       2.222   0.108   3.990  0.00  0.00    +0.294 HD
ENDBRANCH   7  30
TORSDOF 5
