REMARK  Name = ZINC03052030
REMARK  8 active torsions:
REMARK  status: ('A' for Active; 'I' for Inactive)
REMARK    1  A    between atoms: C_4  and  C_7
REMARK    2  A    between atoms: C_7  and  S_8
REMARK    3  A    between atoms: S_8  and  C_9
REMARK    4  A    between atoms: C_9  and  C_10
REMARK    5  A    between atoms: C_10  and  N_11
REMARK    6  A    between atoms: C_12  and  C_14
REMARK    7  A    between atoms: N_23  and  C_26
REMARK    8  A    between atoms: C_26  and  C_27
REMARK                            x       y       z     vdW  Elec       q    Type
REMARK                         _______ _______ _______ _____ _____    ______ ____
ROOT
ATOM      1  C   UNL     1      -1.183   3.483   0.033  0.00  0.00    +0.039 A 
ATOM      2  C   UNL     1       0.036   4.167   0.024  0.00  0.00    +0.014 A 
ATOM      3  C   UNL     1       1.223   3.470   0.009  0.00  0.00    +0.016 A 
ATOM      4  C   UNL     1       1.206   2.077   0.002  0.00  0.00    +0.065 A 
ATOM      5  C   UNL     1      -0.017   1.383   0.010  0.00  0.00    +0.080 A 
ATOM      6  C   UNL     1      -1.208   2.091   0.030  0.00  0.00    +0.041 A 
ATOM      7  N   UNL     1       0.002  -0.004   0.002  0.00  0.00    -0.222 NA
ATOM      8  C   UNL     1       1.167  -0.674  -0.012  0.00  0.00    +0.183 A 
ATOM      9  S   UNL     1       1.127  -2.386  -0.021  0.00  0.00    -0.011 SA
ATOM     10  N   UNL     1       2.360  -0.059  -0.020  0.00  0.00    -0.282 N 
ATOM     11  C   UNL     1       2.454   1.288  -0.013  0.00  0.00    +0.263 A 
ATOM     12  O   UNL     1       3.539   1.837  -0.021  0.00  0.00    -0.267 OA
ENDROOT
BRANCH   1  14
ATOM     13  N   UNL     1      -2.434   5.590   0.056  0.00  0.00    -0.311 N 
ATOM     14  C   UNL     1      -2.454   4.243   0.049  0.00  0.00    +0.244 C 
ATOM     15  O   UNL     1      -3.516   3.651   0.057  0.00  0.00    -0.270 OA
ATOM     16  H   UNL     1      -1.473   6.126   0.050  0.00  0.00    +0.149 HD
BRANCH  13  17
ATOM     17  C   UNL     1      -3.691   6.342   0.073  0.00  0.00    +0.115 C 
BRANCH  17  18
ATOM     18  C   UNL     1      -3.389   7.842   0.078  0.00  0.00    +0.088 C 
BRANCH  18  19
ATOM     19  S   UNL     1      -4.946   8.773   0.098  0.00  0.00    -0.155 S 
BRANCH  19  20
ATOM     20  C   UNL     1      -4.420  10.508   0.102  0.00  0.00    +0.104 C 
BRANCH  20  24
ATOM     21  C   UNL     1      -7.860  13.040   0.150  0.00  0.00    +0.000 A 
ATOM     22  C   UNL     1      -7.291  12.624   1.339  0.00  0.00    +0.000 A 
ATOM     23  C   UNL     1      -6.178  11.805   1.324  0.00  0.00    +0.004 A 
ATOM     24  C   UNL     1      -5.633  11.401   0.119  0.00  0.00    -0.038 A 
ATOM     25  C   UNL     1      -6.199  11.822  -1.070  0.00  0.00    +0.004 A 
ATOM     26  C   UNL     1      -7.315  12.637  -1.055  0.00  0.00    +0.000 A 
ENDBRANCH  20  24
ENDBRANCH  19  20
ENDBRANCH  18  19
ENDBRANCH  17  18
ENDBRANCH  13  17
ENDBRANCH   1  14
BRANCH  10  27
ATOM     27  C   UNL     1       3.583  -0.865  -0.035  0.00  0.00    +0.162 C 
BRANCH  27  28
ATOM     28  C   UNL     1       3.990  -1.134  -1.461  0.00  0.00    -0.024 A 
ATOM     29  C   UNL     1       4.835  -0.257  -2.114  0.00  0.00    +0.009 A 
ATOM     30  C   UNL     1       5.212  -0.499  -3.422  0.00  0.00    +0.050 A 
ATOM     31  C   UNL     1       4.742  -1.624  -4.082  0.00  0.00    +0.166 A 
ATOM     32  C   UNL     1       3.890  -2.507  -3.423  0.00  0.00    +0.167 A 
ATOM     33  C   UNL     1       3.522  -2.261  -2.111  0.00  0.00    +0.055 A 
ATOM     34  O   UNL     1       3.572  -3.524  -4.277  0.00  0.00    -0.453 OA
ATOM     35  C   UNL     1       4.558  -3.470  -5.324  0.00  0.00    +0.466 C 
ATOM     36  O   UNL     1       4.957  -2.086  -5.348  0.00  0.00    -0.453 OA
ENDBRANCH  27  28
ENDBRANCH  10  27
TORSDOF 8
