REMARK  Name = ZINC36583025
REMARK  15 active torsions:
REMARK  status: ('A' for Active; 'I' for Inactive)
REMARK    1  A    between atoms: C_1  and  C_2
REMARK    2  A    between atoms: C_2  and  C_3
REMARK    3  A    between atoms: C_3  and  C_5
REMARK    4  A    between atoms: C_3  and  C_11
REMARK    5  A    between atoms: N_13  and  C_14
REMARK    6  A    between atoms: N_13  and  C_34
REMARK    7  A    between atoms: C_14  and  C_16
REMARK    8  A    between atoms: C_14  and  C_25
REMARK    9  A    between atoms: C_17  and  O_24
REMARK   10  A    between atoms: C_19  and  O_23
REMARK   11  A    between atoms: C_21  and  O_22
REMARK   12  A    between atoms: N_27  and  C_28
REMARK   13  A    between atoms: C_34  and  C_35
REMARK   14  A    between atoms: C_34  and  C_36
REMARK   15  A    between atoms: C_34  and  C_37
REMARK                            x       y       z     vdW  Elec       q    Type
REMARK                         _______ _______ _______ _____ _____    ______ ____
ROOT
ATOM      1  C   UNL     1      -0.617  -4.340  -1.058  0.00  0.00    +0.200 C 
ENDROOT
BRANCH   1   2
ATOM      2  C   UNL     1      -0.926  -5.100   0.206  0.00  0.00    +0.065 A 
ATOM      3  C   UNL     1      -1.686  -4.507   1.204  0.00  0.00    +0.129 A 
ATOM      4  C   UNL     1      -1.971  -5.207   2.367  0.00  0.00    +0.091 A 
ATOM      5  C   UNL     1      -1.497  -6.500   2.532  0.00  0.00    +0.124 A 
ATOM      6  C   UNL     1      -0.738  -7.093   1.534  0.00  0.00    +0.091 A 
ATOM      7  C   UNL     1      -0.457  -6.395   0.369  0.00  0.00    +0.129 A 
BRANCH   7   8
ATOM      8  O   UNL     1       0.283  -6.978  -0.611  0.00  0.00    -0.506 OA
ATOM      9  H   UNL     1       1.235  -6.832  -0.524  0.00  0.00    +0.292 HD
ENDBRANCH   7   8
BRANCH   5  10
ATOM     10  O   UNL     1      -1.775  -7.185   3.672  0.00  0.00    -0.507 OA
ATOM     11  H   UNL     1      -2.592  -7.701   3.631  0.00  0.00    +0.292 HD
ENDBRANCH   5  10
BRANCH   3  12
ATOM     12  O   UNL     1      -2.150  -3.241   1.042  0.00  0.00    -0.506 OA
ATOM     13  H   UNL     1      -3.051  -3.194   0.694  0.00  0.00    +0.292 HD
ENDBRANCH   3  12
ENDBRANCH   1   2
BRANCH   1  14
ATOM     14  C   UNL     1      -1.902  -3.867  -1.687  0.00  0.00    +0.239 C 
ATOM     15  O   UNL     1      -2.103  -2.680  -1.836  0.00  0.00    -0.273 OA
ATOM     16  N   UNL     1      -2.827  -4.763  -2.084  0.00  0.00    -0.311 N 
ATOM     17  H   UNL     1      -2.666  -5.712  -1.964  0.00  0.00    +0.149 HD
BRANCH  16  18
ATOM     18  C   UNL     1      -4.077  -4.303  -2.696  0.00  0.00    +0.073 C 
ATOM     19  C   UNL     1      -5.087  -3.964  -1.598  0.00  0.00    +0.022 C 
ATOM     20  C   UNL     1      -6.392  -3.484  -2.237  0.00  0.00    +0.002 C 
ATOM     21  C   UNL     1      -6.960  -4.589  -3.130  0.00  0.00    +0.000 C 
ATOM     22  C   UNL     1      -5.949  -4.928  -4.227  0.00  0.00    +0.002 C 
ATOM     23  C   UNL     1      -4.644  -5.408  -3.588  0.00  0.00    +0.022 C 
ENDBRANCH  16  18
ENDBRANCH   1  14
BRANCH   1  26
ATOM     24  C   UNL     1       0.383  -2.800   0.544  0.00  0.00    +0.224 C 
ATOM     25  O   UNL     1      -0.099  -3.461   1.439  0.00  0.00    -0.275 OA
ATOM     26  N   UNL     1       0.225  -3.184  -0.738  0.00  0.00    -0.280 N 
BRANCH  26  27
ATOM     27  C   UNL     1       0.895  -2.447  -1.812  0.00  0.00    +0.030 C 
ATOM     28  C   UNL     1       2.128  -1.736  -1.251  0.00  0.00    +0.031 C 
ATOM     29  C   UNL     1       1.324  -3.422  -2.910  0.00  0.00    +0.031 C 
ATOM     30  C   UNL     1      -0.068  -1.412  -2.398  0.00  0.00    +0.031 C 
ENDBRANCH  26  27
BRANCH  24  31
ATOM     31  C   UNL     1       1.159  -1.548   0.865  0.00  0.00    +0.105 C 
BRANCH  31  32
ATOM     32  C   UNL     1       1.353  -1.446   2.355  0.00  0.00    -0.036 A 
ATOM     33  C   UNL     1       0.255  -1.387   3.193  0.00  0.00    +0.004 A 
ATOM     34  C   UNL     1       0.432  -1.293   4.560  0.00  0.00    +0.000 A 
ATOM     35  C   UNL     1       1.709  -1.258   5.091  0.00  0.00    +0.000 A 
ATOM     36  C   UNL     1       2.807  -1.317   4.253  0.00  0.00    +0.000 A 
ATOM     37  C   UNL     1       2.629  -1.416   2.886  0.00  0.00    +0.004 A 
ENDBRANCH  31  32
BRANCH  31  39
ATOM     38  C   UNL     1       1.092   0.949   0.829  0.00  0.00    +0.005 C 
ATOM     39  C   UNL     1       0.385  -0.326   0.365  0.00  0.00    +0.014 C 
ENDBRANCH  31  39
ENDBRANCH  24  31
ENDBRANCH   1  26
TORSDOF 11
