REMARK  Name = ZINC54496900
REMARK  3 active torsions:
REMARK  status: ('A' for Active; 'I' for Inactive)
REMARK    1  A    between atoms: C_1  and  S_2
REMARK    2  A    between atoms: S_2  and  C_3
REMARK    3  A    between atoms: C_3  and  C_4
REMARK                            x       y       z     vdW  Elec       q    Type
REMARK                         _______ _______ _______ _____ _____    ______ ____
ROOT
ATOM      1  C   UNL     1       0.964  -1.921  -1.666  0.00  0.00    +0.185 A 
ATOM      2  N   UNL     1       1.956  -2.683  -1.195  0.00  0.00    -0.154 NA
ATOM      3  C   UNL     1       1.728  -3.943  -1.481  0.00  0.00    +0.462 A 
ATOM      4  O   UNL     1       2.522  -4.987  -1.156  0.00  0.00    -0.219 OA
ATOM      5  O   UNL     1       0.567  -4.014  -2.151  0.00  0.00    -0.294 OA
ATOM      6  N   UNL     1       0.086  -2.683  -2.254  0.00  0.00    -0.057 NA
ENDROOT
BRANCH   1   7
ATOM      7  C   UNL     1       0.873  -0.423  -1.533  0.00  0.00    +0.148 C 
BRANCH   7   9
ATOM      8  C   UNL     1      -0.022   1.810   0.012  0.00  0.00    +0.084 C 
ATOM      9  S   UNL     1       0.002  -0.004   0.002  0.00  0.00    -0.156 S 
ENDBRANCH   7   9
ENDBRANCH   1   7
TORSDOF 2
