REMARK  Name = ZINC63652900
REMARK  8 active torsions:
REMARK  status: ('A' for Active; 'I' for Inactive)
REMARK    1  A    between atoms: C_1  and  C_2
REMARK    2  A    between atoms: C_4  and  C_21
REMARK    3  A    between atoms: C_5  and  C_20
REMARK    4  A    between atoms: C_21  and  C_22
REMARK    5  A    between atoms: C_22  and  C_23
REMARK    6  A    between atoms: N_25  and  C_26
REMARK    7  A    between atoms: C_26  and  C_27
REMARK    8  A    between atoms: C_27  and  C_28
REMARK                            x       y       z     vdW  Elec       q    Type
REMARK                         _______ _______ _______ _____ _____    ______ ____
ROOT
ATOM      1  C   UNL     1      -0.398   1.278  -0.045  0.00  0.00    +0.035 C 
ATOM      2  C   UNL     1      -0.121  -0.226   0.011  0.00  0.00    +0.120 C 
ATOM      3  C   UNL     1       0.660  -0.664  -1.208  0.00  0.00    -0.030 C 
ATOM      4  C   UNL     1       1.807  -1.154  -0.788  0.00  0.00    +0.020 C 
ATOM      5  N   UNL     1       1.915  -1.107   0.588  0.00  0.00    -0.267 N 
ATOM      6  N   UNL     1       0.756  -0.545   1.150  0.00  0.00    -0.228 N 
ATOM      7  C   UNL     1       0.491  -0.333   2.501  0.00  0.00    +0.161 A 
ATOM      8  C   UNL     1       1.437  -0.689   3.464  0.00  0.00    +0.050 A 
ATOM      9  C   UNL     1       1.129  -0.459   4.793  0.00  0.00    +0.049 A 
ATOM     10  C   UNL     1      -0.109   0.115   5.088  0.00  0.00    +0.144 A 
ATOM     11  N   UNL     1      -0.943   0.420   4.108  0.00  0.00    -0.132 NA
ATOM     12  N   UNL     1      -0.655   0.212   2.874  0.00  0.00    -0.131 NA
ATOM     13  N   UNL     1      -0.465   0.366   6.412  0.00  0.00    -0.309 N 
ATOM     14  C   UNL     1      -1.661   1.159   6.737  0.00  0.00    +0.134 C 
ATOM     15  C   UNL     1      -2.498   0.378   7.756  0.00  0.00    +0.178 C 
ATOM     16  O   UNL     1      -1.667   0.000   8.857  0.00  0.00    -0.377 OA
ATOM     17  C   UNL     1      -0.592  -0.874   8.506  0.00  0.00    +0.178 C 
ATOM     18  C   UNL     1       0.340  -0.161   7.525  0.00  0.00    +0.134 C 
ATOM     19  C   UNL     1       2.875  -1.700  -1.700  0.00  0.00    +0.062 C 
ATOM     20  H   UNL     1       2.681  -1.419   1.095  0.00  0.00    +0.170 HD
ENDROOT
BRANCH   3  21
ATOM     21  C   UNL     1       0.207  -0.560  -2.641  0.00  0.00    +0.043 C 
BRANCH  21  22
ATOM     22  C   UNL     1      -0.645  -1.780  -2.997  0.00  0.00    +0.100 C 
BRANCH  22  23
ATOM     23  C   UNL     1      -1.099  -1.675  -4.431  0.00  0.00    +0.213 C 
ATOM     24  O   UNL     1      -0.772  -0.719  -5.102  0.00  0.00    -0.276 OA
ATOM     25  N   UNL     1      -1.867  -2.644  -4.967  0.00  0.00    -0.315 N 
ATOM     26  H   UNL     1      -2.128  -3.409  -4.430  0.00  0.00    +0.149 HD
BRANCH  25  27
ATOM     27  C   UNL     1      -2.307  -2.543  -6.360  0.00  0.00    +0.108 C 
BRANCH  27  28
ATOM     28  C   UNL     1      -3.159  -3.763  -6.716  0.00  0.00    +0.052 C 
BRANCH  28  29
ATOM     29  C   UNL     1      -3.612  -3.658  -8.149  0.00  0.00    -0.040 C 
ATOM     30  C   UNL     1      -3.021  -4.213  -9.232  0.00  0.00    -0.001 A 
ATOM     31  C   UNL     1      -1.824  -5.048  -9.392  0.00  0.00    +0.010 A 
ATOM     32  C   UNL     1      -1.474  -5.461 -10.632  0.00  0.00    +0.001 A 
ATOM     33  C   UNL     1      -2.224  -5.113 -11.764  0.00  0.00    +0.002 A 
ATOM     34  C   UNL     1      -3.335  -4.349 -11.696  0.00  0.00    +0.026 A 
ATOM     35  C   UNL     1      -3.796  -3.860 -10.443  0.00  0.00    +0.043 A 
ATOM     36  N   UNL     1      -4.825  -3.115 -10.122  0.00  0.00    -0.380 N 
ATOM     37  C   UNL     1      -4.824  -2.917  -8.668  0.00  0.00    +0.144 C 
ATOM     38  H   UNL     1      -5.481  -2.758 -10.741  0.00  0.00    +0.160 HD
ENDBRANCH  28  29
ENDBRANCH  27  28
ENDBRANCH  25  27
ENDBRANCH  22  23
ENDBRANCH  21  22
ENDBRANCH   3  21
TORSDOF 6
