REMARK  Name = ZINC35375024
REMARK  6 active torsions:
REMARK  status: ('A' for Active; 'I' for Inactive)
REMARK    1  A    between atoms: C_1  and  C_2
REMARK    2  A    between atoms: C_2  and  C_3
REMARK    3  A    between atoms: C_3  and  C_5
REMARK    4  A    between atoms: C_3  and  N_6
REMARK    5  A    between atoms: C_11  and  C_29
REMARK    6  A    between atoms: C_29  and  C_30
REMARK                            x       y       z     vdW  Elec       q    Type
REMARK                         _______ _______ _______ _____ _____    ______ ____
ROOT
ATOM      1  N   UNL     1       2.125  -0.091  -1.209  0.00  0.00    -0.239 N 
ATOM      2  C   UNL     1       2.991  -0.477  -0.226  0.00  0.00    +0.227 C 
ATOM      3  O   UNL     1       2.845  -1.387   0.561  0.00  0.00    -0.275 OA
ATOM      4  C   UNL     1       4.163   0.461  -0.323  0.00  0.00    +0.107 C 
ATOM      5  C   UNL     1       5.585  -0.102  -0.201  0.00  0.00    +0.076 C 
ATOM      6  N   UNL     1       6.365   0.769  -1.141  0.00  0.00    -0.295 NA
ATOM      7  C   UNL     1       5.416   1.254  -2.191  0.00  0.00    +0.136 C 
ATOM      8  C   UNL     1       4.133   0.594  -1.899  0.00  0.00    +0.122 C 
ATOM      9  C   UNL     1       2.716   0.714  -2.151  0.00  0.00    +0.228 C 
ATOM     10  O   UNL     1       2.170   1.379  -3.005  0.00  0.00    -0.275 OA
ATOM     11  C   UNL     1       5.338   2.758  -2.138  0.00  0.00    +0.005 A 
ATOM     12  C   UNL     1       4.911   3.647  -1.177  0.00  0.00    +0.027 A 
ATOM     13  C   UNL     1       4.957   5.008  -1.423  0.00  0.00    +0.041 A 
ATOM     14  C   UNL     1       5.434   5.472  -2.638  0.00  0.00    +0.022 A 
ATOM     15  C   UNL     1       5.863   4.584  -3.602  0.00  0.00    +0.025 A 
ATOM     16  C   UNL     1       5.819   3.212  -3.361  0.00  0.00    +0.039 A 
ATOM     17  N   UNL     1       6.193   2.133  -4.164  0.00  0.00    -0.283 N 
ATOM     18  C   UNL     1       5.989   0.951  -3.554  0.00  0.00    +0.243 C 
ATOM     19  O   UNL     1       6.221  -0.147  -4.012  0.00  0.00    -0.273 OA
ATOM     20 CL   UNL     1       4.419   6.131  -0.214  0.00  0.00    -0.084 Cl
ATOM     21  H   UNL     1       6.788   1.542  -0.651  0.00  0.00    +0.124 HD
ATOM     22  H   UNL     1       6.556   2.224  -5.059  0.00  0.00    +0.155 HD
ENDROOT
BRANCH   1  23
ATOM     23  C   UNL     1       0.718  -0.497  -1.257  0.00  0.00    +0.081 C 
ATOM     24  C   UNL     1       0.630  -2.023  -1.329  0.00  0.00    +0.028 C 
BRANCH  23  26
ATOM     25  C   UNL     1      -0.019   1.526   0.010  0.00  0.00    +0.006 C 
ATOM     26  C   UNL     1       0.002  -0.004   0.002  0.00  0.00    +0.019 C 
ENDBRANCH  23  26
ENDBRANCH   1  23
BRANCH   5  27
ATOM     27  C   UNL     1       6.103   0.039   1.232  0.00  0.00    +0.115 C 
BRANCH  27  28
ATOM     28  C   UNL     1       7.448  -0.631   1.347  0.00  0.00    +0.212 C 
ATOM     29  O   UNL     1       7.943  -1.168   0.379  0.00  0.00    -0.276 OA
ATOM     30  N   UNL     1       8.101  -0.634   2.526  0.00  0.00    -0.329 N 
ATOM     31  H   UNL     1       7.705  -0.204   3.301  0.00  0.00    +0.145 HD
ATOM     32  H   UNL     1       8.966  -1.065   2.601  0.00  0.00    +0.145 HD
ENDBRANCH  27  28
ENDBRANCH   5  27
TORSDOF 4
