REMARK  Name = ZINC35442280
REMARK  7 active torsions:
REMARK  status: ('A' for Active; 'I' for Inactive)
REMARK    1  A    between atoms: C_4  and  N_7
REMARK    2  A    between atoms: C_13  and  C_15
REMARK    3  A    between atoms: C_15  and  C_16
REMARK    4  A    between atoms: C_16  and  C_17
REMARK    5  A    between atoms: C_27  and  N_30
REMARK    6  A    between atoms: N_30  and  C_31
REMARK    7  A    between atoms: C_31  and  C_32
REMARK                            x       y       z     vdW  Elec       q    Type
REMARK                         _______ _______ _______ _____ _____    ______ ____
ROOT
ATOM      1  C   UNL     1       8.499  -5.944   0.998  0.00  0.00    -0.050 C 
ATOM      2  C   UNL     1       9.935  -6.455   1.189  0.00  0.00    +0.089 C 
ATOM      3  N   UNL     1      10.090  -7.834   0.745  0.00  0.00    -0.318 N 
ATOM      4  C   UNL     1       9.155  -8.524   0.062  0.00  0.00    +0.200 C 
ATOM      5  O   UNL     1       9.396  -9.633  -0.365  0.00  0.00    -0.278 OA
ATOM      6  C   UNL     1       7.816  -7.900  -0.160  0.00  0.00    +0.021 C 
ATOM      7  N   UNL     1       8.030  -6.433  -0.287  0.00  0.00    +0.391 N 
ATOM      8  C   UNL     1       6.767  -5.908  -0.797  0.00  0.00    -0.059 C 
ATOM      9  C   UNL     1       6.170  -7.038  -1.675  0.00  0.00    +0.036 C 
ATOM     10  C   UNL     1       7.136  -8.257  -1.490  0.00  0.00    +0.010 C 
ATOM     11  H   UNL     1      10.922  -8.286   0.955  0.00  0.00    +0.149 HD
ATOM     12  H   UNL     1       8.742  -6.268  -0.982  0.00  0.00    -0.080 HD
ENDROOT
BRANCH   9  13
ATOM     13  N   UNL     1       6.124  -6.620  -3.083  0.00  0.00    -0.311 NA
ATOM     14  H   UNL     1       5.989  -5.623  -3.160  0.00  0.00    +0.122 HD
BRANCH  13  15
ATOM     15  C   UNL     1       5.080  -7.351  -3.815  0.00  0.00    +0.116 C 
BRANCH  15  16
ATOM     16  C   UNL     1       5.063  -6.896  -5.252  0.00  0.00    -0.033 A 
ATOM     17  C   UNL     1       4.267  -5.832  -5.630  0.00  0.00    +0.008 A 
ATOM     18  C   UNL     1       4.250  -5.414  -6.947  0.00  0.00    +0.038 A 
ATOM     19  C   UNL     1       5.032  -6.063  -7.888  0.00  0.00    +0.123 A 
ATOM     20  C   UNL     1       5.829  -7.129  -7.508  0.00  0.00    +0.038 A 
ATOM     21  C   UNL     1       5.848  -7.541  -6.189  0.00  0.00    +0.008 A 
ATOM     22  F   UNL     1       5.016  -5.655  -9.177  0.00  0.00    -0.205 F 
ENDBRANCH  15  16
ENDBRANCH  13  15
ENDBRANCH   9  13
BRANCH   1  23
ATOM     23  C   UNL     1       8.486  -4.414   1.007  0.00  0.00    -0.005 C 
BRANCH  23  24
ATOM     24  C   UNL     1       8.896  -3.909   2.392  0.00  0.00    +0.094 C 
BRANCH  24  31
ATOM     25  N   UNL     1       8.508  -0.632   6.002  0.00  0.00    -0.327 N 
ATOM     26  C   UNL     1       8.041   0.089   4.810  0.00  0.00    +0.124 C 
ATOM     27  C   UNL     1       8.948  -0.277   3.629  0.00  0.00    +0.126 C 
ATOM     28  N   UNL     1       9.073  -1.740   3.568  0.00  0.00    -0.298 N 
ATOM     29  C   UNL     1       9.540  -2.462   4.761  0.00  0.00    +0.126 C 
ATOM     30  C   UNL     1       8.638  -2.095   5.940  0.00  0.00    +0.124 C 
ATOM     31  C   UNL     1       8.764  -2.409   2.439  0.00  0.00    +0.216 C 
ATOM     32  O   UNL     1       8.379  -1.803   1.462  0.00  0.00    -0.276 OA
BRANCH  25  36
ATOM     33  C   UNL     1       9.464   1.433   9.489  0.00  0.00    +0.000 A 
ATOM     34  C   UNL     1       9.480   0.050   9.480  0.00  0.00    +0.002 A 
ATOM     35  C   UNL     1       9.163  -0.638   8.325  0.00  0.00    +0.023 A 
ATOM     36  C   UNL     1       8.829   0.060   7.172  0.00  0.00    +0.030 A 
ATOM     37  C   UNL     1       8.814   1.450   7.184  0.00  0.00    +0.023 A 
ATOM     38  C   UNL     1       9.131   2.131   8.343  0.00  0.00    +0.002 A 
ENDBRANCH  25  36
ENDBRANCH  24  31
ENDBRANCH  23  24
ENDBRANCH   1  23
TORSDOF 7
