REMARK  Name = ZINC37349437
REMARK  6 active torsions:
REMARK  status: ('A' for Active; 'I' for Inactive)
REMARK    1  A    between atoms: C_1  and  C_2
REMARK    2  A    between atoms: C_5  and  C_10
REMARK    3  A    between atoms: C_7  and  O_8
REMARK    4  A    between atoms: O_8  and  C_9
REMARK    5  A    between atoms: C_11  and  C_17
REMARK    6  A    between atoms: C_15  and  N_16
REMARK                            x       y       z     vdW  Elec       q    Type
REMARK                         _______ _______ _______ _____ _____    ______ ____
ROOT
ATOM      1  C   UNL     1       0.060  -4.257  -0.027  0.00  0.00    +0.052 A 
ATOM      2  C   UNL     1      -0.992  -5.143  -0.530  0.00  0.00    +0.137 A 
ATOM      3  N   UNL     1      -0.577  -6.381  -0.354  0.00  0.00    -0.169 NA
ATOM      4  N   UNL     1       0.690  -6.361   0.236  0.00  0.00    -0.263 N 
ATOM      5  H   UNL     1       1.213  -7.144   0.468  0.00  0.00    +0.190 HD
ATOM      6  C   UNL     1       1.077  -5.075   0.429  0.00  0.00    +0.120 A 
ENDROOT
BRANCH   1  11
ATOM      7  C   UNL     1      -0.018   1.503   0.010  0.00  0.00    +0.047 C 
ATOM      8  C   UNL     1       0.002  -0.004   0.002  0.00  0.00    -0.009 A 
ATOM      9  C   UNL     1       0.006  -0.687  -1.200  0.00  0.00    +0.007 A 
ATOM     10  C   UNL     1       0.024  -2.066  -1.215  0.00  0.00    +0.009 A 
ATOM     11  C   UNL     1       0.040  -2.776  -0.014  0.00  0.00    -0.009 A 
ATOM     12  C   UNL     1       0.037  -2.087   1.197  0.00  0.00    +0.054 A 
ATOM     13  C   UNL     1       0.023  -0.702   1.202  0.00  0.00    +0.124 A 
BRANCH  13  14
ATOM     14  O   UNL     1       0.025  -0.027   2.381  0.00  0.00    -0.495 OA
ATOM     15  C   UNL     1       0.047  -0.809   3.577  0.00  0.00    +0.277 C 
ENDBRANCH  13  14
ENDBRANCH   1  11
BRANCH   2  16
ATOM     16  C   UNL     1      -2.279  -4.726  -1.123  0.00  0.00    +0.157 A 
ATOM     17  C   UNL     1      -2.936  -5.361  -2.130  0.00  0.00    +0.053 A 
ATOM     18  C   UNL     1      -4.112  -4.624  -2.376  0.00  0.00    +0.057 A 
ATOM     19  C   UNL     1      -4.114  -3.586  -1.515  0.00  0.00    +0.171 A 
ATOM     20  O   UNL     1      -3.008  -3.655  -0.756  0.00  0.00    -0.447 OA
ATOM     21 BR   UNL     1      -5.456  -2.259  -1.391  0.00  0.00    -0.008 Br
ENDBRANCH   2  16
BRANCH   6  22
ATOM     22  N   UNL     1       2.278  -4.656   0.986  0.00  0.00    -0.343 N 
ATOM     23  H   UNL     1       2.462  -3.709   1.085  0.00  0.00    +0.144 HD
ATOM     24  H   UNL     1       2.932  -5.311   1.277  0.00  0.00    +0.144 HD
ENDBRANCH   6  22
TORSDOF 4
