REMARK  Name = ZINC66908466
REMARK  8 active torsions:
REMARK  status: ('A' for Active; 'I' for Inactive)
REMARK    1  A    between atoms: C_1  and  N_2
REMARK    2  A    between atoms: N_2  and  C_3
REMARK    3  A    between atoms: N_2  and  C_4
REMARK    4  A    between atoms: C_4  and  C_10
REMARK    5  A    between atoms: C_10  and  N_11
REMARK    6  A    between atoms: C_17  and  N_20
REMARK    7  A    between atoms: C_21  and  C_23
REMARK    8  A    between atoms: C_23  and  C_24
REMARK                            x       y       z     vdW  Elec       q    Type
REMARK                         _______ _______ _______ _____ _____    ______ ____
ROOT
ATOM      1  N   UNL     1      -2.994   1.235   3.286  0.00  0.00    -0.301 N 
ATOM      2  C   UNL     1      -2.256   1.843   2.337  0.00  0.00    +0.302 C 
ATOM      3  O   UNL     1      -1.734   1.184   1.458  0.00  0.00    -0.253 OA
ATOM      4  N   UNL     1      -2.096   3.181   2.361  0.00  0.00    -0.286 N 
ATOM      5  C   UNL     1      -1.396   3.871   1.270  0.00  0.00    +0.111 C 
ATOM      6  C   UNL     1      -2.297   4.988   0.734  0.00  0.00    +0.041 C 
ATOM      7  C   UNL     1      -2.715   5.900   1.889  0.00  0.00    +0.076 C 
ATOM      8  C   UNL     1      -3.507   5.092   2.919  0.00  0.00    +0.041 C 
ATOM      9  C   UNL     1      -2.624   3.978   3.477  0.00  0.00    +0.111 C 
ATOM     10  H   UNL     1      -3.471   1.765   3.943  0.00  0.00    +0.150 HD
ENDROOT
BRANCH   7  11
ATOM     11  N   UNL     1      -3.550   6.988   1.375  0.00  0.00    -0.312 N 
ATOM     12  C   UNL     1      -3.624   8.155   2.044  0.00  0.00    +0.214 C 
ATOM     13  O   UNL     1      -2.999   8.305   3.073  0.00  0.00    -0.276 OA
ATOM     14  H   UNL     1      -4.050   6.868   0.552  0.00  0.00    +0.149 HD
BRANCH  12  15
ATOM     15  C   UNL     1      -4.484   9.274   1.515  0.00  0.00    +0.099 C 
BRANCH  15  16
ATOM     16  C   UNL     1      -4.391  10.477   2.456  0.00  0.00    -0.002 C 
ATOM     17  C   UNL     1      -5.060  10.145   3.806  0.00  0.00    +0.004 C 
ATOM     18  C   UNL     1      -5.749  11.467   4.224  0.00  0.00    +0.000 C 
ATOM     19  C   UNL     1      -6.274  12.020   2.876  0.00  0.00    +0.000 C 
ATOM     20  C   UNL     1      -5.163  11.670   1.865  0.00  0.00    +0.004 C 
ENDBRANCH  15  16
ENDBRANCH  12  15
ENDBRANCH   7  11
BRANCH   1  21
ATOM     21  C   UNL     1      -3.076  -0.227   3.326  0.00  0.00    +0.094 C 
BRANCH  21  22
ATOM     22  C   UNL     1      -3.862  -0.661   4.565  0.00  0.00    -0.050 C 
ATOM     23  C   UNL     1      -3.838  -2.187   4.676  0.00  0.00    -0.010 C 
ATOM     24  C   UNL     1      -4.476  -2.799   3.428  0.00  0.00    -0.001 C 
ATOM     25  C   UNL     1      -5.923  -2.320   3.306  0.00  0.00    -0.000 C 
ATOM     26  C   UNL     1      -5.948  -0.794   3.195  0.00  0.00    -0.001 C 
ATOM     27  C   UNL     1      -5.310  -0.181   4.443  0.00  0.00    -0.010 C 
BRANCH  22  29
ATOM     28  C   UNL     1      -4.003  -0.492   6.954  0.00  0.00    -0.096 C 
ATOM     29  N   UNL     1      -3.251  -0.072   5.764  0.00  0.00    +0.381 N 
ATOM     30  C   UNL     1      -1.859  -0.529   5.878  0.00  0.00    -0.096 C 
ATOM     31  H   UNL     1      -3.269   0.934   5.692  0.00  0.00    -0.082 HD
ENDBRANCH  22  29
ENDBRANCH  21  22
ENDBRANCH   1  21
TORSDOF 6
