REMARK  Name = ZINC56960511
REMARK  0 active torsions:
REMARK  status: ('A' for Active; 'I' for Inactive)
REMARK                            x       y       z     vdW  Elec       q    Type
REMARK                         _______ _______ _______ _____ _____    ______ ____
ROOT
ATOM      1  C   UNL     1      -0.016   1.314   0.009  0.00  0.00    +0.300 C 
ATOM      2  C   UNL     1       0.002  -0.004   0.002  0.00  0.00    +0.170 C 
ATOM      3 CL   UNL     1       1.517  -0.852  -0.017  0.00  0.00    -0.065 Cl
ATOM      4 CL   UNL     1      -1.489  -0.892   0.011  0.00  0.00    -0.065 Cl
ATOM      5  F   UNL     1       1.145   2.005   0.002  0.00  0.00    -0.170 F 
ATOM      6  F   UNL     1      -1.195   1.973   0.018  0.00  0.00    -0.170 F 
ENDROOT
TORSDOF 0
