REMARK  Name = ZINC39724906
REMARK  6 active torsions:
REMARK  status: ('A' for Active; 'I' for Inactive)
REMARK    1  A    between atoms: C_1  and  C_2
REMARK    2  A    between atoms: C_17  and  C_29
REMARK    3  A    between atoms: C_21  and  S_25
REMARK    4  A    between atoms: S_25  and  C_26
REMARK    5  A    between atoms: C_26  and  C_27
REMARK    6  A    between atoms: C_27  and  N_28
REMARK                            x       y       z     vdW  Elec       q    Type
REMARK                         _______ _______ _______ _____ _____    ______ ____
ROOT
ATOM      1  C   UNL     1      -0.019   1.526   0.010  0.00  0.00    +0.012 C 
ATOM      2  C   UNL     1       0.002  -0.004   0.002  0.00  0.00    -0.026 C 
ATOM      3  C   UNL     1      -1.433  -0.533   0.012  0.00  0.00    +0.007 C 
ATOM      4  C   UNL     1      -2.150  -0.040   1.270  0.00  0.00    +0.001 C 
ATOM      5  C   UNL     1      -1.411  -0.547   2.510  0.00  0.00    +0.000 C 
ATOM      6  C   UNL     1       0.025  -0.018   2.501  0.00  0.00    +0.004 C 
ATOM      7  C   UNL     1       0.742  -0.511   1.242  0.00  0.00    -0.005 C 
ATOM      8  C   UNL     1       2.177   0.022   1.230  0.00  0.00    +0.004 C 
ATOM      9  C   UNL     1       2.894  -0.471  -0.028  0.00  0.00    +0.004 C 
ATOM     10  C   UNL     1       2.152   0.031  -1.269  0.00  0.00    -0.003 C 
ATOM     11  C   UNL     1       0.719  -0.497  -1.257  0.00  0.00    -0.001 C 
ATOM     12  C   UNL     1      -0.006   0.041  -2.495  0.00  0.00    +0.005 C 
ATOM     13  C   UNL     1       0.678  -0.518  -3.740  0.00  0.00    +0.015 C 
ATOM     14  C   UNL     1       2.131  -0.042  -3.820  0.00  0.00    +0.030 C 
ATOM     15  C   UNL     1       2.881  -0.385  -2.523  0.00  0.00    +0.007 C 
ATOM     16  C   UNL     1       3.078  -1.911  -2.616  0.00  0.00    +0.026 C 
ATOM     17  C   UNL     1       3.379  -2.131  -4.117  0.00  0.00    +0.113 C 
ATOM     18  C   UNL     1       2.822  -0.921  -4.862  0.00  0.00    +0.152 C 
ATOM     19  O   UNL     1       2.892  -0.709  -6.049  0.00  0.00    -0.296 OA
ATOM     20  C   UNL     1       2.217   1.442  -4.184  0.00  0.00    +0.019 C 
ENDROOT
BRANCH  17  21
ATOM     21  S   UNL     1       5.171  -2.223  -4.383  0.00  0.00    -0.152 S 
BRANCH  21  22
ATOM     22  C   UNL     1       5.333  -2.632  -6.143  0.00  0.00    +0.050 C 
BRANCH  22  23
ATOM     23  C   UNL     1       6.815  -2.741  -6.507  0.00  0.00    -0.076 C 
BRANCH  23  24
ATOM     24  N   UNL     1       6.946  -3.072  -7.932  0.00  0.00    +0.379 N 
ATOM     25  H   UNL     1       6.516  -2.346  -8.487  0.00  0.00    -0.090 HD
ATOM     26  H   UNL     1       7.923  -3.144  -8.172  0.00  0.00    -0.090 HD
ATOM     27  H   UNL     1       6.488  -3.952  -8.117  0.00  0.00    -0.090 HD
ENDBRANCH  23  24
ENDBRANCH  22  23
ENDBRANCH  21  22
ENDBRANCH  17  21
TORSDOF 4
