REMARK  Name = ZINC32651294
REMARK  10 active torsions:
REMARK  status: ('A' for Active; 'I' for Inactive)
REMARK    1  A    between atoms: C_1  and  C_2
REMARK    2  A    between atoms: C_2  and  C_3
REMARK    3  A    between atoms: C_3  and  C_5
REMARK    4  A    between atoms: C_3  and  N_12
REMARK    5  A    between atoms: C_8  and  C_11
REMARK    6  A    between atoms: C_16  and  C_20
REMARK    7  A    between atoms: N_18  and  C_19
REMARK    8  A    between atoms: C_22  and  C_24
REMARK    9  A    between atoms: C_24  and  C_25
REMARK   10  A    between atoms: C_24  and  C_26
REMARK                            x       y       z     vdW  Elec       q    Type
REMARK                         _______ _______ _______ _____ _____    ______ ____
ROOT
ATOM      1  N   UNL     1      -1.474  -2.062  -0.038  0.00  0.00    -0.320 N 
ATOM      2  C   UNL     1      -1.400  -0.680  -0.024  0.00  0.00    +0.149 A 
ATOM      3  C   UNL     1      -0.180  -0.030   0.213  0.00  0.00    +0.127 A 
ATOM      4  C   UNL     1      -0.161   1.376   0.216  0.00  0.00    +0.117 A 
ATOM      5  C   UNL     1       1.170   1.767   0.476  0.00  0.00    +0.086 A 
ATOM      6  N   UNL     1       1.900   0.697   0.619  0.00  0.00    -0.174 NA
ATOM      7  N   UNL     1       1.101  -0.443   0.463  0.00  0.00    -0.262 N 
ATOM      8  C   UNL     1       1.556  -1.833   0.553  0.00  0.00    +0.173 C 
ATOM      9  C   UNL     1       1.665   3.187   0.571  0.00  0.00    +0.070 C 
ATOM     10  N   UNL     1      -1.306   2.036  -0.002  0.00  0.00    -0.228 NA
ATOM     11  C   UNL     1      -2.422   1.382  -0.224  0.00  0.00    +0.134 A 
ATOM     12  N   UNL     1      -2.482   0.061  -0.235  0.00  0.00    -0.215 NA
ATOM     13  H   UNL     1      -0.557  -2.663   0.051  0.00  0.00    +0.148 HD
ENDROOT
BRANCH  11  14
ATOM     14  C   UNL     1      -3.685   2.166  -0.470  0.00  0.00    +0.051 C 
ATOM     15  C   UNL     1      -3.982   3.048   0.745  0.00  0.00    +0.015 C 
ATOM     16  C   UNL     1      -3.505   3.047  -1.708  0.00  0.00    +0.015 C 
ENDBRANCH  11  14
BRANCH   1  17
ATOM     17  C   UNL     1      -2.774  -2.724  -0.171  0.00  0.00    +0.102 C 
BRANCH  17  18
ATOM     18  C   UNL     1      -2.581  -4.097  -0.761  0.00  0.00    -0.027 A 
ATOM     19  C   UNL     1      -1.507  -4.873  -0.367  0.00  0.00    +0.006 A 
ATOM     20  C   UNL     1      -1.332  -6.135  -0.905  0.00  0.00    +0.004 A 
ATOM     21  C   UNL     1      -2.225  -6.615  -1.844  0.00  0.00    -0.050 A 
ATOM     22  C   UNL     1      -3.296  -5.837  -2.242  0.00  0.00    +0.004 A 
ATOM     23  C   UNL     1      -3.474  -4.577  -1.700  0.00  0.00    +0.006 A 
ATOM     24  C   UNL     1      -2.032  -7.988  -2.434  0.00  0.00    +0.044 C 
ENDBRANCH  17  18
BRANCH  17  26
ATOM     25  C   UNL     1      -3.737  -1.453   1.753  0.00  0.00    +0.006 C 
ATOM     26  C   UNL     1      -3.426  -2.848   1.208  0.00  0.00    +0.024 C 
ENDBRANCH  17  26
ENDBRANCH   1  17
TORSDOF 4
