REMARK  Name = ZINC09130570
REMARK  7 active torsions:
REMARK  status: ('A' for Active; 'I' for Inactive)
REMARK    1  A    between atoms: C_5  and  O_7
REMARK    2  A    between atoms: O_7  and  C_8
REMARK    3  A    between atoms: C_13  and  C_14
REMARK    4  A    between atoms: C_17  and  O_21
REMARK    5  A    between atoms: C_19  and  O_20
REMARK    6  A    between atoms: O_21  and  C_22
REMARK    7  A    between atoms: C_22  and  C_23
REMARK                            x       y       z     vdW  Elec       q    Type
REMARK                         _______ _______ _______ _____ _____    ______ ____
ROOT
ATOM      1  C   UNL     1       0.964  -5.104   0.216  0.00  0.00    +0.047 A 
ATOM      2  C   UNL     1       2.295  -4.702   0.120  0.00  0.00    +0.017 A 
ATOM      3  C   UNL     1       3.303  -5.643   0.134  0.00  0.00    +0.046 A 
ATOM      4  C   UNL     1       2.995  -6.993   0.242  0.00  0.00    +0.124 A 
ATOM      5  C   UNL     1       1.673  -7.402   0.338  0.00  0.00    +0.091 A 
ATOM      6  C   UNL     1       0.656  -6.463   0.331  0.00  0.00    +0.130 A 
ENDROOT
BRANCH   1  12
ATOM      7  C   UNL     1       0.048  -2.697   0.091  0.00  0.00    +0.173 A 
ATOM      8  C   UNL     1      -1.181  -2.128   0.112  0.00  0.00    +0.151 A 
ATOM      9  N   UNL     1      -2.098  -3.124   0.236  0.00  0.00    -0.280 N 
ATOM     10  H   UNL     1      -3.060  -3.010   0.277  0.00  0.00    +0.188 HD
ATOM     11  N   UNL     1      -1.411  -4.343   0.293  0.00  0.00    -0.170 NA
ATOM     12  C   UNL     1      -0.121  -4.094   0.202  0.00  0.00    +0.138 A 
BRANCH   7  13
ATOM     13  O   UNL     1       1.235  -2.039  -0.021  0.00  0.00    -0.451 OA
BRANCH  13  18
ATOM     14  C   UNL     1       1.216   1.412  -1.172  0.00  0.00    +0.004 A 
ATOM     15  C   UNL     1       1.177   2.086   0.035  0.00  0.00    +0.001 A 
ATOM     16  C   UNL     1       1.156   1.380   1.224  0.00  0.00    +0.019 A 
ATOM     17  C   UNL     1       1.175  -0.002   1.208  0.00  0.00    +0.060 A 
ATOM     18  C   UNL     1       1.215  -0.680  -0.003  0.00  0.00    +0.142 A 
ATOM     19  C   UNL     1       1.236   0.031  -1.194  0.00  0.00    +0.047 A 
ATOM     20 BR   UNL     1       1.147  -0.967   2.834  0.00  0.00    -0.046 Br
ENDBRANCH  13  18
ENDBRANCH   7  13
ENDBRANCH   1  12
BRANCH   6  21
ATOM     21  O   UNL     1      -0.639  -6.862   0.429  0.00  0.00    -0.506 OA
ATOM     22  H   UNL     1      -1.062  -7.041  -0.422  0.00  0.00    +0.292 HD
ENDBRANCH   6  21
BRANCH   4  23
ATOM     23  O   UNL     1       3.992  -7.916   0.255  0.00  0.00    -0.487 OA
BRANCH  23  24
ATOM     24  C   UNL     1       5.331  -7.426   0.152  0.00  0.00    +0.264 C 
BRANCH  24  25
ATOM     25  C   UNL     1       6.294  -8.586   0.183  0.00  0.00    -0.010 A 
ATOM     26  C   UNL     1       6.792  -9.038   1.391  0.00  0.00    +0.010 A 
ATOM     27  C   UNL     1       7.674 -10.101   1.420  0.00  0.00    +0.039 A 
ATOM     28  C   UNL     1       8.059 -10.713   0.239  0.00  0.00    +0.123 A 
ATOM     29  C   UNL     1       7.560 -10.259  -0.970  0.00  0.00    +0.039 A 
ATOM     30  C   UNL     1       6.673  -9.199  -0.996  0.00  0.00    +0.010 A 
ATOM     31  F   UNL     1       8.922 -11.752   0.267  0.00  0.00    -0.205 F 
ENDBRANCH  24  25
ENDBRANCH  23  24
ENDBRANCH   4  23
TORSDOF 7
