REMARK  Name = ZINC39661365
REMARK  5 active torsions:
REMARK  status: ('A' for Active; 'I' for Inactive)
REMARK    1  A    between atoms: C_1  and  O_2
REMARK    2  A    between atoms: O_2  and  C_3
REMARK    3  A    between atoms: C_6  and  C_10
REMARK    4  A    between atoms: C_14  and  C_23
REMARK    5  A    between atoms: N_25  and  C_26
REMARK                            x       y       z     vdW  Elec       q    Type
REMARK                         _______ _______ _______ _____ _____    ______ ____
ROOT
ATOM      1  C   UNL     1       2.579  -2.541   4.292  0.00  0.00    +0.247 C 
ATOM      2  O   UNL     1       3.737  -2.895   4.185  0.00  0.00    -0.270 OA
ATOM      3  N   UNL     1       1.906  -2.775   5.436  0.00  0.00    -0.296 N 
ATOM      4  C   UNL     1       0.469  -2.538   5.710  0.00  0.00    +0.121 C 
ATOM      5  C   UNL     1       0.029  -3.749   6.561  0.00  0.00    +0.100 C 
ATOM      6  C   UNL     1       1.323  -4.262   7.214  0.00  0.00    -0.004 C 
ATOM      7  C   UNL     1       2.435  -3.334   6.704  0.00  0.00    +0.115 C 
ATOM      8  C   UNL     1       1.602  -5.698   6.778  0.00  0.00    -0.010 C 
ATOM      9  C   UNL     1       2.863  -6.205   7.484  0.00  0.00    -0.082 C 
ATOM     10  N   UNL     1       2.671  -6.142   8.938  0.00  0.00    +0.379 N 
ATOM     11  C   UNL     1       2.495  -4.747   9.360  0.00  0.00    -0.082 C 
ATOM     12  C   UNL     1       1.219  -4.178   8.733  0.00  0.00    -0.010 C 
ATOM     13  H   UNL     1       1.851  -6.673   9.191  0.00  0.00    -0.086 HD
ATOM     14  H   UNL     1       3.478  -6.533   9.400  0.00  0.00    -0.086 HD
ENDROOT
BRANCH   1  18
ATOM     15  C   UNL     1       0.652  -0.569   1.061  0.00  0.00    +0.157 A 
ATOM     16  C   UNL     1       1.733  -1.408   0.815  0.00  0.00    +0.085 A 
ATOM     17  C   UNL     1       2.361  -2.049   1.861  0.00  0.00    +0.036 A 
ATOM     18  C   UNL     1       1.910  -1.855   3.169  0.00  0.00    +0.040 A 
ATOM     19  C   UNL     1       0.823  -1.011   3.412  0.00  0.00    +0.036 A 
ATOM     20  C   UNL     1       0.203  -0.369   2.362  0.00  0.00    +0.085 A 
ATOM     21 CL   UNL     1      -1.143   0.685   2.663  0.00  0.00    -0.080 Cl
ATOM     22 CL   UNL     1       2.293  -1.648  -0.810  0.00  0.00    -0.080 Cl
BRANCH  15  24
ATOM     23  C   UNL     1       0.541   1.347  -0.341  0.00  0.00    +0.277 C 
ATOM     24  O   UNL     1       0.036   0.062   0.028  0.00  0.00    -0.492 OA
ENDBRANCH  15  24
ENDBRANCH   1  18
BRANCH   5  25
ATOM     25  C   UNL     1      -0.578  -4.814   5.684  0.00  0.00    +0.219 C 
ATOM     26  O   UNL     1      -0.146  -4.997   4.566  0.00  0.00    -0.275 OA
ATOM     27  N   UNL     1      -1.600  -5.564   6.143  0.00  0.00    -0.304 N 
ATOM     28  H   UNL     1      -1.945  -5.418   7.038  0.00  0.00    +0.149 HD
BRANCH  27  29
ATOM     29  C   UNL     1      -2.189  -6.599   5.291  0.00  0.00    +0.151 C 
ATOM     30  C   UNL     1      -3.646  -6.816   5.706  0.00  0.00    +0.042 C 
ATOM     31  C   UNL     1      -4.061  -8.233   5.244  0.00  0.00    +0.079 C 
ATOM     32  S   UNL     1      -2.464  -9.132   5.321  0.00  0.00    -0.086 S 
ATOM     33  C   UNL     1      -1.372  -7.864   5.418  0.00  0.00    +0.209 C 
ATOM     34  O   UNL     1      -0.170  -7.945   5.559  0.00  0.00    -0.283 OA
ENDBRANCH  27  29
ENDBRANCH   5  25
TORSDOF 4
