REMARK  Name = ZINC36207095
REMARK  15 active torsions:
REMARK  status: ('A' for Active; 'I' for Inactive)
REMARK    1  A    between atoms: C_1  and  C_2
REMARK    2  A    between atoms: C_5  and  C_33
REMARK    3  A    between atoms: C_6  and  C_8
REMARK    4  A    between atoms: C_17  and  C_19
REMARK    5  A    between atoms: C_19  and  N_20
REMARK    6  A    between atoms: N_20  and  C_21
REMARK    7  A    between atoms: N_20  and  C_30
REMARK    8  A    between atoms: C_21  and  C_22
REMARK    9  A    between atoms: C_22  and  C_24
REMARK   10  A    between atoms: C_22  and  O_29
REMARK   11  A    between atoms: C_24  and  O_25
REMARK   12  A    between atoms: O_25  and  C_26
REMARK   13  A    between atoms: C_26  and  C_27
REMARK   14  A    between atoms: C_30  and  C_31
REMARK   15  A    between atoms: C_30  and  C_32
REMARK                            x       y       z     vdW  Elec       q    Type
REMARK                         _______ _______ _______ _____ _____    ______ ____
ROOT
ATOM      1  C   UNL     1      -0.064  -6.246   0.687  0.00  0.00    +0.004 A 
ATOM      2  C   UNL     1      -1.262  -6.370   1.308  0.00  0.00    +0.056 A 
ATOM      3  S   UNL     1      -0.818  -6.611   3.017  0.00  0.00    -0.076 S 
ATOM      4  C   UNL     1       0.948  -6.539   2.861  0.00  0.00    +0.116 A 
ATOM      5  C   UNL     1       1.153  -6.336   1.486  0.00  0.00    +0.080 A 
ATOM      6  C   UNL     1       2.519  -6.243   1.070  0.00  0.00    +0.260 A 
ATOM      7  O   UNL     1       2.798  -6.063  -0.103  0.00  0.00    -0.267 OA
ATOM      8  N   UNL     1       3.492  -6.357   1.993  0.00  0.00    -0.312 N 
ATOM      9  H   UNL     1       4.419  -6.295   1.717  0.00  0.00    +0.170 HD
ATOM     10  C   UNL     1       3.200  -6.558   3.304  0.00  0.00    +0.094 A 
ATOM     11  N   UNL     1       1.963  -6.638   3.716  0.00  0.00    -0.229 NA
ENDROOT
BRANCH   1  17
ATOM     12  C   UNL     1      -0.960  -3.385  -3.305  0.00  0.00    +0.044 C 
ATOM     13  C   UNL     1      -0.420  -4.655  -2.700  0.00  0.00    -0.050 A 
ATOM     14  C   UNL     1       0.145  -5.622  -3.513  0.00  0.00    +0.003 A 
ATOM     15  C   UNL     1       0.642  -6.790  -2.965  0.00  0.00    +0.004 A 
ATOM     16  C   UNL     1       0.577  -6.998  -1.602  0.00  0.00    -0.043 A 
ATOM     17  C   UNL     1       0.009  -6.028  -0.777  0.00  0.00    -0.013 A 
ATOM     18  C   UNL     1      -0.485  -4.850  -1.335  0.00  0.00    +0.012 A 
ATOM     19  C   UNL     1       1.118  -8.273  -1.006  0.00  0.00    +0.044 C 
ENDBRANCH   1  17
BRANCH  10  20
ATOM     20  C   UNL     1       4.322  -6.680   4.302  0.00  0.00    -0.003 C 
BRANCH  20  21
ATOM     21  N   UNL     1       3.767  -6.699   5.662  0.00  0.00    +0.388 N 
ATOM     22  H   UNL     1       2.889  -7.196   5.660  0.00  0.00    -0.081 HD
BRANCH  21  23
ATOM     23  C   UNL     1       3.550  -5.321   6.122  0.00  0.00    -0.074 C 
ATOM     24  C   UNL     1       4.878  -4.563   6.109  0.00  0.00    -0.014 C 
ATOM     25  C   UNL     1       2.556  -4.624   5.191  0.00  0.00    -0.014 C 
ENDBRANCH  21  23
BRANCH  21  26
ATOM     26  C   UNL     1       4.709  -7.374   6.566  0.00  0.00    -0.044 C 
BRANCH  26  27
ATOM     27  C   UNL     1       4.070  -7.525   7.948  0.00  0.00    +0.124 C 
BRANCH  27  28
ATOM     28  O   UNL     1       2.896  -8.332   7.845  0.00  0.00    -0.391 OA
ATOM     29  H   UNL     1       3.060  -9.223   7.507  0.00  0.00    +0.210 HD
ENDBRANCH  27  28
BRANCH  27  30
ATOM     30  C   UNL     1       5.066  -8.192   8.899  0.00  0.00    +0.189 C 
BRANCH  30  31
ATOM     31  O   UNL     1       4.514  -8.227  10.217  0.00  0.00    -0.373 OA
BRANCH  31  32
ATOM     32  C   UNL     1       5.369  -8.834  11.189  0.00  0.00    +0.186 C 
BRANCH  32  33
ATOM     33  C   UNL     1       4.691  -8.818  12.534  0.00  0.00    -0.007 C 
ATOM     34  C   UNL     1       4.703  -9.890  13.287  0.00  0.00    +0.006 C 
ENDBRANCH  32  33
ENDBRANCH  31  32
ENDBRANCH  30  31
ENDBRANCH  27  30
ENDBRANCH  26  27
ENDBRANCH  21  26
ENDBRANCH  20  21
ENDBRANCH  10  20
TORSDOF 11
