REMARK  Name = ZINC18024292
REMARK  5 active torsions:
REMARK  status: ('A' for Active; 'I' for Inactive)
REMARK    1  A    between atoms: C_1  and  C_2
REMARK    2  A    between atoms: N_11  and  C_15
REMARK    3  A    between atoms: C_15  and  C_16
REMARK    4  A    between atoms: C_19  and  C_27
REMARK    5  A    between atoms: C_24  and  C_26
REMARK                            x       y       z     vdW  Elec       q    Type
REMARK                         _______ _______ _______ _____ _____    ______ ____
ROOT
ATOM      1  C   UNL     1       1.996   1.741  -0.037  0.00  0.00    +0.010 C 
ATOM      2  C   UNL     1       1.564   0.276  -0.135  0.00  0.00    +0.018 C 
ATOM      3  C   UNL     1       2.407  -0.434  -1.198  0.00  0.00    +0.006 C 
ATOM      4  C   UNL     1       1.988  -1.903  -1.281  0.00  0.00    +0.000 C 
ATOM      5  C   UNL     1       2.217  -2.578   0.073  0.00  0.00    +0.003 C 
ATOM      6  C   UNL     1       1.375  -1.876   1.141  0.00  0.00    +0.035 C 
ATOM      7  C   UNL     1       1.768  -0.405   1.214  0.00  0.00    +0.115 C 
ATOM      8  C   UNL     1       0.972   0.301   2.287  0.00  0.00    +0.247 C 
ATOM      9  O   UNL     1      -0.232   0.437   2.339  0.00  0.00    -0.273 OA
ATOM     10  N   UNL     1       1.883   0.748   3.176  0.00  0.00    -0.215 N 
ATOM     11  C   UNL     1       3.129   0.422   2.811  0.00  0.00    +0.310 C 
ATOM     12  O   UNL     1       4.119   0.715   3.452  0.00  0.00    -0.252 OA
ATOM     13  N   UNL     1       3.162  -0.267   1.655  0.00  0.00    -0.285 N 
ATOM     14  H   UNL     1       3.950  -0.605   1.202  0.00  0.00    +0.151 HD
ENDROOT
BRANCH  10  15
ATOM     15  C   UNL     1       1.550   1.498   4.390  0.00  0.00    +0.213 C 
BRANCH  15  16
ATOM     16  C   UNL     1       1.328   0.536   5.529  0.00  0.00    +0.234 C 
ATOM     17  O   UNL     1       1.243  -0.654   5.310  0.00  0.00    -0.274 OA
ATOM     18  N   UNL     1       1.225   0.999   6.791  0.00  0.00    -0.295 N 
ATOM     19  C   UNL     1       1.496   0.118   7.935  0.00  0.00    +0.073 C 
ATOM     20  C   UNL     1       0.292   0.156   8.883  0.00  0.00    +0.022 C 
ATOM     21  C   UNL     1      -0.006   1.608   9.263  0.00  0.00    +0.004 C 
ATOM     22  C   UNL     1      -0.357   2.405   8.005  0.00  0.00    +0.022 C 
ATOM     23  C   UNL     1       0.845   2.394   7.048  0.00  0.00    +0.073 C 
ATOM     24  C   UNL     1       0.461   3.072   5.731  0.00  0.00    +0.028 C 
ATOM     25  C   UNL     1       1.717  -1.313   7.441  0.00  0.00    +0.028 C 
ENDBRANCH  15  16
ENDBRANCH  10  15
TORSDOF 2
