REMARK  Name = ZINC32542478
REMARK  10 active torsions:
REMARK  status: ('A' for Active; 'I' for Inactive)
REMARK    1  A    between atoms: C_1  and  C_2
REMARK    2  A    between atoms: C_8  and  N_10
REMARK    3  A    between atoms: C_14  and  C_16
REMARK    4  A    between atoms: C_16  and  N_17
REMARK    5  A    between atoms: N_17  and  C_18
REMARK    6  A    between atoms: N_17  and  C_19
REMARK    7  A    between atoms: C_19  and  C_21
REMARK    8  A    between atoms: C_19  and  C_22
REMARK    9  A    between atoms: C_25  and  S_28
REMARK   10  A    between atoms: S_28  and  N_31
REMARK                            x       y       z     vdW  Elec       q    Type
REMARK                         _______ _______ _______ _____ _____    ______ ____
ROOT
ATOM      1  N   UNL     1       1.393  -0.475  -0.014  0.00  0.00    +0.388 N 
ATOM      2  C   UNL     1       2.083  -0.123   1.235  0.00  0.00    -0.095 C 
ATOM      3  H   UNL     1       1.912   0.032  -0.841  0.00  0.00    -0.081 HD
ENDROOT
BRANCH   1   4
ATOM      4  C   UNL     1       1.457  -1.922  -0.260  0.00  0.00    -0.041 C 
ATOM      5  C   UNL     1       0.817  -2.237  -1.614  0.00  0.00    -0.008 C 
BRANCH   4   6
ATOM      6  C   UNL     1       2.897  -2.367  -0.270  0.00  0.00    -0.061 A 
ATOM      7  C   UNL     1       3.859  -1.581  -0.875  0.00  0.00    +0.004 A 
ATOM      8  C   UNL     1       5.181  -1.987  -0.879  0.00  0.00    +0.029 A 
ATOM      9  C   UNL     1       5.538  -3.184  -0.287  0.00  0.00    +0.105 A 
ATOM     10  C   UNL     1       4.574  -3.972   0.314  0.00  0.00    +0.029 A 
ATOM     11  C   UNL     1       3.254  -3.564   0.323  0.00  0.00    +0.004 A 
BRANCH   9  12
ATOM     12  S   UNL     1       7.221  -3.704  -0.296  0.00  0.00    +0.056 S 
ATOM     13  O   UNL     1       8.008  -2.530  -0.442  0.00  0.00    -0.153 OA
ATOM     14  O   UNL     1       7.378  -4.595   0.800  0.00  0.00    -0.153 OA
BRANCH  12  15
ATOM     15  N   UNL     1       7.449  -4.600  -1.670  0.00  0.00    -0.204 NA
ATOM     16  H   UNL     1       8.493  -4.945  -1.714  0.00  0.00    +0.144 HD
ATOM     17  H   UNL     1       7.231  -3.981  -2.552  0.00  0.00    +0.144 HD
ENDBRANCH  12  15
ENDBRANCH   9  12
ENDBRANCH   4   6
ENDBRANCH   1   4
BRANCH   1  18
ATOM     18  C   UNL     1       0.002  -0.004   0.002  0.00  0.00    +0.019 C 
BRANCH  18  23
ATOM     19  N   UNL     1      -2.389   4.166   0.036  0.00  0.00    -0.296 N 
ATOM     20  C   UNL     1      -1.213   3.508   0.027  0.00  0.00    +0.306 C 
ATOM     21  O   UNL     1      -0.169   4.130   0.025  0.00  0.00    -0.252 OA
ATOM     22  N   UNL     1      -1.195   2.161   0.019  0.00  0.00    -0.242 N 
ATOM     23  C   UNL     1      -0.018   1.503   0.010  0.00  0.00    +0.204 C 
ATOM     24  O   UNL     1       1.023   2.123   0.004  0.00  0.00    -0.277 OA
ATOM     25  H   UNL     1      -3.334   3.603   0.037  0.00  0.00    +0.151 HD
ATOM     26  H   UNL     1      -2.140   1.598   0.021  0.00  0.00    +0.159 HD
BRANCH  19  33
ATOM     27  C   UNL     1      -3.852   5.623  -1.996  0.00  0.00    +0.009 C 
ATOM     28  C   UNL     1      -3.726   6.127  -0.557  0.00  0.00    +0.006 C 
ATOM     29  C   UNL     1      -4.897   5.596   0.274  0.00  0.00    +0.005 C 
ATOM     30  C   UNL     1      -4.771   6.100   1.713  0.00  0.00    +0.000 C 
ATOM     31  C   UNL     1      -3.454   5.604   2.313  0.00  0.00    +0.002 C 
ATOM     32  C   UNL     1      -2.283   6.135   1.483  0.00  0.00    +0.022 C 
ATOM     33  C   UNL     1      -2.409   5.631   0.044  0.00  0.00    +0.077 C 
ENDBRANCH  19  33
ENDBRANCH  18  23
ENDBRANCH   1  18
TORSDOF 7
