REMARK  Name = ZINC08789124
REMARK  11 active torsions:
REMARK  status: ('A' for Active; 'I' for Inactive)
REMARK    1  A    between atoms: C_1  and  C_2
REMARK    2  A    between atoms: C_8  and  N_10
REMARK    3  A    between atoms: N_10  and  C_11
REMARK    4  A    between atoms: C_19  and  N_35
REMARK    5  A    between atoms: C_25  and  O_33
REMARK    6  A    between atoms: C_26  and  O_31
REMARK    7  A    between atoms: C_27  and  O_29
REMARK    8  A    between atoms: O_29  and  C_30
REMARK    9  A    between atoms: O_31  and  C_32
REMARK   10  A    between atoms: O_33  and  C_34
REMARK   11  A    between atoms: C_36  and  C_38
REMARK                            x       y       z     vdW  Elec       q    Type
REMARK                         _______ _______ _______ _____ _____    ______ ____
ROOT
ATOM      1  C   UNL     1      -3.592   4.156  -0.345  0.00  0.00    +0.075 A 
ATOM      2  C   UNL     1      -3.313   5.300  -1.032  0.00  0.00    +0.027 A 
ATOM      3  C   UNL     1      -4.151   6.094  -1.721  0.00  0.00    +0.011 A 
ATOM      4  C   UNL     1      -5.498   6.033  -1.970  0.00  0.00    -0.009 A 
ATOM      5  C   UNL     1      -6.367   5.021  -1.562  0.00  0.00    -0.016 A 
ATOM      6  C   UNL     1      -6.031   3.976  -0.784  0.00  0.00    +0.058 A 
ATOM      7  C   UNL     1      -4.854   3.579  -0.219  0.00  0.00    +0.200 A 
ATOM      8  O   UNL     1      -4.914   2.584   0.491  0.00  0.00    -0.286 OA
ATOM      9  C   UNL     1      -7.806   5.070  -2.034  0.00  0.00    +0.104 C 
ATOM     10  C   UNL     1      -8.630   6.043  -1.215  0.00  0.00    +0.032 C 
ATOM     11  C   UNL     1      -7.880   7.355  -1.002  0.00  0.00    +0.038 C 
ATOM     12  C   UNL     1      -7.245   7.791  -2.297  0.00  0.00    -0.032 A 
ATOM     13  C   UNL     1      -6.090   7.161  -2.750  0.00  0.00    +0.031 A 
ATOM     14  C   UNL     1      -5.479   7.577  -3.937  0.00  0.00    +0.173 A 
ATOM     15  C   UNL     1      -6.038   8.620  -4.663  0.00  0.00    +0.204 A 
ATOM     16  C   UNL     1      -7.197   9.239  -4.208  0.00  0.00    +0.165 A 
ATOM     17  C   UNL     1      -7.798   8.822  -3.027  0.00  0.00    +0.054 A 
ENDROOT
BRANCH   9  18
ATOM     18  N   UNL     1      -8.392   3.733  -1.920  0.00  0.00    -0.309 N 
ATOM     19  C   UNL     1      -8.227   2.838  -2.914  0.00  0.00    +0.210 C 
ATOM     20  O   UNL     1      -7.593   3.140  -3.903  0.00  0.00    -0.276 OA
ATOM     21  C   UNL     1      -8.830   1.462  -2.797  0.00  0.00    +0.109 C 
ATOM     22  H   UNL     1      -8.899   3.491  -1.129  0.00  0.00    +0.149 HD
ENDBRANCH   9  18
BRANCH   1  23
ATOM     23  N   UNL     1      -2.537   3.519   0.285  0.00  0.00    -0.338 N 
ATOM     24  H   UNL     1      -2.675   2.660   0.714  0.00  0.00    +0.146 HD
BRANCH  23  31
ATOM     25  C   UNL     1      -1.167   3.974   2.797  0.00  0.00    +0.009 C 
ATOM     26  C   UNL     1      -0.421   3.625   1.508  0.00  0.00    +0.006 C 
ATOM     27  C   UNL     1      -0.269   2.106   1.402  0.00  0.00    +0.005 C 
ATOM     28  C   UNL     1       0.478   1.757   0.113  0.00  0.00    +0.000 C 
ATOM     29  C   UNL     1      -0.312   2.275  -1.091  0.00  0.00    +0.002 C 
ATOM     30  C   UNL     1      -0.465   3.794  -0.985  0.00  0.00    +0.022 C 
ATOM     31  C   UNL     1      -1.211   4.143   0.304  0.00  0.00    +0.073 C 
ENDBRANCH  23  31
ENDBRANCH   1  23
BRANCH  16  32
ATOM     32  O   UNL     1      -7.745  10.257  -4.924  0.00  0.00    -0.491 OA
ATOM     33  C   UNL     1      -8.936  10.849  -4.401  0.00  0.00    +0.277 C 
ENDBRANCH  16  32
BRANCH  15  34
ATOM     34  O   UNL     1      -5.452   9.036  -5.820  0.00  0.00    -0.488 OA
ATOM     35  C   UNL     1      -4.465  10.063  -5.714  0.00  0.00    +0.277 C 
ENDBRANCH  15  34
BRANCH  14  36
ATOM     36  O   UNL     1      -4.346   6.966  -4.375  0.00  0.00    -0.491 OA
ATOM     37  C   UNL     1      -4.505   5.912  -5.326  0.00  0.00    +0.277 C 
ENDBRANCH  14  36
TORSDOF 6
