REMARK  Name = ZINC39878576
REMARK  9 active torsions:
REMARK  status: ('A' for Active; 'I' for Inactive)
REMARK    1  A    between atoms: C_1  and  C_2
REMARK    2  A    between atoms: C_7  and  C_8
REMARK    3  A    between atoms: C_14  and  C_27
REMARK    4  A    between atoms: N_16  and  C_19
REMARK    5  A    between atoms: C_22  and  O_25
REMARK    6  A    between atoms: O_25  and  C_26
REMARK    7  A    between atoms: C_30  and  O_33
REMARK    8  A    between atoms: O_33  and  C_34
REMARK    9  A    between atoms: C_34  and  C_35
REMARK                            x       y       z     vdW  Elec       q    Type
REMARK                         _______ _______ _______ _____ _____    ______ ____
ROOT
ATOM      1  C   UNL     1      -0.018   1.503   0.010  0.00  0.00    +0.044 C 
ATOM      2  C   UNL     1       0.002  -0.004   0.002  0.00  0.00    -0.047 A 
ATOM      3  C   UNL     1       0.006  -0.685  -1.195  0.00  0.00    +0.019 A 
ATOM      4  C   UNL     1       0.024  -2.080  -1.194  0.00  0.00    +0.065 A 
ATOM      5  C   UNL     1       0.034  -2.793   0.015  0.00  0.00    +0.140 A 
ATOM      6  C   UNL     1       0.034  -2.080   1.214  0.00  0.00    +0.050 A 
ATOM      7  C   UNL     1       0.023  -0.703   1.200  0.00  0.00    -0.044 A 
ATOM      8  C   UNL     1       0.028   0.053   2.503  0.00  0.00    +0.044 C 
ATOM      9  O   UNL     1       0.039  -4.145   0.057  0.00  0.00    -0.450 OA
ATOM     10  C   UNL     1       0.275  -4.846  -1.071  0.00  0.00    +0.199 A 
ATOM     11  C   UNL     1       0.281  -4.268  -2.309  0.00  0.00    +0.072 A 
ATOM     12  C   UNL     1       0.037  -2.832  -2.475  0.00  0.00    +0.199 A 
ATOM     13  O   UNL     1      -0.140  -2.306  -3.559  0.00  0.00    -0.287 OA
ATOM     14  C   UNL     1       0.568  -5.340  -3.309  0.00  0.00    +0.150 C 
ATOM     15  N   UNL     1       0.731  -6.580  -2.533  0.00  0.00    -0.253 N 
ATOM     16  C   UNL     1       0.560  -6.282  -1.229  0.00  0.00    +0.287 C 
ATOM     17  O   UNL     1       0.630  -7.082  -0.317  0.00  0.00    -0.266 OA
ENDROOT
BRANCH  15  18
ATOM     18  C   UNL     1       1.015  -7.846  -3.056  0.00  0.00    +0.038 A 
ATOM     19  C   UNL     1       1.174  -8.012  -4.426  0.00  0.00    +0.027 A 
ATOM     20  C   UNL     1       1.454  -9.262  -4.942  0.00  0.00    +0.047 A 
ATOM     21  C   UNL     1       1.577 -10.351  -4.092  0.00  0.00    +0.120 A 
ATOM     22  C   UNL     1       1.418 -10.187  -2.724  0.00  0.00    +0.047 A 
ATOM     23  C   UNL     1       1.144  -8.937  -2.206  0.00  0.00    +0.027 A 
BRANCH  21  24
ATOM     24  O   UNL     1       1.852 -11.582  -4.601  0.00  0.00    -0.495 OA
ATOM     25  C   UNL     1       1.965 -12.659  -3.669  0.00  0.00    +0.277 C 
ENDBRANCH  21  24
ENDBRANCH  15  18
BRANCH  14  26
ATOM     26  C   UNL     1       1.836  -5.024  -4.060  0.00  0.00    -0.022 A 
ATOM     27  C   UNL     1       3.064  -5.269  -3.475  0.00  0.00    +0.009 A 
ATOM     28  C   UNL     1       4.228  -4.980  -4.162  0.00  0.00    +0.046 A 
ATOM     29  C   UNL     1       4.163  -4.444  -5.439  0.00  0.00    +0.121 A 
ATOM     30  C   UNL     1       2.929  -4.199  -6.024  0.00  0.00    +0.046 A 
ATOM     31  C   UNL     1       1.768  -4.494  -5.336  0.00  0.00    +0.009 A 
BRANCH  29  32
ATOM     32  O   UNL     1       5.306  -4.158  -6.116  0.00  0.00    -0.483 OA
BRANCH  32  33
ATOM     33  C   UNL     1       5.163  -3.608  -7.427  0.00  0.00    +0.324 C 
BRANCH  33  34
ATOM     34  C   UNL     1       6.527  -3.358  -8.019  0.00  0.00    +0.248 C 
ATOM     35  O   UNL     1       7.523  -3.625  -7.380  0.00  0.00    -0.272 OA
ATOM     36  N   UNL     1       6.639  -2.838  -9.257  0.00  0.00    -0.327 N 
ATOM     37  H   UNL     1       5.843  -2.624  -9.767  0.00  0.00    +0.145 HD
ATOM     38  H   UNL     1       7.517  -2.677  -9.637  0.00  0.00    +0.145 HD
ENDBRANCH  33  34
ENDBRANCH  32  33
ENDBRANCH  29  32
ENDBRANCH  14  26
TORSDOF 6
