REMARK  Name = ZINC12887360
REMARK  6 active torsions:
REMARK  status: ('A' for Active; 'I' for Inactive)
REMARK    1  A    between atoms: C_1  and  C_2
REMARK    2  A    between atoms: C_2  and  C_3
REMARK    3  A    between atoms: C_3  and  C_5
REMARK    4  A    between atoms: C_3  and  N_6
REMARK    5  A    between atoms: C_11  and  C_27
REMARK    6  A    between atoms: C_27  and  C_28
REMARK                            x       y       z     vdW  Elec       q    Type
REMARK                         _______ _______ _______ _____ _____    ______ ____
ROOT
ATOM      1  N   UNL     1      -5.155   5.344  -1.269  0.00  0.00    -0.239 N 
ATOM      2  C   UNL     1      -5.616   4.192  -0.769  0.00  0.00    +0.224 C 
ATOM      3  O   UNL     1      -6.767   3.976  -0.454  0.00  0.00    -0.275 OA
ATOM      4  C   UNL     1      -4.471   3.187  -0.660  0.00  0.00    +0.073 C 
ATOM      5  C   UNL     1      -4.162   2.918   0.828  0.00  0.00    -0.053 C 
ATOM      6  C   UNL     1      -2.339   4.150   0.043  0.00  0.00    +0.050 C 
ATOM      7  C   UNL     1      -3.253   4.003  -1.179  0.00  0.00    +0.088 C 
ATOM      8  C   UNL     1      -3.844   5.348  -1.537  0.00  0.00    +0.225 C 
ATOM      9  O   UNL     1      -3.226   6.285  -1.996  0.00  0.00    -0.275 OA
ATOM     10  C   UNL     1      -1.236   3.130   0.030  0.00  0.00    -0.028 A 
ATOM     11  C   UNL     1      -1.219   1.753   0.017  0.00  0.00    +0.004 A 
ATOM     12  C   UNL     1      -0.013   1.076   0.008  0.00  0.00    +0.000 A 
ATOM     13  C   UNL     1       1.175   1.785   0.000  0.00  0.00    +0.002 A 
ATOM     14  C   UNL     1       1.162   3.164   0.009  0.00  0.00    +0.023 A 
ATOM     15  C   UNL     1      -0.048   3.854   0.025  0.00  0.00    +0.036 A 
ATOM     16  N   UNL     1      -0.318   5.224   0.037  0.00  0.00    -0.286 N 
ATOM     17  C   UNL     1      -1.640   5.482   0.049  0.00  0.00    +0.211 C 
ATOM     18  O   UNL     1      -2.165   6.575   0.063  0.00  0.00    -0.277 OA
ATOM     19  H   UNL     1       0.367   5.911   0.038  0.00  0.00    +0.155 HD
ATOM     20  N   UNL     1      -3.212   3.973   1.190  0.00  0.00    +0.394 N 
ATOM     21  H   UNL     1      -2.666   3.691   2.012  0.00  0.00    -0.083 HD
ATOM     22  H   UNL     1      -3.712   4.846   1.393  0.00  0.00    -0.083 HD
ENDROOT
BRANCH   1  23
ATOM     23  C   UNL     1      -6.015   6.507  -1.504  0.00  0.00    +0.081 C 
ATOM     24  C   UNL     1      -6.646   6.949  -0.182  0.00  0.00    +0.028 C 
BRANCH  23  26
ATOM     25  C   UNL     1      -6.493   5.810  -3.855  0.00  0.00    +0.006 C 
ATOM     26  C   UNL     1      -7.118   6.133  -2.496  0.00  0.00    +0.019 C 
ENDBRANCH  23  26
ENDBRANCH   1  23
BRANCH   5  27
ATOM     27  C   UNL     1      -5.442   3.010   1.661  0.00  0.00    +0.022 C 
BRANCH  27  28
ATOM     28  C   UNL     1      -5.142   2.625   3.087  0.00  0.00    -0.024 A 
ATOM     29  C   UNL     1      -5.296   1.409   3.635  0.00  0.00    +0.087 A 
ATOM     30  N   UNL     1      -4.921   1.439   4.950  0.00  0.00    -0.360 N 
ATOM     31  H   UNL     1      -4.944   0.680   5.554  0.00  0.00    +0.165 HD
ATOM     32  C   UNL     1      -4.506   2.707   5.290  0.00  0.00    +0.047 A 
ATOM     33  C   UNL     1      -4.621   3.504   4.136  0.00  0.00    +0.003 A 
ATOM     34  C   UNL     1      -4.272   4.855   4.185  0.00  0.00    +0.010 A 
ATOM     35  C   UNL     1      -3.809   5.394   5.352  0.00  0.00    +0.001 A 
ATOM     36  C   UNL     1      -3.688   4.611   6.492  0.00  0.00    +0.002 A 
ATOM     37  C   UNL     1      -4.033   3.277   6.467  0.00  0.00    +0.026 A 
ENDBRANCH  27  28
ENDBRANCH   5  27
TORSDOF 4
