REMARK  Name = ZINC09271201
REMARK  18 active torsions:
REMARK  status: ('A' for Active; 'I' for Inactive)
REMARK    1  A    between atoms: C_1  and  C_2
REMARK    2  A    between atoms: C_2  and  N_74
REMARK    3  A    between atoms: C_3  and  C_4
REMARK    4  A    between atoms: C_3  and  N_74
REMARK    5  A    between atoms: C_5  and  C_6
REMARK    6  A    between atoms: C_5  and  N_74
REMARK    7  A    between atoms: C_6  and  N_7
REMARK    8  A    between atoms: C_8  and  C_27
REMARK    9  A    between atoms: C_11  and  C_12
REMARK   10  A    between atoms: C_11  and  O_22
REMARK   11  A    between atoms: C_15  and  O_18
REMARK   12  A    between atoms: O_18  and  C_19
REMARK   13  A    between atoms: C_19  and  C_20
REMARK   14  A    between atoms: C_19  and  C_21
REMARK   15  A    between atoms: C_30  and  O_33
REMARK   16  A    between atoms: O_33  and  C_34
REMARK   17  A    between atoms: C_34  and  C_35
REMARK   18  A    between atoms: C_34  and  C_36
REMARK                            x       y       z     vdW  Elec       q    Type
REMARK                         _______ _______ _______ _____ _____    ______ ____
ROOT
ATOM      1  N   UNL     1      -6.082   5.326  -0.220  0.00  0.00    -0.285 N 
ATOM      2  C   UNL     1      -5.747   3.917  -0.450  0.00  0.00    +0.144 C 
ATOM      3  C   UNL     1      -4.324   3.728   0.025  0.00  0.00    +0.071 C 
ATOM      4  C   UNL     1      -3.591   2.558   0.005  0.00  0.00    +0.133 C 
ATOM      5  C   UNL     1      -3.897   4.983   0.485  0.00  0.00    +0.249 C 
ATOM      6  O   UNL     1      -2.798   5.238   0.945  0.00  0.00    -0.282 OA
ATOM      7  C   UNL     1      -5.018   5.946   0.316  0.00  0.00    +0.288 C 
ATOM      8  O   UNL     1      -4.976   7.122   0.617  0.00  0.00    -0.266 OA
ENDROOT
BRANCH   4   9
ATOM      9  C   UNL     1      -2.180   2.566   0.420  0.00  0.00    +0.017 A 
ATOM     10  C   UNL     1      -1.269   3.428  -0.204  0.00  0.00    +0.015 A 
ATOM     11  C   UNL     1       0.051   3.428   0.184  0.00  0.00    +0.046 A 
ATOM     12  C   UNL     1       0.481   2.575   1.195  0.00  0.00    +0.121 A 
ATOM     13  C   UNL     1      -0.419   1.717   1.818  0.00  0.00    +0.046 A 
ATOM     14  C   UNL     1      -1.742   1.709   1.437  0.00  0.00    +0.015 A 
BRANCH  12  15
ATOM     15  O   UNL     1       1.784   2.580   1.575  0.00  0.00    -0.489 OA
BRANCH  15  16
ATOM     16  C   UNL     1       2.144   1.732   2.667  0.00  0.00    +0.167 C 
ATOM     17  C   UNL     1       2.391   0.313   2.152  0.00  0.00    +0.051 C 
ATOM     18  C   UNL     1       3.418   2.264   3.327  0.00  0.00    +0.051 C 
ENDBRANCH  15  16
ENDBRANCH  12  15
ENDBRANCH   4   9
BRANCH   2  19
ATOM     19  C   UNL     1      -6.676   3.033   0.341  0.00  0.00    -0.022 A 
ATOM     20  C   UNL     1      -7.061   3.403   1.617  0.00  0.00    +0.009 A 
ATOM     21  C   UNL     1      -7.918   2.597   2.341  0.00  0.00    +0.046 A 
ATOM     22  C   UNL     1      -8.383   1.411   1.793  0.00  0.00    +0.121 A 
ATOM     23  C   UNL     1      -7.990   1.039   0.515  0.00  0.00    +0.046 A 
ATOM     24  C   UNL     1      -7.138   1.852  -0.208  0.00  0.00    +0.009 A 
BRANCH  22  25
ATOM     25  O   UNL     1      -9.220   0.613   2.506  0.00  0.00    -0.489 OA
BRANCH  25  26
ATOM     26  C   UNL     1      -9.530   1.025   3.839  0.00  0.00    +0.167 C 
ATOM     27  C   UNL     1     -10.654   2.062   3.804  0.00  0.00    +0.051 C 
ATOM     28  C   UNL     1      -9.980  -0.188   4.657  0.00  0.00    +0.051 C 
ENDBRANCH  25  26
ENDBRANCH  22  25
ENDBRANCH   2  19
BRANCH   4  29
ATOM     29  O   UNL     1      -4.170   1.406  -0.396  0.00  0.00    -0.506 OA
ATOM     30  H   UNL     1      -3.502   0.663  -0.350  0.00  0.00    +0.292 HD
ENDBRANCH   4  29
BRANCH   1  31
ATOM     31  C   UNL     1      -7.367   5.956  -0.531  0.00  0.00    +0.090 C 
BRANCH  31  32
ATOM     32  C   UNL     1      -7.337   6.498  -1.962  0.00  0.00    -0.060 C 
BRANCH  32  33
ATOM     33  N   UNL     1      -8.646   7.111  -2.268  0.00  0.00    +0.380 N 
ATOM     34  H   UNL     1      -9.389   6.439  -2.044  0.00  0.00    -0.082 HD
BRANCH  33  36
ATOM     35  C   UNL     1      -7.785   9.382  -1.804  0.00  0.00    -0.017 C 
ATOM     36  C   UNL     1      -8.837   8.328  -1.451  0.00  0.00    -0.082 C 
ENDBRANCH  33  36
BRANCH  33  37
ATOM     37  C   UNL     1      -8.722   7.450  -3.704  0.00  0.00    -0.082 C 
ATOM     38  C   UNL     1     -10.149   7.895  -4.032  0.00  0.00    -0.017 C 
ENDBRANCH  33  37
ENDBRANCH  32  33
ENDBRANCH  31  32
ENDBRANCH   1  31
TORSDOF 12
