REMARK  Name = ZINC37515049
REMARK  2 active torsions:
REMARK  status: ('A' for Active; 'I' for Inactive)
REMARK    1  A    between atoms: C_3  and  N_24
REMARK    2  A    between atoms: C_5  and  N_7
REMARK                            x       y       z     vdW  Elec       q    Type
REMARK                         _______ _______ _______ _____ _____    ______ ____
ROOT
ATOM      1  N   UNL     1       1.231  -2.086  -0.021  0.00  0.00    -0.192 N 
ATOM      2  C   UNL     1       0.128  -2.861   0.077  0.00  0.00    +0.248 C 
ATOM      3  O   UNL     1      -1.012  -2.494   0.266  0.00  0.00    -0.273 OA
ATOM      4  C   UNL     1       0.614  -4.276  -0.099  0.00  0.00    +0.165 C 
ATOM      5  C   UNL     1       0.190  -5.185   1.076  0.00  0.00    +0.037 C 
ATOM      6  C   UNL     1       1.489  -5.857   1.512  0.00  0.00    +0.012 C 
ATOM      7  C   UNL     1       1.499  -7.365   1.624  0.00  0.00    +0.005 C 
ATOM      8  C   UNL     1       2.907  -7.775   2.089  0.00  0.00    +0.000 C 
ATOM      9  C   UNL     1       3.988  -7.261   1.144  0.00  0.00    +0.002 C 
ATOM     10  C   UNL     1       3.880  -5.739   0.932  0.00  0.00    +0.023 C 
ATOM     11  C   UNL     1       2.487  -5.493   0.375  0.00  0.00    +0.082 C 
ATOM     12  N   UNL     1       2.102  -4.127   0.030  0.00  0.00    -0.270 N 
ATOM     13  C   UNL     1       2.344  -2.826  -0.134  0.00  0.00    +0.316 C 
ATOM     14  O   UNL     1       3.446  -2.364  -0.356  0.00  0.00    -0.252 OA
ENDROOT
BRANCH   1  19
ATOM     15  C   UNL     1      -0.017   1.377  -0.015  0.00  0.00    +0.004 A 
ATOM     16  C   UNL     1       1.169   2.087   0.002  0.00  0.00    +0.023 A 
ATOM     17  C   UNL     1       2.383   1.413   0.011  0.00  0.00    +0.026 A 
ATOM     18  C   UNL     1       2.405   0.025   0.004  0.00  0.00    +0.046 A 
ATOM     19  C   UNL     1       1.213  -0.684  -0.013  0.00  0.00    +0.047 A 
ATOM     20  C   UNL     1       0.002  -0.004  -0.023  0.00  0.00    +0.024 A 
BRANCH  17  21
ATOM     21  N   UNL     1       3.582   2.131   0.028  0.00  0.00    -0.358 N 
ATOM     22  H   UNL     1       3.566   3.101   0.033  0.00  0.00    +0.142 HD
ATOM     23  H   UNL     1       4.429   1.659   0.035  0.00  0.00    +0.142 HD
ENDBRANCH  17  21
ENDBRANCH   1  19
TORSDOF 2
