REMARK  Name = ZINC20731771
REMARK  9 active torsions:
REMARK  status: ('A' for Active; 'I' for Inactive)
REMARK    1  A    between atoms: C_1  and  O_2
REMARK    2  A    between atoms: O_2  and  C_3
REMARK    3  A    between atoms: C_3  and  C_5
REMARK    4  A    between atoms: C_5  and  C_7
REMARK    5  A    between atoms: C_5  and  N_11
REMARK    6  A    between atoms: C_7  and  C_8
REMARK    7  A    between atoms: C_8  and  S_9
REMARK    8  A    between atoms: S_9  and  C_10
REMARK    9  A    between atoms: C_23  and  C_25
REMARK                            x       y       z     vdW  Elec       q    Type
REMARK                         _______ _______ _______ _____ _____    ______ ____
ROOT
ATOM      1  N   UNL     1      -0.502  -2.189  -3.315  0.00  0.00    -0.286 N 
ATOM      2  C   UNL     1       0.787  -2.581  -3.317  0.00  0.00    +0.304 C 
ATOM      3  O   UNL     1       1.411  -2.622  -2.275  0.00  0.00    -0.253 OA
ATOM      4  N   UNL     1       1.385  -2.927  -4.475  0.00  0.00    -0.273 N 
ATOM      5  C   UNL     1       2.750  -3.474  -4.483  0.00  0.00    +0.116 C 
ATOM      6  C   UNL     1       2.709  -4.917  -5.002  0.00  0.00    +0.074 C 
ATOM      7  C   UNL     1       1.826  -4.970  -6.221  0.00  0.00    +0.040 A 
ATOM      8  C   UNL     1       0.925  -4.025  -6.563  0.00  0.00    +0.062 A 
ATOM      9  N   UNL     1       0.329  -4.409  -7.693  0.00  0.00    -0.348 N 
ATOM     10  C   UNL     1       0.827  -5.557  -8.071  0.00  0.00    +0.171 A 
ATOM     11  N   UNL     1       1.767  -5.939  -7.176  0.00  0.00    -0.349 N 
ATOM     12  H   UNL     1       2.297  -6.751  -7.208  0.00  0.00    +0.166 HD
ATOM     13  C   UNL     1       0.683  -2.772  -5.762  0.00  0.00    +0.159 C 
ATOM     14  H   UNL     1      -0.980  -2.087  -4.154  0.00  0.00    +0.151 HD
ATOM     15  H   UNL     1      -0.364  -3.915  -8.160  0.00  0.00    +0.167 HD
ENDROOT
BRANCH  13  16
ATOM     16  C   UNL     1       1.231  -1.580  -6.504  0.00  0.00    +0.017 A 
ATOM     17  C   UNL     1       2.076  -1.767  -7.583  0.00  0.00    +0.009 A 
ATOM     18  C   UNL     1       2.579  -0.675  -8.265  0.00  0.00    +0.003 A 
ATOM     19  C   UNL     1       2.239   0.606  -7.870  0.00  0.00    +0.041 A 
ATOM     20  C   UNL     1       1.394   0.795  -6.791  0.00  0.00    +0.159 A 
ATOM     21  C   UNL     1       0.884  -0.300  -6.110  0.00  0.00    +0.164 A 
ATOM     22  F   UNL     1       0.055  -0.118  -5.060  0.00  0.00    -0.202 F 
ATOM     23  F   UNL     1       1.061   2.046  -6.404  0.00  0.00    -0.202 F 
ENDBRANCH  13  16
BRANCH   1  24
ATOM     24  C   UNL     1      -1.184  -1.917  -2.047  0.00  0.00    +0.184 C 
BRANCH  24  25
ATOM     25  C   UNL     1      -1.615  -3.218  -1.420  0.00  0.00    +0.327 C 
ATOM     26  O   UNL     1      -1.377  -4.265  -1.975  0.00  0.00    -0.249 OA
BRANCH  25  28
ATOM     27  C   UNL     1      -2.641  -4.483   0.292  0.00  0.00    +0.280 C 
ATOM     28  O   UNL     1      -2.262  -3.214  -0.244  0.00  0.00    -0.467 OA
ENDBRANCH  25  28
ENDBRANCH  24  25
BRANCH  24  29
ATOM     29  C   UNL     1      -2.413  -1.044  -2.305  0.00  0.00    +0.044 C 
BRANCH  29  30
ATOM     30  C   UNL     1      -1.966   0.325  -2.823  0.00  0.00    +0.071 C 
BRANCH  30  31
ATOM     31  S   UNL     1      -3.409   1.414  -2.974  0.00  0.00    -0.164 S 
ATOM     32  C   UNL     1      -2.718   2.974  -3.590  0.00  0.00    +0.084 C 
ENDBRANCH  30  31
ENDBRANCH  29  30
ENDBRANCH  24  29
ENDBRANCH   1  24
TORSDOF 7
