REMARK  Name = ZINC02157140
REMARK  8 active torsions:
REMARK  status: ('A' for Active; 'I' for Inactive)
REMARK    1  A    between atoms: C_1  and  C_2
REMARK    2  A    between atoms: C_2  and  C_3
REMARK    3  A    between atoms: C_3  and  C_4
REMARK    4  A    between atoms: C_4  and  C_5
REMARK    5  A    between atoms: C_5  and  N_6
REMARK    6  A    between atoms: C_14  and  N_15
REMARK    7  A    between atoms: C_16  and  C_17
REMARK    8  A    between atoms: C_18  and  O_30
REMARK                            x       y       z     vdW  Elec       q    Type
REMARK                         _______ _______ _______ _____ _____    ______ ____
ROOT
ATOM      1  N   UNL     1      -1.444  -2.371  -2.388  0.00  0.00    -0.220 NA
ATOM      2  C   UNL     1      -1.447  -3.236  -3.373  0.00  0.00    +0.127 C 
ENDROOT
BRANCH   2   3
ATOM      3  C   UNL     1      -1.474  -2.766  -4.758  0.00  0.00    +0.046 A 
ATOM      4  C   UNL     1      -1.503  -1.392  -5.041  0.00  0.00    +0.126 A 
ATOM      5  C   UNL     1      -1.522  -0.958  -6.359  0.00  0.00    +0.049 A 
ATOM      6  C   UNL     1      -1.526  -1.861  -7.401  0.00  0.00    +0.050 A 
ATOM      7  C   UNL     1      -1.504  -3.229  -7.151  0.00  0.00    +0.136 A 
ATOM      8  C   UNL     1      -1.477  -3.691  -5.825  0.00  0.00    +0.036 A 
ATOM      9  C   UNL     1      -1.458  -5.143  -5.922  0.00  0.00    +0.002 A 
ATOM     10  C   UNL     1      -1.474  -5.444  -7.236  0.00  0.00    +0.109 A 
ATOM     11  O   UNL     1      -1.502  -4.313  -7.956  0.00  0.00    -0.459 OA
ATOM     12  C   UNL     1      -1.460  -6.859  -7.768  0.00  0.00    +0.075 C 
ATOM     13  C   UNL     1      -1.002  -7.797  -6.645  0.00  0.00    +0.008 C 
ATOM     14  C   UNL     1      -1.823  -7.521  -5.382  0.00  0.00    +0.005 C 
ATOM     15  C   UNL     1      -1.426  -6.155  -4.808  0.00  0.00    +0.039 C 
BRANCH   4  16
ATOM     16  O   UNL     1      -1.506  -0.490  -4.028  0.00  0.00    -0.506 OA
ATOM     17  H   UNL     1      -0.624  -0.212  -3.746  0.00  0.00    +0.292 HD
ENDBRANCH   4  16
ENDBRANCH   2   3
BRANCH   1  26
ATOM     18  N   UNL     1      -1.413  -1.998   0.005  0.00  0.00    -0.308 N 
ATOM     19  C   UNL     1      -1.392  -2.825   1.113  0.00  0.00    +0.070 A 
ATOM     20  C   UNL     1      -1.381  -2.599   2.482  0.00  0.00    +0.028 A 
ATOM     21  C   UNL     1      -1.359  -3.670   3.352  0.00  0.00    +0.002 A 
ATOM     22  C   UNL     1      -1.346  -4.970   2.868  0.00  0.00    +0.002 A 
ATOM     23  C   UNL     1      -1.356  -5.213   1.523  0.00  0.00    +0.030 A 
ATOM     24  C   UNL     1      -1.379  -4.143   0.622  0.00  0.00    +0.091 A 
ATOM     25  N   UNL     1      -1.393  -4.068  -0.731  0.00  0.00    -0.211 NA
ATOM     26  C   UNL     1      -1.419  -2.807  -1.103  0.00  0.00    +0.232 A 
BRANCH  18  27
ATOM     27  C   UNL     1      -1.433  -0.534   0.013  0.00  0.00    +0.125 C 
BRANCH  27  28
ATOM     28  C   UNL     1       0.002  -0.004   0.002  0.00  0.00    +0.022 C 
BRANCH  28  29
ATOM     29  C   UNL     1      -0.019   1.526   0.010  0.00  0.00    +0.001 C 
BRANCH  29  31
ATOM     30  C   UNL     1       1.396   3.585   0.008  0.00  0.00    +0.004 C 
ATOM     31  C   UNL     1       1.417   2.055  -0.000  0.00  0.00    -0.003 C 
ENDBRANCH  29  31
ENDBRANCH  28  29
ENDBRANCH  27  28
ENDBRANCH  18  27
ENDBRANCH   1  26
TORSDOF 7
