REMARK  Name = ZINC41913329
REMARK  2 active torsions:
REMARK  status: ('A' for Active; 'I' for Inactive)
REMARK    1  A    between atoms: C_5  and  C_9
REMARK    2  A    between atoms: C_5  and  N_12
REMARK                            x       y       z     vdW  Elec       q    Type
REMARK                         _______ _______ _______ _____ _____    ______ ____
ROOT
ATOM      1  C   UNL     1       0.352   2.106  -0.739  0.00  0.00    +0.000 C 
ATOM      2  C   UNL     1       1.833   2.353  -0.445  0.00  0.00    +0.000 C 
ATOM      3  C   UNL     1       2.665   2.000  -1.680  0.00  0.00    +0.003 C 
ATOM      4  C   UNL     1       2.777   0.479  -1.800  0.00  0.00    +0.038 C 
ATOM      5  C   UNL     1       3.077  -0.122  -0.425  0.00  0.00    +0.145 C 
ATOM      6  C   UNL     1       1.879  -0.951   0.042  0.00  0.00    +0.038 C 
ATOM      7  C   UNL     1       0.765  -0.015   0.515  0.00  0.00    +0.003 C 
ATOM      8  C   UNL     1       0.068   0.603  -0.698  0.00  0.00    +0.000 C 
ENDROOT
BRANCH   5   9
ATOM      9  N   UNL     1       3.328   0.957   0.534  0.00  0.00    -0.225 N 
ATOM     10  C   UNL     1       4.166   1.945   0.188  0.00  0.00    +0.223 C 
ATOM     11  O   UNL     1       4.700   1.917  -0.900  0.00  0.00    -0.275 OA
ATOM     12  C   UNL     1       4.457   3.088   1.124  0.00  0.00    +0.097 C 
ATOM     13  C   UNL     1       4.315   2.601   2.571  0.00  0.00    +0.018 C 
ATOM     14  C   UNL     1       2.917   2.001   2.749  0.00  0.00    +0.097 C 
ATOM     15  C   UNL     1       2.706   0.919   1.722  0.00  0.00    +0.223 C 
ATOM     16  O   UNL     1       1.964  -0.004   1.976  0.00  0.00    -0.275 OA
ENDBRANCH   5   9
BRANCH   5  17
ATOM     17  C   UNL     1       4.294  -1.005  -0.518  0.00  0.00    +0.380 C 
ATOM     18  O   UNL     1       5.280  -0.757   0.155  0.00  0.00    -0.244 OA
ATOM     19  O   UNL     1       4.293  -1.968  -1.266  0.00  0.00    -0.244 OA
ENDBRANCH   5  17
TORSDOF 2
