REMARK  Name = ZINC36658479
REMARK  7 active torsions:
REMARK  status: ('A' for Active; 'I' for Inactive)
REMARK    1  A    between atoms: C_1  and  S_2
REMARK    2  A    between atoms: S_2  and  C_3
REMARK    3  A    between atoms: C_6  and  C_9
REMARK    4  A    between atoms: C_9  and  C_10
REMARK    5  A    between atoms: C_16  and  C_18
REMARK    6  A    between atoms: N_23  and  S_25
REMARK    7  A    between atoms: S_25  and  C_28
REMARK                            x       y       z     vdW  Elec       q    Type
REMARK                         _______ _______ _______ _____ _____    ______ ____
ROOT
ATOM      1  C   UNL     1       4.379  -1.507  -4.831  0.00  0.00    +0.223 A 
ATOM      2  N   UNL     1       5.019  -2.585  -4.483  0.00  0.00    -0.111 NA
ATOM      3  N   UNL     1       6.267  -2.315  -4.332  0.00  0.00    -0.092 NA
ATOM      4  C   UNL     1       6.469  -1.045  -4.580  0.00  0.00    +0.314 A 
ATOM      5  O   UNL     1       5.279  -0.508  -4.906  0.00  0.00    -0.409 OA
ATOM      6  N   UNL     1       7.684  -0.378  -4.522  0.00  0.00    -0.238 N 
ATOM      7  C   UNL     1       8.804  -1.047  -4.184  0.00  0.00    +0.225 C 
ATOM      8  O   UNL     1       8.750  -2.232  -3.930  0.00  0.00    -0.275 OA
ATOM      9  H   UNL     1       7.727   0.569  -4.725  0.00  0.00    +0.159 HD
ENDROOT
BRANCH   7  10
ATOM     10  C   UNL     1      10.124  -0.323  -4.121  0.00  0.00    +0.091 C 
ATOM     11  C   UNL     1      10.449   0.268  -5.495  0.00  0.00    +0.015 C 
ATOM     12  C   UNL     1      11.773   1.031  -5.424  0.00  0.00    +0.018 C 
ATOM     13  C   UNL     1      12.896   0.064  -5.036  0.00  0.00    +0.109 C 
ATOM     14  N   UNL     1      12.523  -0.616  -3.788  0.00  0.00    -0.176 NA
ATOM     15  C   UNL     1      11.228  -1.306  -3.717  0.00  0.00    +0.122 C 
BRANCH  14  16
ATOM     16  S   UNL     1      13.545  -0.606  -2.485  0.00  0.00    +0.061 S 
ATOM     17  O   UNL     1      13.210  -1.741  -1.698  0.00  0.00    -0.153 OA
ATOM     18  O   UNL     1      14.854  -0.393  -2.996  0.00  0.00    -0.153 OA
BRANCH  16  19
ATOM     19  C   UNL     1      13.144   0.812  -1.519  0.00  0.00    +0.106 A 
ATOM     20  C   UNL     1      13.773   2.018  -1.768  0.00  0.00    +0.030 A 
ATOM     21  C   UNL     1      13.458   3.131  -1.011  0.00  0.00    +0.022 A 
ATOM     22  C   UNL     1      12.514   3.038  -0.004  0.00  0.00    +0.041 A 
ATOM     23  C   UNL     1      11.886   1.831   0.245  0.00  0.00    +0.022 A 
ATOM     24  C   UNL     1      12.197   0.720  -0.516  0.00  0.00    +0.030 A 
ATOM     25 CL   UNL     1      12.120   4.435   0.948  0.00  0.00    -0.084 Cl
ENDBRANCH  16  19
ENDBRANCH  14  16
ENDBRANCH   7  10
BRANCH   1  26
ATOM     26  C   UNL     1       2.901  -1.397  -5.106  0.00  0.00    +0.132 C 
BRANCH  26  30
ATOM     27  C   UNL     1       0.848  -0.411  -1.489  0.00  0.00    +0.008 A 
ATOM     28  C   UNL     1       1.315   0.599  -2.322  0.00  0.00    +0.015 A 
ATOM     29  C   UNL     1       1.978   0.276  -3.490  0.00  0.00    +0.005 A 
ATOM     30  C   UNL     1       2.178  -1.049  -3.830  0.00  0.00    -0.038 A 
ATOM     31  C   UNL     1       1.714  -2.056  -3.004  0.00  0.00    +0.005 A 
ATOM     32  C   UNL     1       1.056  -1.742  -1.831  0.00  0.00    +0.015 A 
BRANCH  27  34
ATOM     33  C   UNL     1      -0.022   1.810   0.012  0.00  0.00    +0.090 C 
ATOM     34  S   UNL     1       0.002  -0.004   0.002  0.00  0.00    -0.129 S 
ENDBRANCH  27  34
ENDBRANCH  26  30
ENDBRANCH   1  26
TORSDOF 6
