REMARK  Name = ZINC15782513
REMARK  5 active torsions:
REMARK  status: ('A' for Active; 'I' for Inactive)
REMARK    1  A    between atoms: C_1  and  C_2
REMARK    2  A    between atoms: C_5  and  C_8
REMARK    3  A    between atoms: C_10  and  N_22
REMARK    4  A    between atoms: C_12  and  O_21
REMARK    5  A    between atoms: C_17  and  C_19
REMARK                            x       y       z     vdW  Elec       q    Type
REMARK                         _______ _______ _______ _____ _____    ______ ____
ROOT
ATOM      1  C   UNL     1       0.059  -4.275  -0.021  0.00  0.00    +0.131 C 
ATOM      2  C   UNL     1      -1.352  -4.810   0.244  0.00  0.00    +0.185 C 
ATOM      3  C   UNL     1      -1.877  -4.258   1.574  0.00  0.00    +0.262 C 
ATOM      4  N   UNL     1      -0.863  -4.472   2.610  0.00  0.00    -0.220 N 
ATOM      5  C   UNL     1       0.448  -4.709   2.346  0.00  0.00    +0.121 A 
ATOM      6  C   UNL     1       1.090  -4.860   3.525  0.00  0.00    +0.068 A 
ATOM      7  C   UNL     1       0.142  -4.709   4.546  0.00  0.00    +0.062 A 
ATOM      8  N   UNL     1      -1.026  -4.477   3.995  0.00  0.00    -0.172 NA
ATOM      9  C   UNL     1       0.416  -4.800   6.025  0.00  0.00    +0.067 C 
ATOM     10  N   UNL     1       0.958  -4.766   1.042  0.00  0.00    -0.320 N 
ATOM     11  H   UNL     1       1.845  -5.107   0.848  0.00  0.00    +0.148 HD
ENDROOT
BRANCH   2  12
ATOM     12  N   UNL     1      -1.315  -6.273   0.307  0.00  0.00    -0.234 N 
ATOM     13  C   UNL     1      -1.992  -7.149  -0.508  0.00  0.00    +0.090 A 
ATOM     14  C   UNL     1      -2.868  -6.995  -1.577  0.00  0.00    +0.029 A 
ATOM     15  C   UNL     1      -3.387  -8.097  -2.195  0.00  0.00    +0.002 A 
ATOM     16  C   UNL     1      -3.047  -9.374  -1.765  0.00  0.00    +0.002 A 
ATOM     17  C   UNL     1      -2.190  -9.553  -0.719  0.00  0.00    +0.032 A 
ATOM     18  C   UNL     1      -1.644  -8.438  -0.068  0.00  0.00    +0.113 A 
ATOM     19  N   UNL     1      -0.792  -8.301   0.968  0.00  0.00    -0.129 NA
ATOM     20  N   UNL     1      -0.576  -7.056   1.207  0.00  0.00    -0.064 NA
ENDBRANCH   2  12
BRANCH   1  25
ATOM     21  C   UNL     1      -0.018   1.503   0.010  0.00  0.00    +0.044 C 
ATOM     22  C   UNL     1       0.002  -0.004   0.002  0.00  0.00    -0.050 A 
ATOM     23  C   UNL     1       0.006  -0.689  -1.199  0.00  0.00    +0.004 A 
ATOM     24  C   UNL     1       0.025  -2.071  -1.206  0.00  0.00    +0.006 A 
ATOM     25  C   UNL     1       0.040  -2.768  -0.013  0.00  0.00    -0.025 A 
ATOM     26  C   UNL     1       0.037  -2.084   1.188  0.00  0.00    +0.006 A 
ATOM     27  C   UNL     1       0.023  -0.702   1.195  0.00  0.00    +0.004 A 
ENDBRANCH   1  25
BRANCH   3  28
ATOM     28  O   UNL     1      -2.141  -2.860   1.441  0.00  0.00    -0.369 OA
ATOM     29  H   UNL     1      -2.477  -2.445   2.247  0.00  0.00    +0.212 HD
ENDBRANCH   3  28
TORSDOF 3
