REMARK  Name = ZINC39653744
REMARK  10 active torsions:
REMARK  status: ('A' for Active; 'I' for Inactive)
REMARK    1  A    between atoms: C_1  and  C_2
REMARK    2  A    between atoms: C_2  and  O_3
REMARK    3  A    between atoms: O_3  and  C_4
REMARK    4  A    between atoms: C_7  and  C_10
REMARK    5  A    between atoms: C_10  and  C_11
REMARK    6  A    between atoms: C_11  and  N_12
REMARK    7  A    between atoms: C_13  and  C_15
REMARK    8  A    between atoms: C_26  and  C_28
REMARK    9  A    between atoms: C_31  and  O_34
REMARK   10  A    between atoms: O_34  and  C_35
REMARK                            x       y       z     vdW  Elec       q    Type
REMARK                         _______ _______ _______ _____ _____    ______ ____
ROOT
ATOM      1  C   UNL     1       3.568 -10.768   1.108  0.00  0.00    +0.100 C 
ATOM      2  C   UNL     1       2.297 -11.168   0.325  0.00  0.00    +0.121 C 
ATOM      3  N   UNL     1       2.779 -11.464  -1.045  0.00  0.00    -0.296 N 
ATOM      4  C   UNL     1       4.067 -12.168  -0.838  0.00  0.00    +0.115 C 
ATOM      5  C   UNL     1       4.727 -11.429   0.344  0.00  0.00    -0.004 C 
ATOM      6  C   UNL     1       5.693 -10.367  -0.172  0.00  0.00    -0.010 C 
ATOM      7  C   UNL     1       6.866 -11.052  -0.879  0.00  0.00    -0.082 C 
ATOM      8  N   UNL     1       7.550 -11.949   0.060  0.00  0.00    +0.379 N 
ATOM      9  C   UNL     1       6.640 -13.022   0.480  0.00  0.00    -0.082 C 
ATOM     10  C   UNL     1       5.457 -12.421   1.245  0.00  0.00    -0.010 C 
ATOM     11  C   UNL     1       2.181 -11.162  -2.214  0.00  0.00    +0.247 C 
ATOM     12  O   UNL     1       1.183 -10.467  -2.225  0.00  0.00    -0.270 OA
ATOM     13  H   UNL     1       8.358 -12.353  -0.390  0.00  0.00    -0.086 HD
ATOM     14  H   UNL     1       7.846 -11.425   0.870  0.00  0.00    -0.086 HD
ENDROOT
BRANCH  11  15
ATOM     15  C   UNL     1       2.738 -11.674  -3.482  0.00  0.00    +0.037 A 
ATOM     16  C   UNL     1       3.579 -12.790  -3.477  0.00  0.00    +0.016 A 
ATOM     17  C   UNL     1       4.096 -13.265  -4.662  0.00  0.00    +0.047 A 
ATOM     18  C   UNL     1       3.783 -12.636  -5.861  0.00  0.00    +0.130 A 
ATOM     19  C   UNL     1       2.947 -11.525  -5.869  0.00  0.00    +0.047 A 
ATOM     20  C   UNL     1       2.421 -11.047  -4.690  0.00  0.00    +0.016 A 
BRANCH  18  21
ATOM     21  O   UNL     1       4.295 -13.106  -7.026  0.00  0.00    -0.406 OA
BRANCH  21  22
ATOM     22  C   UNL     1       3.932 -12.412  -8.221  0.00  0.00    +0.575 C 
ATOM     23  F   UNL     1       4.356 -11.082  -8.135  0.00  0.00    -0.133 F 
ATOM     24  F   UNL     1       4.543 -13.025  -9.320  0.00  0.00    -0.133 F 
ATOM     25  F   UNL     1       2.543 -12.449  -8.379  0.00  0.00    -0.133 F 
ENDBRANCH  21  22
ENDBRANCH  18  21
ENDBRANCH  11  15
BRANCH   1  27
ATOM     26  N   UNL     1       4.447  -8.675   2.090  0.00  0.00    -0.315 N 
ATOM     27  C   UNL     1       3.731  -9.270   1.115  0.00  0.00    +0.218 C 
ATOM     28  O   UNL     1       3.217  -8.600   0.244  0.00  0.00    -0.275 OA
ATOM     29  H   UNL     1       4.857  -9.210   2.786  0.00  0.00    +0.149 HD
BRANCH  26  30
ATOM     30  C   UNL     1       4.605  -7.218   2.097  0.00  0.00    +0.109 C 
BRANCH  30  31
ATOM     31  C   UNL     1       5.455  -6.803   3.299  0.00  0.00    +0.054 C 
BRANCH  31  35
ATOM     32  C   UNL     1       5.917  -2.555   3.320  0.00  0.00    +0.121 A 
ATOM     33  C   UNL     1       4.848  -3.141   3.982  0.00  0.00    +0.046 A 
ATOM     34  C   UNL     1       4.701  -4.514   3.974  0.00  0.00    +0.007 A 
ATOM     35  C   UNL     1       5.618  -5.305   3.306  0.00  0.00    -0.046 A 
ATOM     36  C   UNL     1       6.684  -4.724   2.645  0.00  0.00    +0.007 A 
ATOM     37  C   UNL     1       6.832  -3.350   2.646  0.00  0.00    +0.046 A 
BRANCH  32  38
ATOM     38  O   UNL     1       6.064  -1.204   3.326  0.00  0.00    -0.492 OA
BRANCH  38  40
ATOM     39  C   UNL     1       5.413   1.042   3.935  0.00  0.00    +0.048 C 
ATOM     40  C   UNL     1       5.084  -0.448   4.040  0.00  0.00    +0.225 C 
ENDBRANCH  38  40
ENDBRANCH  32  38
ENDBRANCH  31  35
ENDBRANCH  30  31
ENDBRANCH  26  30
ENDBRANCH   1  27
TORSDOF 9
