REMARK  Name = ZINC35852011
REMARK  5 active torsions:
REMARK  status: ('A' for Active; 'I' for Inactive)
REMARK    1  A    between atoms: C_1  and  C_2
REMARK    2  A    between atoms: C_7  and  C_8
REMARK    3  A    between atoms: C_13  and  C_31
REMARK    4  A    between atoms: C_31  and  C_33
REMARK    5  A    between atoms: C_37  and  N_39
REMARK                            x       y       z     vdW  Elec       q    Type
REMARK                         _______ _______ _______ _____ _____    ______ ____
ROOT
ATOM      1  C   UNL     1      -0.316   1.545   0.100  0.00  0.00    +0.044 C 
ATOM      2  C   UNL     1      -0.228   0.041   0.075  0.00  0.00    -0.046 A 
ATOM      3  C   UNL     1      -0.173  -0.626  -1.135  0.00  0.00    +0.004 A 
ATOM      4  C   UNL     1      -0.091  -2.007  -1.158  0.00  0.00    +0.008 A 
ATOM      5  C   UNL     1      -0.064  -2.716   0.023  0.00  0.00    +0.004 A 
ATOM      6  C   UNL     1      -0.119  -2.055   1.247  0.00  0.00    +0.042 A 
ATOM      7  C   UNL     1      -0.195  -0.664   1.260  0.00  0.00    -0.026 A 
ATOM      8  C   UNL     1      -0.248   0.072   2.574  0.00  0.00    +0.046 C 
ATOM      9  N   UNL     1      -0.078  -2.977   2.295  0.00  0.00    -0.283 N 
ATOM     10  C   UNL     1       0.001  -4.247   1.853  0.00  0.00    +0.243 C 
ATOM     11  O   UNL     1       0.050  -5.249   2.533  0.00  0.00    -0.273 OA
ATOM     12  C   UNL     1       0.019  -4.179   0.350  0.00  0.00    +0.137 C 
ATOM     13  C   UNL     1      -1.171  -4.953  -0.251  0.00  0.00    +0.115 C 
ATOM     14  C   UNL     1      -0.601  -6.383  -0.317  0.00  0.00    +0.102 C 
ATOM     15  C   UNL     1      -1.272  -7.197  -1.383  0.00  0.00    -0.009 A 
ATOM     16  C   UNL     1      -1.409  -7.053  -2.746  0.00  0.00    +0.006 A 
ATOM     17  C   UNL     1      -2.103  -8.001  -3.477  0.00  0.00    +0.000 A 
ATOM     18  C   UNL     1      -2.661  -9.092  -2.836  0.00  0.00    +0.002 A 
ATOM     19  C   UNL     1      -2.527  -9.241  -1.471  0.00  0.00    +0.023 A 
ATOM     20  C   UNL     1      -1.829  -8.292  -0.727  0.00  0.00    +0.038 A 
ATOM     21  N   UNL     1      -1.562  -8.222   0.642  0.00  0.00    -0.284 N 
ATOM     22  C   UNL     1      -0.842  -7.129   0.964  0.00  0.00    +0.230 C 
ATOM     23  O   UNL     1      -0.463  -6.810   2.071  0.00  0.00    -0.274 OA
ATOM     24  C   UNL     1       0.892  -6.190  -0.597  0.00  0.00    +0.078 C 
ATOM     25  N   UNL     1       1.229  -4.799  -0.207  0.00  0.00    -0.280 NA
ATOM     26  C   UNL     1       1.666  -4.070  -1.417  0.00  0.00    +0.086 C 
ATOM     27  C   UNL     1       2.165  -5.169  -2.388  0.00  0.00    +0.017 C 
ATOM     28  C   UNL     1       1.157  -6.333  -2.110  0.00  0.00    +0.021 C 
ATOM     29  H   UNL     1      -0.103  -2.731   3.233  0.00  0.00    +0.155 HD
ATOM     30  H   UNL     1      -1.859  -8.883   1.287  0.00  0.00    +0.155 HD
ENDROOT
BRANCH  13  31
ATOM     31  C   UNL     1      -1.511  -4.440  -1.627  0.00  0.00    +0.170 C 
ATOM     32  O   UNL     1      -0.671  -4.448  -2.501  0.00  0.00    -0.292 OA
BRANCH  31  33
ATOM     33  C   UNL     1      -2.862  -3.931  -1.909  0.00  0.00    +0.020 A 
ATOM     34  C   UNL     1      -3.833  -3.915  -0.902  0.00  0.00    +0.011 A 
ATOM     35  C   UNL     1      -5.096  -3.436  -1.175  0.00  0.00    +0.003 A 
ATOM     36  C   UNL     1      -5.406  -2.971  -2.441  0.00  0.00    +0.033 A 
ATOM     37  C   UNL     1      -4.452  -2.984  -3.443  0.00  0.00    +0.127 A 
ATOM     38  C   UNL     1      -3.181  -3.454  -3.185  0.00  0.00    +0.044 A 
BRANCH  37  39
ATOM     39  N   UNL     1      -4.793  -2.485  -4.794  0.00  0.00    +0.056 N 
ATOM     40  O   UNL     1      -5.905  -2.068  -5.021  0.00  0.00    -0.126 OA
ATOM     41  O   UNL     1      -3.961  -2.495  -5.671  0.00  0.00    -0.126 OA
ENDBRANCH  37  39
ENDBRANCH  31  33
ENDBRANCH  13  31
TORSDOF 3
