REMARK  Name = ZINC36632601
REMARK  7 active torsions:
REMARK  status: ('A' for Active; 'I' for Inactive)
REMARK    1  A    between atoms: C_1  and  C_2
REMARK    2  A    between atoms: C_2  and  C_3
REMARK    3  A    between atoms: C_2  and  C_4
REMARK    4  A    between atoms: C_4  and  C_6
REMARK    5  A    between atoms: C_4  and  N_22
REMARK    6  A    between atoms: N_8  and  C_9
REMARK    7  A    between atoms: C_23  and  C_25
REMARK                            x       y       z     vdW  Elec       q    Type
REMARK                         _______ _______ _______ _____ _____    ______ ____
ROOT
ATOM      1  C   UNL     1      -1.633  -0.139  -1.499  0.00  0.00    +0.238 C 
ATOM      2  O   UNL     1      -1.689  -0.950  -2.398  0.00  0.00    -0.273 OA
ATOM      3  N   UNL     1      -2.204   1.073  -1.649  0.00  0.00    -0.284 N 
ATOM      4  H   UNL     1      -2.241   1.688  -0.899  0.00  0.00    +0.155 HD
ENDROOT
BRANCH   3   5
ATOM      5  C   UNL     1      -2.743   1.445  -2.887  0.00  0.00    +0.037 A 
ATOM      6  C   UNL     1      -3.245   0.475  -3.745  0.00  0.00    +0.027 A 
ATOM      7  C   UNL     1      -3.778   0.840  -4.967  0.00  0.00    +0.051 A 
ATOM      8  C   UNL     1      -3.813   2.172  -5.339  0.00  0.00    +0.167 A 
ATOM      9  C   UNL     1      -3.310   3.149  -4.479  0.00  0.00    +0.169 A 
ATOM     10  C   UNL     1      -2.781   2.784  -3.254  0.00  0.00    +0.073 A 
ATOM     11  O   UNL     1      -3.466   4.372  -5.078  0.00  0.00    -0.447 OA
ATOM     12  C   UNL     1      -3.602   4.058  -6.471  0.00  0.00    +0.254 C 
ATOM     13  O   UNL     1      -4.279   2.793  -6.469  0.00  0.00    -0.448 OA
ATOM     14  C   UNL     1      -4.425   5.126  -7.201  0.00  0.00    +0.093 C 
ATOM     15  C   UNL     1      -3.356   6.018  -7.885  0.00  0.00    +0.008 C 
ATOM     16  C   UNL     1      -2.276   4.994  -8.318  0.00  0.00    +0.008 C 
ATOM     17  C   UNL     1      -2.242   3.967  -7.162  0.00  0.00    +0.093 C 
ENDBRANCH   3   5
BRANCH   1  18
ATOM     18  C   UNL     1      -0.927  -0.485  -0.213  0.00  0.00    +0.162 C 
BRANCH  18  19
ATOM     19  N   UNL     1      -1.069  -1.919   0.050  0.00  0.00    -0.300 N 
ATOM     20  C   UNL     1      -0.987  -2.383   1.313  0.00  0.00    +0.245 C 
ATOM     21  O   UNL     1      -0.796  -1.612   2.233  0.00  0.00    -0.270 OA
ATOM     22  H   UNL     1      -1.222  -2.535  -0.684  0.00  0.00    +0.150 HD
BRANCH  20  23
ATOM     23  C   UNL     1      -1.130  -3.829   1.579  0.00  0.00    +0.037 A 
ATOM     24  C   UNL     1      -1.344  -4.718   0.524  0.00  0.00    +0.016 A 
ATOM     25  C   UNL     1      -1.477  -6.066   0.777  0.00  0.00    +0.039 A 
ATOM     26  C   UNL     1      -1.398  -6.541   2.078  0.00  0.00    +0.123 A 
ATOM     27  C   UNL     1      -1.186  -5.662   3.130  0.00  0.00    +0.039 A 
ATOM     28  C   UNL     1      -1.046  -4.313   2.886  0.00  0.00    +0.016 A 
ATOM     29  F   UNL     1      -1.530  -7.863   2.321  0.00  0.00    -0.205 F 
ENDBRANCH  20  23
ENDBRANCH  18  19
BRANCH  18  31
ATOM     30  C   UNL     1       1.233  -0.294   1.027  0.00  0.00    +0.009 C 
ATOM     31  C   UNL     1       0.557  -0.133  -0.336  0.00  0.00    +0.012 C 
ATOM     32  C   UNL     1       1.221  -1.069  -1.348  0.00  0.00    +0.009 C 
ENDBRANCH  18  31
ENDBRANCH   1  18
TORSDOF 5
