REMARK  Name = ZINC05489520
REMARK  9 active torsions:
REMARK  status: ('A' for Active; 'I' for Inactive)
REMARK    1  A    between atoms: C_1  and  C_2
REMARK    2  A    between atoms: C_2  and  C_3
REMARK    3  A    between atoms: C_6  and  C_9
REMARK    4  A    between atoms: C_12  and  C_23
REMARK    5  A    between atoms: C_18  and  N_22
REMARK    6  A    between atoms: C_19  and  C_20
REMARK    7  A    between atoms: C_26  and  O_29
REMARK    8  A    between atoms: O_29  and  C_30
REMARK    9  A    between atoms: C_30  and  C_31
REMARK                            x       y       z     vdW  Elec       q    Type
REMARK                         _______ _______ _______ _____ _____    ______ ____
ROOT
ATOM      1  C   UNL     1      -5.419  -2.005   0.043  0.00  0.00    +0.102 C 
ATOM      2  C   UNL     1      -6.325  -1.035  -0.670  0.00  0.00    +0.054 A 
ATOM      3  C   UNL     1      -6.776   0.222  -0.257  0.00  0.00    +0.100 A 
ATOM      4  N   UNL     1      -7.550   0.709  -1.209  0.00  0.00    -0.171 NA
ATOM      5  N   UNL     1      -7.610  -0.228  -2.252  0.00  0.00    -0.246 N 
ATOM      6  H   UNL     1      -8.107  -0.129  -3.079  0.00  0.00    +0.192 HD
ATOM      7  C   UNL     1      -6.854  -1.289  -1.903  0.00  0.00    +0.223 A 
ATOM      8  O   UNL     1      -6.609  -2.437  -2.582  0.00  0.00    -0.423 OA
ATOM      9  C   UNL     1      -6.045  -3.457  -1.903  0.00  0.00    +0.200 C 
ATOM     10  C   UNL     1      -5.479  -3.326  -0.682  0.00  0.00    +0.098 C 
ENDROOT
BRANCH   1  14
ATOM     11  C   UNL     1      -1.412  -0.526   0.013  0.00  0.00    -0.048 A 
ATOM     12  C   UNL     1      -2.051  -0.766   1.215  0.00  0.00    +0.004 A 
ATOM     13  C   UNL     1      -3.348  -1.244   1.225  0.00  0.00    +0.005 A 
ATOM     14  C   UNL     1      -4.006  -1.482   0.032  0.00  0.00    -0.035 A 
ATOM     15  C   UNL     1      -3.367  -1.241  -1.170  0.00  0.00    +0.005 A 
ATOM     16  C   UNL     1      -2.072  -0.758  -1.179  0.00  0.00    +0.004 A 
BRANCH  11  18
ATOM     17  C   UNL     1      -0.019   1.526   0.010  0.00  0.00    +0.009 C 
ATOM     18  C   UNL     1       0.002  -0.004   0.002  0.00  0.00    +0.032 C 
ENDBRANCH  11  18
ENDBRANCH   1  14
BRANCH   3  19
ATOM     19  C   UNL     1      -6.444   0.891   1.026  0.00  0.00    +0.003 A 
ATOM     20  C   UNL     1      -6.278   0.135   2.185  0.00  0.00    +0.013 A 
ATOM     21  C   UNL     1      -5.969   0.759   3.375  0.00  0.00    +0.046 A 
ATOM     22  C   UNL     1      -5.824   2.138   3.420  0.00  0.00    +0.121 A 
ATOM     23  C   UNL     1      -5.989   2.894   2.267  0.00  0.00    +0.046 A 
ATOM     24  C   UNL     1      -6.291   2.275   1.073  0.00  0.00    +0.013 A 
BRANCH  22  25
ATOM     25  O   UNL     1      -5.519   2.751   4.594  0.00  0.00    -0.492 OA
BRANCH  25  26
ATOM     26  C   UNL     1      -5.384   4.173   4.569  0.00  0.00    +0.225 C 
ATOM     27  C   UNL     1      -5.043   4.678   5.972  0.00  0.00    +0.048 C 
ENDBRANCH  25  26
ENDBRANCH  22  25
ENDBRANCH   3  19
BRANCH   9  28
ATOM     28  N   UNL     1      -6.047  -4.700  -2.484  0.00  0.00    -0.328 N 
ATOM     29  H   UNL     1      -6.446  -4.826  -3.359  0.00  0.00    +0.145 HD
ATOM     30  H   UNL     1      -5.650  -5.454  -2.020  0.00  0.00    +0.145 HD
ENDBRANCH   9  28
BRANCH  10  31
ATOM     31  C   UNL     1      -4.915  -4.483  -0.054  0.00  0.00    +0.101 C 
ATOM     32  N   UNL     1      -4.467  -5.401   0.444  0.00  0.00    -0.191 NA
ENDBRANCH  10  31
TORSDOF 7
