REMARK  Name = ZINC34761251
REMARK  11 active torsions:
REMARK  status: ('A' for Active; 'I' for Inactive)
REMARK    1  A    between atoms: C_1  and  C_2
REMARK    2  A    between atoms: C_2  and  C_3
REMARK    3  A    between atoms: C_3  and  C_4
REMARK    4  A    between atoms: C_4  and  N_5
REMARK    5  A    between atoms: C_13  and  C_26
REMARK    6  A    between atoms: C_14  and  C_25
REMARK    7  A    between atoms: C_18  and  S_20
REMARK    8  A    between atoms: S_20  and  C_21
REMARK    9  A    between atoms: C_21  and  C_22
REMARK   10  A    between atoms: C_22  and  C_24
REMARK   11  A    between atoms: C_26  and  C_27
REMARK                            x       y       z     vdW  Elec       q    Type
REMARK                         _______ _______ _______ _____ _____    ______ ____
ROOT
ATOM      1  N   UNL     1       2.029  -1.626   3.264  0.00  0.00    +0.382 N 
ATOM      2  C   UNL     1       2.959  -1.881   4.370  0.00  0.00    -0.060 C 
ATOM      3  C   UNL     1       3.118  -3.393   4.565  0.00  0.00    +0.088 C 
ATOM      4  N   UNL     1       1.782  -3.982   4.746  0.00  0.00    -0.318 N 
ATOM      5  C   UNL     1       0.737  -3.645   3.767  0.00  0.00    +0.088 C 
ATOM      6  C   UNL     1       0.691  -2.122   3.610  0.00  0.00    -0.060 C 
ATOM      7  C   UNL     1       1.517  -4.829   5.806  0.00  0.00    +0.134 A 
ATOM      8  C   UNL     1       1.751  -6.228   5.685  0.00  0.00    +0.051 A 
ATOM      9  C   UNL     1       2.261  -6.988   4.557  0.00  0.00    -0.025 A 
ATOM     10  C   UNL     1       2.402  -8.316   4.672  0.00  0.00    -0.007 A 
ATOM     11  S   UNL     1       1.849  -8.651   6.334  0.00  0.00    -0.073 S 
ATOM     12  C   UNL     1       1.445  -6.996   6.829  0.00  0.00    +0.115 A 
ATOM     13  N   UNL     1       0.974  -6.440   7.928  0.00  0.00    -0.215 NA
ATOM     14  C   UNL     1       0.774  -5.130   7.982  0.00  0.00    +0.191 A 
ATOM     15  N   UNL     1       1.048  -4.348   6.944  0.00  0.00    -0.206 NA
ATOM     16  C   UNL     1       2.906  -9.294   3.643  0.00  0.00    +0.052 C 
ATOM     17  H   UNL     1       2.358  -2.099   2.435  0.00  0.00    -0.082 HD
ENDROOT
BRANCH   9  18
ATOM     18  C   UNL     1       2.628  -6.292   3.272  0.00  0.00    +0.033 C 
ATOM     19  C   UNL     1       4.131  -6.006   3.257  0.00  0.00    +0.009 C 
ENDBRANCH   9  18
BRANCH   1  20
ATOM     20  C   UNL     1       1.962  -0.181   3.006  0.00  0.00    -0.079 C 
BRANCH  20  21
ATOM     21  C   UNL     1       3.327   0.315   2.524  0.00  0.00    -0.019 C 
BRANCH  21  23
ATOM     22  C   UNL     1       4.622   2.316   1.774  0.00  0.00    +0.004 C 
ATOM     23  C   UNL     1       3.257   1.820   2.256  0.00  0.00    -0.005 C 
ENDBRANCH  21  23
ENDBRANCH  20  21
ENDBRANCH   1  20
BRANCH  14  24
ATOM     24  S   UNL     1       0.143  -4.413   9.463  0.00  0.00    -0.082 S 
BRANCH  24  25
ATOM     25  C   UNL     1      -0.065  -5.826  10.581  0.00  0.00    +0.107 C 
BRANCH  25  26
ATOM     26  C   UNL     1      -0.607  -5.345  11.903  0.00  0.00    -0.069 C 
ATOM     27  C   UNL     1      -1.863  -5.552  12.210  0.00  0.00    +0.008 C 
ATOM     28  C   UNL     1       0.298  -4.627  12.871  0.00  0.00    +0.039 C 
ENDBRANCH  25  26
ENDBRANCH  24  25
ENDBRANCH  14  24
TORSDOF 7
