REMARK  Name = ZINC18163341
REMARK  7 active torsions:
REMARK  status: ('A' for Active; 'I' for Inactive)
REMARK    1  A    between atoms: C_1  and  C_2
REMARK    2  A    between atoms: C_5  and  N_9
REMARK    3  A    between atoms: C_6  and  C_8
REMARK    4  A    between atoms: N_12  and  C_13
REMARK    5  A    between atoms: C_19  and  C_21
REMARK    6  A    between atoms: C_21  and  O_22
REMARK    7  A    between atoms: O_22  and  C_23
REMARK                            x       y       z     vdW  Elec       q    Type
REMARK                         _______ _______ _______ _____ _____    ______ ____
ROOT
ATOM      1  N   UNL     1       0.525  -4.210  -0.121  0.00  0.00    -0.326 N 
ATOM      2  C   UNL     1       0.346  -4.954  -1.254  0.00  0.00    +0.203 C 
ATOM      3  N   UNL     1       0.663  -4.427  -2.474  0.00  0.00    -0.369 N 
ATOM      4  N   UNL     1      -0.133  -6.184  -1.169  0.00  0.00    -0.179 NA
ATOM      5  H   UNL     1       1.065  -4.989  -3.155  0.00  0.00    +0.159 HD
ATOM      6  H   UNL     1       0.487  -3.492  -2.658  0.00  0.00    +0.159 HD
ATOM      7  H   UNL     1       0.879  -3.310  -0.183  0.00  0.00    +0.169 HD
ENDROOT
BRANCH   1  12
ATOM      8  C   UNL     1      -0.806  -6.393   4.943  0.00  0.00    +0.044 C 
ATOM      9  C   UNL     1      -0.452  -5.814   3.598  0.00  0.00    -0.050 A 
ATOM     10  C   UNL     1      -1.185  -6.168   2.479  0.00  0.00    +0.005 A 
ATOM     11  C   UNL     1      -0.864  -5.638   1.245  0.00  0.00    +0.026 A 
ATOM     12  C   UNL     1       0.197  -4.749   1.128  0.00  0.00    +0.045 A 
ATOM     13  C   UNL     1       0.930  -4.395   2.252  0.00  0.00    -0.027 A 
ATOM     14  C   UNL     1       0.601  -4.925   3.485  0.00  0.00    +0.008 A 
ATOM     15  C   UNL     1       2.082  -3.432   2.129  0.00  0.00    +0.046 C 
ENDBRANCH   1  12
BRANCH   4  16
ATOM     16  C   UNL     1      -0.434  -6.865  -2.286  0.00  0.00    +0.234 A 
ATOM     17  N   UNL     1      -0.807  -8.178  -2.194  0.00  0.00    -0.291 N 
ATOM     18  H   UNL     1      -0.853  -8.612  -1.328  0.00  0.00    +0.172 HD
ATOM     19  C   UNL     1      -1.112  -8.866  -3.315  0.00  0.00    +0.253 A 
ATOM     20  O   UNL     1      -1.447 -10.038  -3.253  0.00  0.00    -0.268 OA
ATOM     21  C   UNL     1      -1.037  -8.209  -4.555  0.00  0.00    +0.096 A 
ATOM     22  C   UNL     1      -0.658  -6.896  -4.588  0.00  0.00    +0.076 A 
ATOM     23  N   UNL     1      -0.372  -6.254  -3.461  0.00  0.00    -0.215 NA
BRANCH  22  24
ATOM     24  C   UNL     1      -0.571  -6.173  -5.907  0.00  0.00    +0.215 C 
BRANCH  24  25
ATOM     25  O   UNL     1      -1.548  -5.131  -5.944  0.00  0.00    -0.377 OA
ATOM     26  C   UNL     1      -1.550  -4.379  -7.160  0.00  0.00    +0.194 C 
ENDBRANCH  24  25
ENDBRANCH  22  24
ENDBRANCH   4  16
TORSDOF 4
