REMARK  Name = ZINC01470912
REMARK  4 active torsions:
REMARK  status: ('A' for Active; 'I' for Inactive)
REMARK    1  A    between atoms: C_1  and  C_2
REMARK    2  A    between atoms: C_7  and  N_8
REMARK    3  A    between atoms: N_11  and  C_13
REMARK    4  A    between atoms: C_13  and  C_23
REMARK                            x       y       z     vdW  Elec       q    Type
REMARK                         _______ _______ _______ _____ _____    ______ ____
ROOT
ATOM      1  N   UNL     1       1.134   4.729  -4.000  0.00  0.00    -0.269 N 
ATOM      2  C   UNL     1       1.070   4.576  -2.663  0.00  0.00    +0.310 C 
ATOM      3  O   UNL     1       0.488   3.620  -2.188  0.00  0.00    -0.252 OA
ATOM      4  N   UNL     1       1.650   5.482  -1.852  0.00  0.00    -0.220 N 
ATOM      5  H   UNL     1       2.115   6.245  -2.231  0.00  0.00    +0.158 HD
ATOM      6  H   UNL     1       1.526   5.532  -4.378  0.00  0.00    +0.156 HD
ENDROOT
BRANCH   4   7
ATOM      7  C   UNL     1       1.580   5.316  -0.398  0.00  0.00    +0.436 C 
ATOM      8  O   UNL     1       2.179   4.068  -0.002  0.00  0.00    -0.426 OA
ATOM      9  C   UNL     1       1.160   3.160   0.005  0.00  0.00    +0.169 A 
ATOM     10  C   UNL     1       1.164   1.775  -0.005  0.00  0.00    +0.051 A 
ATOM     11  C   UNL     1      -0.031   1.079   0.006  0.00  0.00    +0.024 A 
ATOM     12  C   UNL     1      -1.233   1.764   0.021  0.00  0.00    +0.045 A 
ATOM     13  C   UNL     1      -1.244   3.147   0.036  0.00  0.00    +0.069 A 
ATOM     14  C   UNL     1      -0.050   3.850   0.025  0.00  0.00    +0.170 A 
ATOM     15  O   UNL     1       0.212   5.190   0.031  0.00  0.00    -0.426 OA
ATOM     16 CL   UNL     1      -2.731   0.886   0.027  0.00  0.00    -0.083 Cl
BRANCH   7  17
ATOM     17  C   UNL     1       2.260   6.488   0.312  0.00  0.00    +0.490 C 
ATOM     18  F   UNL     1       3.615   6.521  -0.035  0.00  0.00    -0.162 F 
ATOM     19  F   UNL     1       1.651   7.686  -0.077  0.00  0.00    -0.162 F 
ATOM     20  F   UNL     1       2.137   6.330   1.696  0.00  0.00    -0.162 F 
ENDBRANCH   7  17
ENDBRANCH   4   7
BRANCH   1  27
ATOM     21  C   UNL     1       0.293   5.474  -6.614  0.00  0.00    +0.046 C 
ATOM     22  C   UNL     1       0.214   4.050  -6.128  0.00  0.00    -0.028 A 
ATOM     23  C   UNL     1      -0.273   3.061  -6.960  0.00  0.00    +0.025 A 
ATOM     24  C   UNL     1      -0.352   1.754  -6.512  0.00  0.00    +0.041 A 
ATOM     25  C   UNL     1       0.062   1.433  -5.231  0.00  0.00    +0.022 A 
ATOM     26  C   UNL     1       0.554   2.417  -4.397  0.00  0.00    +0.025 A 
ATOM     27  C   UNL     1       0.635   3.730  -4.844  0.00  0.00    +0.038 A 
ATOM     28 CL   UNL     1      -0.972   0.515  -7.558  0.00  0.00    -0.084 Cl
ENDBRANCH   1  27
TORSDOF 3
