REMARK  Name = ZINC49182970
REMARK  7 active torsions:
REMARK  status: ('A' for Active; 'I' for Inactive)
REMARK    1  A    between atoms: C_1  and  C_2
REMARK    2  A    between atoms: C_2  and  C_3
REMARK    3  A    between atoms: C_2  and  C_4
REMARK    4  A    between atoms: C_4  and  N_5
REMARK    5  A    between atoms: N_8  and  N_9
REMARK    6  A    between atoms: C_10  and  C_12
REMARK    7  A    between atoms: C_13  and  C_14
REMARK                            x       y       z     vdW  Elec       q    Type
REMARK                         _______ _______ _______ _____ _____    ______ ____
ROOT
ATOM      1  N   UNL     1      -1.435   0.569   4.652  0.00  0.00    -0.230 N 
ATOM      2  C   UNL     1      -2.125   0.910   5.758  0.00  0.00    +0.253 C 
ATOM      3  O   UNL     1      -1.705   0.600   6.858  0.00  0.00    -0.269 OA
ATOM      4  H   UNL     1      -1.769   0.817   3.776  0.00  0.00    +0.173 HD
ENDROOT
BRANCH   1   8
ATOM      5  N   UNL     1      -0.008  -0.140   2.444  0.00  0.00    -0.298 N 
ATOM      6  C   UNL     1       0.457  -0.484   3.661  0.00  0.00    +0.316 C 
ATOM      7  O   UNL     1       1.499  -1.102   3.762  0.00  0.00    -0.251 OA
ATOM      8  N   UNL     1      -0.234  -0.143   4.767  0.00  0.00    -0.218 N 
ATOM      9  H   UNL     1      -0.840   0.353   2.364  0.00  0.00    +0.150 HD
ATOM     10  H   UNL     1       0.101  -0.391   5.644  0.00  0.00    +0.174 HD
BRANCH   5  11
ATOM     11  C   UNL     1       0.742  -0.511   1.242  0.00  0.00    +0.108 C 
BRANCH  11  13
ATOM     12  C   UNL     1      -0.019   1.526   0.010  0.00  0.00    +0.009 C 
ATOM     13  C   UNL     1       0.002  -0.004   0.002  0.00  0.00    -0.000 C 
ATOM     14  C   UNL     1       0.718  -0.497  -1.257  0.00  0.00    +0.009 C 
ENDBRANCH  11  13
ENDBRANCH   5  11
ENDBRANCH   1   8
BRANCH   2  15
ATOM     15  C   UNL     1      -3.338   1.630   5.641  0.00  0.00    +0.072 C 
ATOM     16  C   UNL     1      -4.033   1.973   6.755  0.00  0.00    +0.051 C 
BRANCH  16  17
ATOM     17  C   UNL     1      -5.246   2.693   6.638  0.00  0.00    +0.129 A 
ATOM     18  C   UNL     1      -6.048   3.109   7.681  0.00  0.00    +0.050 A 
ATOM     19  C   UNL     1      -7.136   3.780   7.104  0.00  0.00    +0.056 A 
ATOM     20  C   UNL     1      -6.962   3.747   5.763  0.00  0.00    +0.165 A 
ATOM     21  O   UNL     1      -5.822   3.099   5.487  0.00  0.00    -0.450 OA
ATOM     22  I   UNL     1      -8.260   4.584   4.347  0.00  0.00    -0.001 I 
ENDBRANCH  16  17
ENDBRANCH   2  15
TORSDOF 5
