REMARK  Name = ZINC39711184
REMARK  12 active torsions:
REMARK  status: ('A' for Active; 'I' for Inactive)
REMARK    1  A    between atoms: C_1  and  C_2
REMARK    2  A    between atoms: C_5  and  C_40
REMARK    3  A    between atoms: C_6  and  N_8
REMARK    4  A    between atoms: N_11  and  C_14
REMARK    5  A    between atoms: C_14  and  C_16
REMARK    6  A    between atoms: C_14  and  C_30
REMARK    7  A    between atoms: C_21  and  C_29
REMARK    8  A    between atoms: C_22  and  C_28
REMARK    9  A    between atoms: N_35  and  C_36
REMARK   10  A    between atoms: C_36  and  C_37
REMARK   11  A    between atoms: C_36  and  C_38
REMARK   12  A    between atoms: C_36  and  C_39
REMARK                            x       y       z     vdW  Elec       q    Type
REMARK                         _______ _______ _______ _____ _____    ______ ____
ROOT
ATOM      1  C   UNL     1       1.666  -6.964   4.278  0.00  0.00    -0.009 C 
ENDROOT
BRANCH   1   2
ATOM      2  C   UNL     1       0.266  -7.420   4.694  0.00  0.00    +0.088 C 
ATOM      3  C   UNL     1      -0.244  -6.456   5.747  0.00  0.00    -0.006 C 
ATOM      4  C   UNL     1      -0.591  -6.979   6.958  0.00  0.00    -0.007 A 
ATOM      5  C   UNL     1      -1.092  -6.120   8.031  0.00  0.00    +0.013 A 
ATOM      6  C   UNL     1      -1.426  -6.684   9.220  0.00  0.00    -0.047 A 
ATOM      7  C   UNL     1      -1.300  -8.057   9.433  0.00  0.00    -0.046 A 
ATOM      8  C   UNL     1      -0.841  -8.908   8.479  0.00  0.00    +0.027 A 
ATOM      9  C   UNL     1      -0.468  -8.425   7.211  0.00  0.00    +0.041 A 
ATOM     10  N   UNL     1      -0.020  -9.269   6.282  0.00  0.00    -0.285 N 
ATOM     11  C   UNL     1       0.348  -8.882   5.072  0.00  0.00    +0.223 C 
ATOM     12  O   UNL     1       0.750  -9.700   4.266  0.00  0.00    -0.275 OA
ATOM     13  C   UNL     1      -1.688  -8.619  10.777  0.00  0.00    +0.044 C 
ATOM     14  C   UNL     1      -1.943  -5.809  10.333  0.00  0.00    +0.044 C 
ATOM     15  H   UNL     1       0.040 -10.211   6.503  0.00  0.00    +0.155 HD
ENDBRANCH   1   2
BRANCH   1  19
ATOM     16  N   UNL     1       1.750  -3.409   2.072  0.00  0.00    -0.333 N 
ATOM     17  C   UNL     1       2.902  -3.681   2.946  0.00  0.00    +0.086 C 
ATOM     18  C   UNL     1       2.914  -5.175   3.283  0.00  0.00    -0.059 C 
ATOM     19  N   UNL     1       1.617  -5.558   3.854  0.00  0.00    +0.387 N 
ATOM     20  C   UNL     1       0.559  -5.388   2.850  0.00  0.00    -0.059 C 
ATOM     21  C   UNL     1       0.429  -3.900   2.494  0.00  0.00    +0.086 C 
ATOM     22  H   UNL     1       1.417  -4.975   4.653  0.00  0.00    -0.081 HD
BRANCH  16  28
ATOM     23  C   UNL     1       1.813   0.881  -0.324  0.00  0.00    +0.044 C 
ATOM     24  C   UNL     1       1.941  -0.620  -0.313  0.00  0.00    -0.049 A 
ATOM     25  C   UNL     1       2.213  -1.299  -1.487  0.00  0.00    +0.004 A 
ATOM     26  C   UNL     1       2.331  -2.677  -1.482  0.00  0.00    +0.005 A 
ATOM     27  C   UNL     1       2.178  -3.380  -0.303  0.00  0.00    -0.029 A 
ATOM     28  C   UNL     1       1.905  -2.701   0.878  0.00  0.00    +0.033 A 
ATOM     29  C   UNL     1       1.793  -1.317   0.870  0.00  0.00    +0.026 A 
ATOM     30  C   UNL     1       2.306  -4.881  -0.298  0.00  0.00    +0.045 C 
ENDBRANCH  16  28
ENDBRANCH   1  19
BRANCH   1  31
ATOM     31  C   UNL     1       2.622  -7.106   5.465  0.00  0.00    +0.205 C 
ATOM     32  N   UNL     1       2.347  -6.072   6.471  0.00  0.00    -0.152 NA
ATOM     33  N   UNL     1       3.350  -5.368   6.605  0.00  0.00    -0.070 NA
ATOM     34  N   UNL     1       4.403  -5.763   5.781  0.00  0.00    -0.179 N 
ATOM     35  N   UNL     1       4.014  -6.850   5.038  0.00  0.00    -0.183 NA
ATOM     36  H   UNL     1       5.274  -5.337   5.739  0.00  0.00    +0.191 HD
BRANCH  35  37
ATOM     37  C   UNL     1       4.870  -8.012   5.313  0.00  0.00    +0.035 C 
ATOM     38  C   UNL     1       4.322  -9.235   4.576  0.00  0.00    +0.029 C 
ATOM     39  C   UNL     1       6.293  -7.722   4.833  0.00  0.00    +0.029 C 
ATOM     40  C   UNL     1       4.886  -8.288   6.818  0.00  0.00    +0.029 C 
ENDBRANCH  35  37
ENDBRANCH   1  31
TORSDOF 5
