REMARK  Name = ZINC38901526
REMARK  2 active torsions:
REMARK  status: ('A' for Active; 'I' for Inactive)
REMARK    1  A    between atoms: C_3  and  N_6
REMARK    2  A    between atoms: N_9  and  C_10
REMARK                            x       y       z     vdW  Elec       q    Type
REMARK                         _______ _______ _______ _____ _____    ______ ____
ROOT
ATOM      1  C   UNL     1       6.987   0.432  -0.153  0.00  0.00    +0.036 A 
ATOM      2  C   UNL     1       6.678  -0.919  -0.259  0.00  0.00    +0.027 A 
ATOM      3  C   UNL     1       7.685  -1.856  -0.376  0.00  0.00    +0.049 A 
ATOM      4  C   UNL     1       9.014  -1.456  -0.382  0.00  0.00    +0.141 A 
ATOM      5  C   UNL     1       9.334  -0.100  -0.255  0.00  0.00    +0.081 A 
ATOM      6  C   UNL     1       8.308   0.845  -0.158  0.00  0.00    +0.040 A 
ATOM      7  C   UNL     1      10.736   0.337  -0.192  0.00  0.00    +0.252 C 
ATOM      8  O   UNL     1      11.007   1.245   0.569  0.00  0.00    -0.270 OA
ATOM      9  N   UNL     1      11.727  -0.184  -0.902  0.00  0.00    -0.278 N 
ATOM     10  C   UNL     1      11.617  -1.210  -1.840  0.00  0.00    +0.078 A 
ATOM     11  C   UNL     1      12.363  -1.133  -3.011  0.00  0.00    +0.047 A 
ATOM     12  C   UNL     1      12.297  -2.148  -3.947  0.00  0.00    +0.043 A 
ATOM     13  C   UNL     1      11.489  -3.247  -3.721  0.00  0.00    +0.024 A 
ATOM     14  C   UNL     1      10.738  -3.326  -2.564  0.00  0.00    +0.049 A 
ATOM     15  C   UNL     1      10.789  -2.304  -1.626  0.00  0.00    +0.150 A 
ATOM     16  O   UNL     1       9.991  -2.380  -0.532  0.00  0.00    -0.453 OA
ATOM     17 CL   UNL     1      13.229  -2.042  -5.408  0.00  0.00    -0.083 Cl
ATOM     18  H   UNL     1      12.612   0.184  -0.755  0.00  0.00    +0.155 HD
ENDROOT
BRANCH   1  22
ATOM     19  N   UNL     1       5.070   3.464  -0.608  0.00  0.00    -0.264 N 
ATOM     20  C   UNL     1       6.094   2.588  -0.629  0.00  0.00    +0.308 C 
ATOM     21  O   UNL     1       7.140   2.888  -1.173  0.00  0.00    -0.252 OA
ATOM     22  N   UNL     1       5.959   1.379  -0.048  0.00  0.00    -0.269 N 
ATOM     23  H   UNL     1       4.236   3.225  -0.174  0.00  0.00    +0.157 HD
ATOM     24  H   UNL     1       5.151   1.165   0.443  0.00  0.00    +0.156 HD
BRANCH  19  27
ATOM     25  C   UNL     1       4.673   6.897  -1.949  0.00  0.00    +0.009 A 
ATOM     26  C   UNL     1       4.307   5.733  -1.297  0.00  0.00    +0.031 A 
ATOM     27  C   UNL     1       5.210   4.718  -1.210  0.00  0.00    +0.073 A 
ATOM     28  S   UNL     1       6.619   5.403  -2.065  0.00  0.00    -0.082 S 
ATOM     29  C   UNL     1       5.916   6.991  -2.480  0.00  0.00    +0.047 A 
ENDBRANCH  19  27
ENDBRANCH   1  22
TORSDOF 2
