REMARK  Name = ZINC36186175
REMARK  6 active torsions:
REMARK  status: ('A' for Active; 'I' for Inactive)
REMARK    1  A    between atoms: C_3  and  N_23
REMARK    2  A    between atoms: C_6  and  C_7
REMARK    3  A    between atoms: C_7  and  C_8
REMARK    4  A    between atoms: N_10  and  C_11
REMARK    5  A    between atoms: C_11  and  C_12
REMARK    6  A    between atoms: N_16  and  C_18
REMARK                            x       y       z     vdW  Elec       q    Type
REMARK                         _______ _______ _______ _____ _____    ______ ____
ROOT
ATOM      1  C   UNL     1      -0.017   1.379   0.010  0.00  0.00    +0.006 A 
ATOM      2  C   UNL     1       1.167   2.088   0.002  0.00  0.00    +0.028 A 
ATOM      3  C   UNL     1       2.385   1.407  -0.013  0.00  0.00    +0.067 A 
ATOM      4  C   UNL     1       2.397   0.011  -0.021  0.00  0.00    +0.028 A 
ATOM      5  C   UNL     1       1.206  -0.686  -0.013  0.00  0.00    +0.006 A 
ATOM      6  C   UNL     1       0.002  -0.004   0.002  0.00  0.00    -0.038 A 
ENDROOT
BRANCH   3   7
ATOM      7  N   UNL     1       3.563   2.104  -0.021  0.00  0.00    -0.226 NA
ATOM      8  C   UNL     1       4.546   1.743   0.772  0.00  0.00    +0.155 C 
ATOM      9  N   UNL     1       5.787   2.329   0.897  0.00  0.00    -0.318 N 
ATOM     10  C   UNL     1       6.710   1.805   1.890  0.00  0.00    +0.108 C 
ATOM     11  C   UNL     1       8.169   1.955   1.420  0.00  0.00    +0.189 C 
ATOM     12  S   UNL     1       8.549   0.310   0.695  0.00  0.00    -0.028 S 
ATOM     13  O   UNL     1       9.578  -0.305   1.458  0.00  0.00    -0.174 OA
ATOM     14  O   UNL     1       8.709   0.451  -0.710  0.00  0.00    -0.174 OA
ATOM     15  C   UNL     1       6.957  -0.551   1.033  0.00  0.00    +0.182 C 
ATOM     16  C   UNL     1       6.402   0.305   2.177  0.00  0.00    +0.097 C 
ATOM     17  S   UNL     1       4.569   0.384   1.936  0.00  0.00    -0.084 S 
ATOM     18  H   UNL     1       6.040   3.077   0.333  0.00  0.00    +0.148 HD
ENDBRANCH   3   7
BRANCH   6  19
ATOM     19  C   UNL     1      -1.295  -0.772   0.010  0.00  0.00    +0.130 C 
BRANCH  19  20
ATOM     20  C   UNL     1      -1.740  -1.020  -1.408  0.00  0.00    +0.217 C 
ATOM     21  O   UNL     1      -1.071  -0.614  -2.334  0.00  0.00    -0.275 OA
ATOM     22  N   UNL     1      -2.883  -1.694  -1.647  0.00  0.00    -0.315 N 
ATOM     23  H   UNL     1      -3.418  -2.019  -0.906  0.00  0.00    +0.149 HD
BRANCH  22  24
ATOM     24  C   UNL     1      -3.317  -1.935  -3.025  0.00  0.00    +0.105 C 
BRANCH  24  25
ATOM     25  C   UNL     1      -4.633  -2.715  -3.017  0.00  0.00    -0.012 C 
ATOM     26  C   UNL     1      -5.786  -1.836  -2.479  0.00  0.00    -0.015 C 
ATOM     27  C   UNL     1      -6.998  -2.177  -3.365  0.00  0.00    -0.078 C 
ATOM     28  N   UNL     1      -6.557  -3.212  -4.325  0.00  0.00    +0.382 N 
ATOM     29  C   UNL     1      -5.086  -3.042  -4.462  0.00  0.00    -0.074 C 
ATOM     30  H   UNL     1      -6.766  -4.131  -3.965  0.00  0.00    -0.081 HD
BRANCH  28  31
ATOM     31  C   UNL     1      -7.215  -3.013  -5.623  0.00  0.00    -0.069 C 
ATOM     32  C   UNL     1      -8.738  -3.211  -5.480  0.00  0.00    -0.015 C 
ATOM     33  C   UNL     1      -9.155  -3.912  -6.797  0.00  0.00    -0.002 C 
ATOM     34  C   UNL     1      -7.970  -4.873  -7.062  0.00  0.00    -0.002 C 
ATOM     35  C   UNL     1      -6.726  -4.070  -6.629  0.00  0.00    -0.015 C 
ENDBRANCH  28  31
ENDBRANCH  24  25
ENDBRANCH  22  24
ENDBRANCH  19  20
ENDBRANCH   6  19
TORSDOF 6
