REMARK  Name = ZINC12456177
REMARK  7 active torsions:
REMARK  status: ('A' for Active; 'I' for Inactive)
REMARK    1  A    between atoms: C_4  and  C_7
REMARK    2  A    between atoms: C_7  and  C_9
REMARK    3  A    between atoms: C_7  and  N_57
REMARK    4  A    between atoms: C_16  and  C_17
REMARK    5  A    between atoms: C_16  and  N_57
REMARK    6  A    between atoms: N_25  and  C_28
REMARK    7  A    between atoms: C_28  and  C_29
REMARK                            x       y       z     vdW  Elec       q    Type
REMARK                         _______ _______ _______ _____ _____    ______ ____
ROOT
ATOM      1  C   UNL     1      -3.657   1.758   0.028  0.00  0.00    +0.001 A 
ATOM      2  C   UNL     1      -2.506   1.040   0.019  0.00  0.00    +0.017 A 
ATOM      3  C   UNL     1      -1.232   1.762   0.017  0.00  0.00    -0.001 A 
ATOM      4  C   UNL     1      -0.013   1.076   0.008  0.00  0.00    +0.013 A 
ATOM      5  C   UNL     1       1.159   1.777   0.001  0.00  0.00    +0.039 A 
ATOM      6  C   UNL     1       1.150   3.168   0.008  0.00  0.00    +0.125 A 
ATOM      7  C   UNL     1      -0.042   3.864   0.023  0.00  0.00    +0.064 A 
ATOM      8  C   UNL     1      -1.246   3.170   0.030  0.00  0.00    +0.055 A 
ATOM      9  N   UNL     1      -2.451   3.840   0.045  0.00  0.00    -0.302 N 
ATOM     10  C   UNL     1      -3.616   3.168   0.035  0.00  0.00    +0.253 A 
ATOM     11  O   UNL     1      -4.662   3.793   0.043  0.00  0.00    -0.267 OA
ATOM     12  F   UNL     1       2.320   3.844   0.000  0.00  0.00    -0.205 F 
ENDROOT
BRANCH   1  13
ATOM     13  C   UNL     1      -4.985   1.046   0.031  0.00  0.00    -0.040 C 
BRANCH  13  14
ATOM     14  N   UNL     1      -5.462   0.918   1.421  0.00  0.00    +0.389 N 
ATOM     15  H   UNL     1      -4.778   0.380   1.966  0.00  0.00    -0.084 HD
ATOM     16  H   UNL     1      -5.567   1.853   1.830  0.00  0.00    -0.084 HD
BRANCH  14  17
ATOM     17  C   UNL     1      -6.763   0.223   1.453  0.00  0.00    -0.010 C 
BRANCH  17  18
ATOM     18  C   UNL     1      -6.940  -0.432   2.799  0.00  0.00    -0.057 A 
ATOM     19  C   UNL     1      -6.529   0.222   3.945  0.00  0.00    +0.004 A 
ATOM     20  C   UNL     1      -6.697  -0.376   5.180  0.00  0.00    +0.020 A 
ATOM     21  C   UNL     1      -7.265  -1.634   5.268  0.00  0.00    +0.041 A 
ATOM     22  C   UNL     1      -7.671  -2.291   4.119  0.00  0.00    +0.020 A 
ATOM     23  C   UNL     1      -7.509  -1.689   2.886  0.00  0.00    +0.004 A 
ATOM     24 CL   UNL     1      -7.469  -2.389   6.817  0.00  0.00    -0.084 Cl
ENDBRANCH  17  18
BRANCH  17  28
ATOM     25  C   UNL     1      -9.905   3.048   0.821  0.00  0.00    +0.000 A 
ATOM     26  C   UNL     1      -9.974   1.795   0.240  0.00  0.00    +0.000 A 
ATOM     27  C   UNL     1      -8.957   0.881   0.445  0.00  0.00    +0.002 A 
ATOM     28  C   UNL     1      -7.871   1.220   1.230  0.00  0.00    -0.057 A 
ATOM     29  C   UNL     1      -7.804   2.470   1.815  0.00  0.00    +0.002 A 
ATOM     30  C   UNL     1      -8.819   3.386   1.607  0.00  0.00    +0.000 A 
ENDBRANCH  17  28
ENDBRANCH  14  17
ENDBRANCH  13  14
ENDBRANCH   1  13
BRANCH   9  31
ATOM     31  C   UNL     1      -2.462   5.305   0.053  0.00  0.00    +0.180 C 
BRANCH  31  32
ATOM     32  C   UNL     1      -2.479   5.815  -1.365  0.00  0.00    +0.061 A 
ATOM     33  C   UNL     1      -3.684   6.135  -1.961  0.00  0.00    +0.025 A 
ATOM     34  C   UNL     1      -3.689   6.604  -3.266  0.00  0.00    +0.003 A 
ATOM     35  C   UNL     1      -2.476   6.733  -3.925  0.00  0.00    +0.020 A 
ATOM     36  C   UNL     1      -1.311   6.393  -3.264  0.00  0.00    +0.111 A 
ATOM     37  N   UNL     1      -1.344   5.955  -2.020  0.00  0.00    -0.258 NA
ENDBRANCH  31  32
ENDBRANCH   9  31
TORSDOF 7
