REMARK  Name = ZINC01114305
REMARK  4 active torsions:
REMARK  status: ('A' for Active; 'I' for Inactive)
REMARK    1  A    between atoms: C_6  and  C_7
REMARK    2  A    between atoms: C_7  and  N_8
REMARK    3  A    between atoms: N_11  and  C_12
REMARK    4  A    between atoms: C_12  and  C_22
REMARK                            x       y       z     vdW  Elec       q    Type
REMARK                         _______ _______ _______ _____ _____    ______ ____
ROOT
ATOM      1  N   UNL     1      -2.602   2.498  -3.988  0.00  0.00    -0.295 N 
ATOM      2  C   UNL     1      -2.429   2.492  -2.651  0.00  0.00    +0.306 C 
ATOM      3  O   UNL     1      -1.309   2.542  -2.182  0.00  0.00    -0.253 OA
ATOM      4  N   UNL     1      -3.500   2.432  -1.834  0.00  0.00    -0.220 N 
ATOM      5  H   UNL     1      -3.496   2.458  -4.362  0.00  0.00    +0.151 HD
ATOM      6  H   UNL     1      -4.394   2.393  -2.208  0.00  0.00    +0.158 HD
ENDROOT
BRANCH   4   7
ATOM      7  C   UNL     1      -3.313   2.427  -0.381  0.00  0.00    +0.436 C 
ATOM      8  O   UNL     1      -2.510   1.301   0.021  0.00  0.00    -0.426 OA
ATOM      9  C   UNL     1      -1.222   1.752   0.017  0.00  0.00    +0.169 A 
ATOM     10  C   UNL     1      -0.013   1.076   0.008  0.00  0.00    +0.051 A 
ATOM     11  C   UNL     1       1.175   1.783   0.000  0.00  0.00    +0.024 A 
ATOM     12  C   UNL     1       1.160   3.166   0.008  0.00  0.00    +0.045 A 
ATOM     13  C   UNL     1      -0.044   3.847   0.024  0.00  0.00    +0.069 A 
ATOM     14  C   UNL     1      -1.238   3.144   0.031  0.00  0.00    +0.170 A 
ATOM     15  O   UNL     1      -2.536   3.566   0.046  0.00  0.00    -0.426 OA
ATOM     16 CL   UNL     1       2.655   4.049  -0.001  0.00  0.00    -0.083 Cl
BRANCH   7  17
ATOM     17  C   UNL     1      -4.666   2.405   0.333  0.00  0.00    +0.490 C 
ATOM     18  F   UNL     1      -4.463   2.448   1.717  0.00  0.00    -0.162 F 
ATOM     19  F   UNL     1      -5.419   3.516  -0.062  0.00  0.00    -0.162 F 
ATOM     20  F   UNL     1      -5.352   1.233  -0.002  0.00  0.00    -0.162 F 
ENDBRANCH   7  17
ENDBRANCH   4   7
BRANCH   1  21
ATOM     21  C   UNL     1      -1.438   2.563  -4.876  0.00  0.00    +0.141 C 
BRANCH  21  27
ATOM     22  C   UNL     1      -2.169   3.748  -6.955  0.00  0.00    +0.009 A 
ATOM     23  C   UNL     1      -2.594   3.746  -8.271  0.00  0.00    +0.050 A 
ATOM     24  C   UNL     1      -2.750   2.548  -8.947  0.00  0.00    +0.166 A 
ATOM     25  C   UNL     1      -2.478   1.345  -8.297  0.00  0.00    +0.167 A 
ATOM     26  C   UNL     1      -2.048   1.355  -6.981  0.00  0.00    +0.054 A 
ATOM     27  C   UNL     1      -1.900   2.555  -6.310  0.00  0.00    -0.027 A 
ATOM     28  O   UNL     1      -2.706   0.319  -9.168  0.00  0.00    -0.453 OA
ATOM     29  C   UNL     1      -2.725   0.920 -10.476  0.00  0.00    +0.466 C 
ATOM     30  O   UNL     1      -3.148   2.274 -10.223  0.00  0.00    -0.453 OA
ENDBRANCH  21  27
ENDBRANCH   1  21
TORSDOF 4
