REMARK  Name = ZINC01828522
REMARK  9 active torsions:
REMARK  status: ('A' for Active; 'I' for Inactive)
REMARK    1  A    between atoms: C_1  and  O_2
REMARK    2  A    between atoms: O_2  and  C_3
REMARK    3  A    between atoms: C_6  and  C_18
REMARK    4  A    between atoms: C_8  and  C_9
REMARK    5  A    between atoms: C_9  and  N_10
REMARK    6  A    between atoms: C_12  and  N_15
REMARK    7  A    between atoms: C_31  and  C_33
REMARK    8  A    between atoms: C_33  and  O_35
REMARK    9  A    between atoms: O_35  and  C_36
REMARK                            x       y       z     vdW  Elec       q    Type
REMARK                         _______ _______ _______ _____ _____    ______ ____
ROOT
ATOM      1  C   UNL     1      -6.042  -0.044   1.866  0.00  0.00    +0.008 C 
ATOM      2  C   UNL     1      -6.088  -1.463   2.381  0.00  0.00    +0.010 A 
ATOM      3  C   UNL     1      -6.947  -2.393   1.904  0.00  0.00    -0.021 A 
ATOM      4  C   UNL     1      -6.697  -3.618   2.630  0.00  0.00    +0.003 A 
ATOM      5  C   UNL     1      -7.267  -4.893   2.568  0.00  0.00    +0.010 A 
ATOM      6  C   UNL     1      -6.768  -5.839   3.429  0.00  0.00    +0.001 A 
ATOM      7  C   UNL     1      -5.747  -5.557   4.322  0.00  0.00    +0.002 A 
ATOM      8  C   UNL     1      -5.164  -4.304   4.404  0.00  0.00    +0.026 A 
ATOM      9  C   UNL     1      -5.650  -3.324   3.542  0.00  0.00    +0.047 A 
ATOM     10  N   UNL     1      -5.310  -2.013   3.363  0.00  0.00    -0.359 N 
ATOM     11  H   UNL     1      -4.621  -1.543   3.858  0.00  0.00    +0.166 HD
ATOM     12  C   UNL     1      -7.949  -2.116   0.812  0.00  0.00    +0.033 C 
ATOM     13  C   UNL     1      -8.080  -0.594   0.662  0.00  0.00    +0.045 C 
ATOM     14  N   UNL     1      -6.736   0.011   0.560  0.00  0.00    +0.396 N 
ATOM     15  H   UNL     1      -6.185  -0.504  -0.137  0.00  0.00    -0.083 HD
ATOM     16  H   UNL     1      -6.827   0.991   0.268  0.00  0.00    -0.083 HD
ENDROOT
BRANCH   1  20
ATOM     17  C   UNL     1      -1.975   1.163   1.348  0.00  0.00    +0.125 A 
ATOM     18  C   UNL     1      -2.588   0.359   0.398  0.00  0.00    +0.046 A 
ATOM     19  C   UNL     1      -3.902  -0.029   0.567  0.00  0.00    +0.006 A 
ATOM     20  C   UNL     1      -4.607   0.382   1.683  0.00  0.00    -0.055 A 
ATOM     21  C   UNL     1      -3.999   1.183   2.632  0.00  0.00    +0.011 A 
ATOM     22  C   UNL     1      -2.683   1.569   2.470  0.00  0.00    +0.016 A 
BRANCH  17  24
ATOM     23  C   UNL     1      -0.013   1.086   0.008  0.00  0.00    +0.277 C 
ATOM     24  O   UNL     1      -0.682   1.547   1.184  0.00  0.00    -0.495 OA
ENDBRANCH  17  24
BRANCH  22  25
ATOM     25  C   UNL     1      -2.018   2.437   3.507  0.00  0.00    +0.182 C 
BRANCH  25  26
ATOM     26  N   UNL     1      -1.186   1.605   4.380  0.00  0.00    -0.265 N 
ATOM     27  C   UNL     1       0.129   1.781   4.626  0.00  0.00    +0.141 A 
ATOM     28  C   UNL     1       0.521   0.809   5.482  0.00  0.00    +0.163 A 
ATOM     29  C   UNL     1      -0.590   0.006   5.761  0.00  0.00    +0.167 A 
ATOM     30  N   UNL     1      -1.614   0.482   5.101  0.00  0.00    -0.177 NA
BRANCH  28  31
ATOM     31  N   UNL     1       1.887   0.624   6.023  0.00  0.00    +0.059 N 
ATOM     32  O   UNL     1       2.121  -0.296   6.785  0.00  0.00    -0.126 OA
ATOM     33  O   UNL     1       2.777   1.393   5.705  0.00  0.00    -0.126 OA
ENDBRANCH  28  31
ENDBRANCH  25  26
ENDBRANCH  22  25
ENDBRANCH   1  20
BRANCH  13  34
ATOM     34  C   UNL     1      -8.858  -0.277  -0.588  0.00  0.00    +0.293 C 
ATOM     35  O   UNL     1      -8.276   0.050  -1.596  0.00  0.00    -0.253 OA
BRANCH  34  36
ATOM     36  O   UNL     1     -10.198  -0.357  -0.584  0.00  0.00    -0.469 OA
ATOM     37  C   UNL     1     -10.882  -0.037  -1.824  0.00  0.00    +0.280 C 
ENDBRANCH  34  36
ENDBRANCH  13  34
TORSDOF 7
