REMARK  Name = ZINC30145142
REMARK  10 active torsions:
REMARK  status: ('A' for Active; 'I' for Inactive)
REMARK    1  A    between atoms: C_1  and  C_2
REMARK    2  A    between atoms: C_2  and  C_3
REMARK    3  A    between atoms: N_8  and  C_10
REMARK    4  A    between atoms: C_10  and  C_12
REMARK    5  A    between atoms: C_10  and  C_13
REMARK    6  A    between atoms: N_15  and  C_16
REMARK    7  A    between atoms: C_16  and  C_18
REMARK    8  A    between atoms: C_16  and  C_19
REMARK    9  A    between atoms: C_22  and  S_25
REMARK   10  A    between atoms: S_25  and  N_28
REMARK                            x       y       z     vdW  Elec       q    Type
REMARK                         _______ _______ _______ _____ _____    ______ ____
ROOT
ATOM      1  C   UNL     1       3.415   5.599  -1.508  0.00  0.00    +0.200 C 
ATOM      2  O   UNL     1       4.377   4.873  -1.640  0.00  0.00    -0.278 OA
ATOM      3  N   UNL     1       2.462   5.296  -0.603  0.00  0.00    -0.310 N 
ATOM      4  H   UNL     1       1.589   5.954  -0.483  0.00  0.00    +0.149 HD
ENDROOT
BRANCH   1   5
ATOM      5  C   UNL     1       3.283   6.839  -2.354  0.00  0.00    +0.016 C 
ATOM      6  C   UNL     1       2.469   6.515  -3.609  0.00  0.00    -0.004 C 
BRANCH   5  11
ATOM      7  C   UNL     1       6.834   8.040  -1.998  0.00  0.00    -0.028 C 
ATOM      8  C   UNL     1       6.794   9.190  -3.008  0.00  0.00    -0.000 C 
ATOM      9  C   UNL     1       5.928   8.779  -4.203  0.00  0.00    -0.018 C 
ATOM     10  C   UNL     1       4.527   8.413  -3.709  0.00  0.00    -0.078 C 
ATOM     11  N   UNL     1       4.619   7.309  -2.745  0.00  0.00    +0.387 N 
ATOM     12  C   UNL     1       5.406   7.696  -1.568  0.00  0.00    -0.074 C 
ATOM     13  H   UNL     1       5.141   6.476  -3.239  0.00  0.00    -0.081 HD
BRANCH   7  15
ATOM     14  C   UNL     1       9.105   8.688  -1.182  0.00  0.00    +0.004 C 
ATOM     15  C   UNL     1       7.648   8.464  -0.773  0.00  0.00    -0.002 C 
ENDBRANCH   7  15
ENDBRANCH   5  11
ENDBRANCH   1   5
BRANCH   3  16
ATOM     16  C   UNL     1       2.590   4.091   0.220  0.00  0.00    +0.100 C 
ATOM     17  C   UNL     1       3.451   4.401   1.447  0.00  0.00    +0.033 C 
BRANCH  16  18
ATOM     18  C   UNL     1       1.223   3.640   0.666  0.00  0.00    -0.027 A 
ATOM     19  C   UNL     1       0.914   2.293   0.691  0.00  0.00    +0.007 A 
ATOM     20  C   UNL     1      -0.340   1.879   1.100  0.00  0.00    +0.029 A 
ATOM     21  C   UNL     1      -1.286   2.813   1.479  0.00  0.00    +0.105 A 
ATOM     22  C   UNL     1      -0.975   4.159   1.459  0.00  0.00    +0.029 A 
ATOM     23  C   UNL     1       0.279   4.573   1.051  0.00  0.00    +0.007 A 
BRANCH  21  24
ATOM     24  S   UNL     1      -2.887   2.285   1.993  0.00  0.00    +0.056 S 
ATOM     25  O   UNL     1      -3.765   3.381   1.776  0.00  0.00    -0.153 OA
ATOM     26  O   UNL     1      -3.102   1.009   1.407  0.00  0.00    -0.153 OA
BRANCH  24  27
ATOM     27  N   UNL     1      -2.821   2.049   3.631  0.00  0.00    -0.204 NA
ATOM     28  H   UNL     1      -3.806   1.718   3.993  0.00  0.00    +0.144 HD
ATOM     29  H   UNL     1      -2.547   2.991   4.127  0.00  0.00    +0.144 HD
ENDBRANCH  24  27
ENDBRANCH  21  24
ENDBRANCH  16  18
ENDBRANCH   3  16
TORSDOF 7
