REMARK  Name = ZINC15007621
REMARK  5 active torsions:
REMARK  status: ('A' for Active; 'I' for Inactive)
REMARK    1  A    between atoms: C_9  and  C_12
REMARK    2  A    between atoms: N_14  and  C_15
REMARK    3  A    between atoms: C_15  and  C_16
REMARK    4  A    between atoms: C_21  and  C_27
REMARK    5  A    between atoms: C_29  and  C_33
REMARK                            x       y       z     vdW  Elec       q    Type
REMARK                         _______ _______ _______ _____ _____    ______ ____
ROOT
ATOM      1  C   UNL     1      -0.013   1.086   0.008  0.00  0.00    +0.195 C 
ATOM      2  C   UNL     1      -0.801   1.617   1.229  0.00  0.00    +0.085 C 
ATOM      3  C   UNL     1      -2.196   1.785   0.646  0.00  0.00    +0.001 A 
ATOM      4  C   UNL     1      -3.428   1.945   1.237  0.00  0.00    +0.016 A 
ATOM      5  C   UNL     1      -4.570   2.059   0.446  0.00  0.00    -0.013 A 
ATOM      6  C   UNL     1      -4.452   2.009  -0.942  0.00  0.00    +0.050 A 
ATOM      7  C   UNL     1      -3.215   1.851  -1.527  0.00  0.00    +0.166 A 
ATOM      8  C   UNL     1      -2.069   1.741  -0.737  0.00  0.00    +0.159 A 
ATOM      9  O   UNL     1      -0.767   1.591  -1.107  0.00  0.00    -0.484 OA
ATOM     10  F   UNL     1      -3.109   1.802  -2.873  0.00  0.00    -0.202 F 
ENDROOT
BRANCH   5  11
ATOM     11  C   UNL     1      -5.902   2.233   1.077  0.00  0.00    +0.001 A 
ATOM     12  C   UNL     1      -7.048   2.353   0.290  0.00  0.00    +0.024 A 
ATOM     13  C   UNL     1      -8.278   2.509   0.934  0.00  0.00    +0.055 A 
ATOM     14  C   UNL     1      -8.311   2.550   2.329  0.00  0.00    +0.123 A 
ATOM     15  N   UNL     1      -7.204   2.438   3.034  0.00  0.00    -0.262 NA
ATOM     16  C   UNL     1      -6.026   2.284   2.465  0.00  0.00    +0.119 A 
BRANCH  13  17
ATOM     17  C   UNL     1      -9.525   2.636   0.150  0.00  0.00    +0.243 C 
ATOM     18  O   UNL     1      -9.486   2.600  -1.064  0.00  0.00    -0.270 OA
ATOM     19  N   UNL     1     -10.706   2.792   0.782  0.00  0.00    -0.325 N 
ATOM     20  H   UNL     1     -10.737   2.821   1.751  0.00  0.00    +0.145 HD
ATOM     21  H   UNL     1     -11.524   2.875   0.268  0.00  0.00    +0.145 HD
ENDBRANCH  13  17
ENDBRANCH   5  11
BRANCH   1  22
ATOM     22  C   UNL     1       1.411   1.645  -0.003  0.00  0.00    +0.149 C 
BRANCH  22  25
ATOM     23  C   UNL     1       3.389   1.542  -1.421  0.00  0.00    +0.257 C 
ATOM     24  O   UNL     1       3.959   2.264  -0.630  0.00  0.00    -0.272 OA
ATOM     25  N   UNL     1       2.112   1.174  -1.200  0.00  0.00    -0.309 N 
ATOM     26  H   UNL     1       1.657   0.596  -1.832  0.00  0.00    +0.149 HD
BRANCH  23  35
ATOM     27  C   UNL     1       7.654   1.202  -6.111  0.00  0.00    +0.004 A 
ATOM     28  C   UNL     1       8.301   1.341  -4.897  0.00  0.00    +0.004 A 
ATOM     29  C   UNL     1       7.570   1.433  -3.728  0.00  0.00    +0.049 A 
ATOM     30  C   UNL     1       6.184   1.386  -3.769  0.00  0.00    +0.163 A 
ATOM     31  C   UNL     1       5.534   1.244  -4.989  0.00  0.00    +0.162 A 
ATOM     32  C   UNL     1       6.274   1.153  -6.159  0.00  0.00    +0.049 A 
ATOM     33  O   UNL     1       4.175   1.191  -5.052  0.00  0.00    -0.484 OA
ATOM     34  C   UNL     1       3.459   1.660  -3.905  0.00  0.00    +0.283 C 
ATOM     35  C   UNL     1       4.111   1.057  -2.653  0.00  0.00    +0.296 C 
ATOM     36  O   UNL     1       5.478   1.481  -2.610  0.00  0.00    -0.473 OA
ENDBRANCH  23  35
ENDBRANCH  22  25
ENDBRANCH   1  22
TORSDOF 5
