REMARK  Name = ZINC38744904
REMARK  3 active torsions:
REMARK  status: ('A' for Active; 'I' for Inactive)
REMARK    1  A    between atoms: C_4  and  C_7
REMARK    2  A    between atoms: C_9  and  C_13
REMARK    3  A    between atoms: C_17  and  C_22
REMARK                            x       y       z     vdW  Elec       q    Type
REMARK                         _______ _______ _______ _____ _____    ______ ____
ROOT
ATOM      1  C   UNL     1       5.782  -3.012   1.181  0.00  0.00    +0.182 C 
ATOM      2  N   UNL     1       7.253  -3.229   1.192  0.00  0.00    -0.265 N 
ATOM      3  N   UNL     1       7.655  -4.427   1.704  0.00  0.00    -0.220 N 
ATOM      4  C   UNL     1       8.816  -4.970   2.244  0.00  0.00    +0.182 A 
ATOM      5  N   UNL     1       8.578  -6.228   2.519  0.00  0.00    -0.127 NA
ATOM      6  N   UNL     1       7.363  -6.522   2.215  0.00  0.00    -0.120 NA
ATOM      7  C   UNL     1       6.765  -5.471   1.741  0.00  0.00    +0.211 A 
ATOM      8  S   UNL     1       5.246  -4.777   1.121  0.00  0.00    -0.058 S 
ATOM      9  H   UNL     1       7.648  -3.076   0.276  0.00  0.00    +0.168 HD
ENDROOT
BRANCH   4  10
ATOM     10  C   UNL     1      10.091  -4.256   2.466  0.00  0.00    +0.022 A 
ATOM     11  C   UNL     1      10.318  -3.020   1.857  0.00  0.00    +0.012 A 
ATOM     12  C   UNL     1      11.509  -2.358   2.068  0.00  0.00    +0.002 A 
ATOM     13  C   UNL     1      12.480  -2.916   2.881  0.00  0.00    +0.020 A 
ATOM     14  C   UNL     1      12.263  -4.141   3.488  0.00  0.00    +0.042 A 
ATOM     15  C   UNL     1      11.071  -4.811   3.290  0.00  0.00    +0.031 A 
ATOM     16 CL   UNL     1      13.487  -4.833   4.506  0.00  0.00    -0.084 Cl
ENDBRANCH   4  10
BRANCH   1  19
ATOM     17  C   UNL     1       3.699  -0.689  -0.037  0.00  0.00    +0.091 C 
ATOM     18  C   UNL     1       3.832  -2.029  -0.051  0.00  0.00    +0.034 C 
ATOM     19  C   UNL     1       5.335  -2.245  -0.065  0.00  0.00    +0.185 C 
ATOM     20  N   UNL     1       5.871  -0.874  -0.056  0.00  0.00    -0.177 NA
ATOM     21  N   UNL     1       4.919  -0.090  -0.047  0.00  0.00    -0.154 NA
BRANCH  17  25
ATOM     22  C   UNL     1      -0.017   1.379   0.010  0.00  0.00    +0.000 A 
ATOM     23  C   UNL     1       1.169   2.092   0.002  0.00  0.00    +0.001 A 
ATOM     24  C   UNL     1       2.377   1.426  -0.013  0.00  0.00    +0.010 A 
ATOM     25  C   UNL     1       2.402   0.033  -0.021  0.00  0.00    +0.002 A 
ATOM     26  C   UNL     1       1.205  -0.680  -0.013  0.00  0.00    +0.010 A 
ATOM     27  C   UNL     1       0.002  -0.004   0.002  0.00  0.00    +0.001 A 
ENDBRANCH  17  25
ENDBRANCH   1  19
TORSDOF 3
