REMARK  Name = ZINC63373683
REMARK  6 active torsions:
REMARK  status: ('A' for Active; 'I' for Inactive)
REMARK    1  A    between atoms: C_1  and  C_2
REMARK    2  A    between atoms: C_6  and  N_9
REMARK    3  A    between atoms: C_7  and  C_8
REMARK    4  A    between atoms: C_12  and  C_19
REMARK    5  A    between atoms: C_26  and  O_31
REMARK    6  A    between atoms: O_31  and  C_32
REMARK                            x       y       z     vdW  Elec       q    Type
REMARK                         _______ _______ _______ _____ _____    ______ ____
ROOT
ATOM      1  N   UNL     1       0.051  -2.798   2.394  0.00  0.00    -0.228 N 
ATOM      2  C   UNL     1      -1.112  -3.157   2.974  0.00  0.00    +0.270 A 
ATOM      3  O   UNL     1      -2.174  -2.866   2.450  0.00  0.00    -0.267 OA
ATOM      4  C   UNL     1      -1.092  -3.868   4.186  0.00  0.00    +0.101 A 
ATOM      5  C   UNL     1       0.109  -4.181   4.751  0.00  0.00    +0.263 A 
ATOM      6  N   UNL     1       1.269  -3.797   4.128  0.00  0.00    -0.274 N 
ATOM      7  H   UNL     1       2.126  -4.017   4.526  0.00  0.00    +0.173 HD
ATOM      8  C   UNL     1       1.226  -3.121   2.965  0.00  0.00    +0.337 A 
ATOM      9  O   UNL     1       2.264  -2.793   2.424  0.00  0.00    -0.246 OA
ATOM     10  O   UNL     1       0.156  -4.863   5.915  0.00  0.00    -0.267 OA
ENDROOT
BRANCH   4  11
ATOM     11  C   UNL     1      -2.380  -4.279   4.853  0.00  0.00    +0.121 C 
ATOM     12  C   UNL     1      -3.160  -3.033   5.279  0.00  0.00    +0.128 C 
ATOM     13  C   UNL     1      -4.511  -3.528   5.782  0.00  0.00    -0.035 C 
ATOM     14  C   UNL     1      -4.663  -3.031   7.001  0.00  0.00    +0.003 A 
ATOM     15  C   UNL     1      -5.782  -3.083   7.954  0.00  0.00    +0.055 A 
ATOM     16  C   UNL     1      -5.595  -2.464   9.152  0.00  0.00    +0.121 A 
ATOM     17  C   UNL     1      -4.416  -1.794   9.512  0.00  0.00    +0.047 A 
ATOM     18  C   UNL     1      -3.327  -1.680   8.710  0.00  0.00    +0.029 A 
ATOM     19  C   UNL     1      -3.411  -2.306   7.383  0.00  0.00    +0.043 A 
ATOM     20  N   UNL     1      -2.535  -2.334   6.400  0.00  0.00    -0.376 N 
ATOM     21  C   UNL     1      -5.356  -4.482   4.973  0.00  0.00    +0.048 C 
ATOM     22  C   UNL     1      -4.413  -5.609   4.515  0.00  0.00    +0.086 C 
ATOM     23  N   UNL     1      -3.207  -5.042   3.905  0.00  0.00    -0.307 NA
ATOM     24  H   UNL     1      -3.439  -4.484   3.097  0.00  0.00    +0.123 HD
ATOM     25  H   UNL     1      -1.637  -1.966   6.410  0.00  0.00    +0.160 HD
BRANCH  16  26
ATOM     26  O   UNL     1      -6.612  -2.495  10.052  0.00  0.00    -0.495 OA
ATOM     27  C   UNL     1      -6.392  -1.838  11.302  0.00  0.00    +0.277 C 
ENDBRANCH  16  26
ENDBRANCH   4  11
BRANCH   1  33
ATOM     28  C   UNL     1      -0.018   1.503   0.010  0.00  0.00    +0.044 C 
ATOM     29  C   UNL     1       0.002  -0.004   0.002  0.00  0.00    -0.046 A 
ATOM     30  C   UNL     1       0.006  -0.688  -1.200  0.00  0.00    +0.004 A 
ATOM     31  C   UNL     1       0.024  -2.071  -1.212  0.00  0.00    +0.002 A 
ATOM     32  C   UNL     1       0.039  -2.773  -0.022  0.00  0.00    +0.027 A 
ATOM     33  C   UNL     1       0.036  -2.089   1.186  0.00  0.00    +0.058 A 
ATOM     34  C   UNL     1       0.023  -0.700   1.194  0.00  0.00    -0.023 A 
ATOM     35  C   UNL     1       0.026   0.046   2.504  0.00  0.00    +0.046 C 
ENDBRANCH   1  33
TORSDOF 3
