REMARK  Name = ZINC32572449
REMARK  5 active torsions:
REMARK  status: ('A' for Active; 'I' for Inactive)
REMARK    1  A    between atoms: C_1  and  C_2
REMARK    2  A    between atoms: C_2  and  C_4
REMARK    3  A    between atoms: C_2  and  N_20
REMARK    4  A    between atoms: N_9  and  C_10
REMARK    5  A    between atoms: C_22  and  C_25
REMARK                            x       y       z     vdW  Elec       q    Type
REMARK                         _______ _______ _______ _____ _____    ______ ____
ROOT
ATOM      1  C   UNL     1      -7.192   1.201   2.099  0.00  0.00    +0.247 C 
ATOM      2  O   UNL     1      -6.796   1.898   3.008  0.00  0.00    -0.273 OA
ATOM      3  N   UNL     1      -6.368   0.892   1.079  0.00  0.00    -0.238 N 
ATOM      4  C   UNL     1      -5.103   1.358   1.069  0.00  0.00    +0.306 C 
ATOM      5  O   UNL     1      -4.707   2.057   1.980  0.00  0.00    -0.252 OA
ATOM      6  N   UNL     1      -4.279   1.049   0.049  0.00  0.00    -0.294 N 
ATOM      7  H   UNL     1      -6.727   0.259   0.254  0.00  0.00    +0.159 HD
ATOM      8  H   UNL     1      -4.638   0.417  -0.776  0.00  0.00    +0.151 HD
ENDROOT
BRANCH   6   9
ATOM      9  C   UNL     1      -2.904   1.556   0.038  0.00  0.00    +0.037 C 
ATOM     10  C   UNL     1      -2.188   1.063  -1.221  0.00  0.00    +0.029 C 
ATOM     11  C   UNL     1      -0.753   1.593  -1.232  0.00  0.00    -0.008 C 
ATOM     12  C   UNL     1      -0.013   1.086   0.008  0.00  0.00    +0.007 C 
ATOM     13  C   UNL     1      -0.729   1.579   1.267  0.00  0.00    -0.008 C 
ATOM     14  C   UNL     1      -2.164   1.050   1.278  0.00  0.00    +0.029 C 
ATOM     15  C   UNL     1      -0.750   3.109   1.275  0.00  0.00    +0.007 C 
ATOM     16  C   UNL     1      -1.490   3.616   0.036  0.00  0.00    -0.008 C 
ATOM     17  C   UNL     1      -0.773   3.123  -1.223  0.00  0.00    +0.007 C 
ATOM     18  C   UNL     1      -2.925   3.086   0.047  0.00  0.00    +0.029 C 
ENDBRANCH   6   9
BRANCH   1  20
ATOM     19  C   UNL     1      -8.585  -0.851   2.101  0.00  0.00    +0.044 C 
ATOM     20  C   UNL     1      -8.606   0.679   2.110  0.00  0.00    +0.213 C 
BRANCH  20  21
ATOM     21  N   UNL     1      -9.292   1.151   3.315  0.00  0.00    -0.151 N 
ATOM     22  N   UNL     1     -10.351   1.885   3.331  0.00  0.00    -0.130 NA
ATOM     23  C   UNL     1     -10.673   2.102   4.590  0.00  0.00    +0.205 A 
ATOM     24  N   UNL     1      -9.754   1.472   5.336  0.00  0.00    -0.108 NA
ATOM     25  N   UNL     1      -8.927   0.903   4.524  0.00  0.00    -0.045 NA
BRANCH  23  26
ATOM     26  C   UNL     1     -11.826   2.894   5.088  0.00  0.00    +0.023 A 
ATOM     27  C   UNL     1     -12.698   3.499   4.186  0.00  0.00    +0.013 A 
ATOM     28  C   UNL     1     -13.771   4.231   4.653  0.00  0.00    +0.016 A 
ATOM     29  C   UNL     1     -13.974   4.374   6.014  0.00  0.00    +0.018 A 
ATOM     30  C   UNL     1     -13.107   3.779   6.914  0.00  0.00    +0.016 A 
ATOM     31  C   UNL     1     -12.035   3.040   6.457  0.00  0.00    +0.013 A 
ATOM     32 BR   UNL     1     -15.442   5.385   6.647  0.00  0.00    -0.050 Br
ENDBRANCH  23  26
ENDBRANCH  20  21
ENDBRANCH   1  20
TORSDOF 4
