REMARK  Name = ZINC39687142
REMARK  8 active torsions:
REMARK  status: ('A' for Active; 'I' for Inactive)
REMARK    1  A    between atoms: C_1  and  C_2
REMARK    2  A    between atoms: C_5  and  C_9
REMARK    3  A    between atoms: C_6  and  C_8
REMARK    4  A    between atoms: C_13  and  C_22
REMARK    5  A    between atoms: N_24  and  C_25
REMARK    6  A    between atoms: C_25  and  C_27
REMARK    7  A    between atoms: C_25  and  C_28
REMARK    8  A    between atoms: C_28  and  C_29
REMARK                            x       y       z     vdW  Elec       q    Type
REMARK                         _______ _______ _______ _____ _____    ______ ____
ROOT
ATOM      1  C   UNL     1       0.057  -4.386   0.045  0.00  0.00    +0.247 C 
ATOM      2  O   UNL     1       0.222  -4.955   1.107  0.00  0.00    -0.270 OA
ATOM      3  N   UNL     1      -0.078  -5.102  -1.089  0.00  0.00    -0.296 N 
ATOM      4  C   UNL     1      -0.183  -4.594  -2.477  0.00  0.00    +0.121 C 
ATOM      5  C   UNL     1       0.648  -5.586  -3.320  0.00  0.00    +0.100 C 
ATOM      6  C   UNL     1       0.662  -6.885  -2.497  0.00  0.00    -0.004 C 
ATOM      7  C   UNL     1      -0.148  -6.577  -1.230  0.00  0.00    +0.115 C 
ATOM      8  C   UNL     1       2.093  -7.259  -2.123  0.00  0.00    -0.010 C 
ATOM      9  C   UNL     1       2.085  -8.584  -1.354  0.00  0.00    -0.082 C 
ATOM     10  N   UNL     1       1.487  -9.632  -2.189  0.00  0.00    +0.379 N 
ATOM     11  C   UNL     1       0.082  -9.310  -2.467  0.00  0.00    -0.082 C 
ATOM     12  C   UNL     1       0.005  -8.016  -3.283  0.00  0.00    -0.010 C 
ATOM     13  H   UNL     1       1.994  -9.698  -3.059  0.00  0.00    -0.086 HD
ATOM     14  H   UNL     1       1.538 -10.516  -1.705  0.00  0.00    -0.086 HD
ENDROOT
BRANCH   1  19
ATOM     15  C   UNL     1      -0.147   1.361  -0.140  0.00  0.00    +0.044 C 
ATOM     16  C   UNL     1      -0.094  -0.144  -0.091  0.00  0.00    -0.050 A 
ATOM     17  C   UNL     1       0.760  -0.830  -0.937  0.00  0.00    +0.004 A 
ATOM     18  C   UNL     1       0.814  -2.208  -0.897  0.00  0.00    +0.013 A 
ATOM     19  C   UNL     1       0.005  -2.910  -0.002  0.00  0.00    +0.040 A 
ATOM     20  C   UNL     1      -0.854  -2.211   0.848  0.00  0.00    -0.038 A 
ATOM     21  C   UNL     1      -0.894  -0.833   0.802  0.00  0.00    +0.007 A 
ATOM     22  C   UNL     1      -1.731  -2.961   1.817  0.00  0.00    +0.044 C 
ENDBRANCH   1  19
BRANCH   5  23
ATOM     23  C   UNL     1      -0.007  -5.816  -4.657  0.00  0.00    +0.218 C 
ATOM     24  O   UNL     1      -1.216  -5.803  -4.750  0.00  0.00    -0.275 OA
ATOM     25  N   UNL     1       0.750  -6.036  -5.750  0.00  0.00    -0.312 N 
ATOM     26  H   UNL     1       1.717  -6.046  -5.676  0.00  0.00    +0.149 HD
BRANCH  25  27
ATOM     27  C   UNL     1       0.113  -6.260  -7.050  0.00  0.00    +0.074 C 
ATOM     28  C   UNL     1      -0.187  -4.912  -7.709  0.00  0.00    +0.028 C 
BRANCH  27  29
ATOM     29  C   UNL     1       1.053  -7.068  -7.947  0.00  0.00    +0.060 C 
BRANCH  29  30
ATOM     30  C   UNL     1       1.251  -8.441  -7.358  0.00  0.00    -0.010 A 
ATOM     31  C   UNL     1       2.338  -8.694  -6.543  0.00  0.00    +0.006 A 
ATOM     32  C   UNL     1       2.520  -9.953  -6.003  0.00  0.00    +0.000 A 
ATOM     33  C   UNL     1       1.615 -10.962  -6.278  0.00  0.00    +0.003 A 
ATOM     34  C   UNL     1       0.527 -10.711  -7.093  0.00  0.00    +0.038 A 
ATOM     35  C   UNL     1       0.341  -9.449  -7.630  0.00  0.00    +0.127 A 
ATOM     36  F   UNL     1      -0.725  -9.202  -8.423  0.00  0.00    -0.205 F 
ENDBRANCH  29  30
ENDBRANCH  27  29
ENDBRANCH  25  27
ENDBRANCH   5  23
TORSDOF 5
