REMARK  Name = ZINC11952249
REMARK  10 active torsions:
REMARK  status: ('A' for Active; 'I' for Inactive)
REMARK    1  A    between atoms: C_1  and  C_2
REMARK    2  A    between atoms: C_5  and  C_26
REMARK    3  A    between atoms: C_6  and  O_9
REMARK    4  A    between atoms: C_7  and  C_8
REMARK    5  A    between atoms: O_9  and  C_10
REMARK    6  A    between atoms: C_10  and  C_11
REMARK    7  A    between atoms: C_11  and  O_12
REMARK    8  A    between atoms: O_12  and  C_13
REMARK    9  A    between atoms: C_22  and  C_23
REMARK   10  A    between atoms: C_23  and  N_25
REMARK                            x       y       z     vdW  Elec       q    Type
REMARK                         _______ _______ _______ _____ _____    ______ ____
ROOT
ATOM      1  C   UNL     1       1.119   5.978   0.031  0.00  0.00    +0.131 A 
ATOM      2  C   UNL     1       2.317   5.263   0.016  0.00  0.00    +0.047 A 
ATOM      3  C   UNL     1       2.340   3.906  -0.001  0.00  0.00    +0.012 A 
ATOM      4  C   UNL     1       1.144   3.164  -0.003  0.00  0.00    -0.017 A 
ATOM      5  C   UNL     1       1.158   1.760  -0.020  0.00  0.00    +0.008 A 
ATOM      6  C   UNL     1      -0.019   1.074  -0.022  0.00  0.00    +0.001 A 
ATOM      7  C   UNL     1      -1.239   1.745  -0.012  0.00  0.00    +0.001 A 
ATOM      8  C   UNL     1      -1.289   3.108   0.009  0.00  0.00    +0.009 A 
ATOM      9  C   UNL     1      -0.098   3.843   0.012  0.00  0.00    -0.005 A 
ATOM     10  C   UNL     1      -0.105   5.306   0.030  0.00  0.00    +0.052 A 
ENDROOT
BRANCH  10  11
ATOM     11  C   UNL     1      -1.370   6.050   0.045  0.00  0.00    +0.081 C 
ATOM     12  S   UNL     1      -2.056   6.604  -1.423  0.00  0.00    -0.035 S 
BRANCH  11  13
ATOM     13  N   UNL     1      -1.993   6.297   1.215  0.00  0.00    -0.352 N 
ATOM     14  H   UNL     1      -1.569   6.049   2.051  0.00  0.00    +0.143 HD
ATOM     15  H   UNL     1      -2.864   6.723   1.220  0.00  0.00    +0.143 HD
ENDBRANCH  11  13
ENDBRANCH  10  11
BRANCH   1  16
ATOM     16  O   UNL     1       1.142   7.334   0.047  0.00  0.00    -0.488 OA
BRANCH  16  17
ATOM     17  C   UNL     1       2.427   7.960   0.048  0.00  0.00    +0.270 C 
BRANCH  17  18
ATOM     18  C   UNL     1       2.253   9.480   0.066  0.00  0.00    +0.270 C 
BRANCH  18  19
ATOM     19  O   UNL     1       1.639   9.874   1.295  0.00  0.00    -0.488 OA
BRANCH  19  25
ATOM     20  C   UNL     1      -1.319  13.724   0.796  0.00  0.00    +0.044 C 
ATOM     21  C   UNL     1      -0.016  13.113   1.243  0.00  0.00    -0.044 A 
ATOM     22  C   UNL     1       0.950  13.906   1.835  0.00  0.00    +0.004 A 
ATOM     23  C   UNL     1       2.147  13.349   2.247  0.00  0.00    +0.007 A 
ATOM     24  C   UNL     1       2.377  11.998   2.073  0.00  0.00    -0.009 A 
ATOM     25  C   UNL     1       1.412  11.202   1.473  0.00  0.00    +0.127 A 
ATOM     26  C   UNL     1       0.212  11.763   1.061  0.00  0.00    -0.006 A 
ATOM     27  C   UNL     1      -0.842  10.901   0.416  0.00  0.00    +0.048 C 
ATOM     28  C   UNL     1       3.680  11.390   2.527  0.00  0.00    +0.047 C 
ENDBRANCH  19  25
ENDBRANCH  18  19
ENDBRANCH  17  18
ENDBRANCH  16  17
ENDBRANCH   1  16
TORSDOF 7
