REMARK  Name = ZINC64959074
REMARK  6 active torsions:
REMARK  status: ('A' for Active; 'I' for Inactive)
REMARK    1  A    between atoms: C_1  and  C_2
REMARK    2  A    between atoms: C_2  and  O_3
REMARK    3  A    between atoms: O_3  and  C_4
REMARK    4  A    between atoms: C_9  and  N_10
REMARK    5  A    between atoms: C_11  and  C_13
REMARK    6  A    between atoms: C_22  and  C_27
REMARK                            x       y       z     vdW  Elec       q    Type
REMARK                         _______ _______ _______ _____ _____    ______ ____
ROOT
ATOM      1  C   UNL     1       3.314  -1.058  -5.411  0.00  0.00    +0.102 A 
ATOM      2  C   UNL     1       3.953  -1.549  -6.541  0.00  0.00    +0.031 A 
ATOM      3  C   UNL     1       4.567  -0.638  -7.426  0.00  0.00    +0.038 A 
ATOM      4  C   UNL     1       4.529   0.724  -7.178  0.00  0.00    +0.030 A 
ATOM      5  N   UNL     1       3.913   1.201  -6.077  0.00  0.00    -0.325 N 
ATOM      6  H   UNL     1       3.905   2.158  -5.920  0.00  0.00    +0.169 HD
ATOM      7  C   UNL     1       3.305   0.391  -5.195  0.00  0.00    +0.261 A 
ATOM      8  O   UNL     1       2.752   0.859  -4.216  0.00  0.00    -0.267 OA
ATOM      9  C   UNL     1       5.161   1.713  -8.123  0.00  0.00    +0.062 C 
ATOM     10  C   UNL     1       6.255   1.059  -8.962  0.00  0.00    +0.032 C 
ATOM     11  C   UNL     1       5.675  -0.165  -9.684  0.00  0.00    +0.088 C 
ATOM     12  C   UNL     1       5.256  -1.157  -8.620  0.00  0.00    +0.165 C 
ATOM     13  O   UNL     1       5.482  -2.343  -8.746  0.00  0.00    -0.292 OA
ENDROOT
BRANCH  10  14
ATOM     14  C   UNL     1       6.769   2.047  -9.977  0.00  0.00    -0.044 A 
ATOM     15  C   UNL     1       5.907   2.590 -10.911  0.00  0.00    +0.004 A 
ATOM     16  C   UNL     1       6.379   3.496 -11.842  0.00  0.00    +0.000 A 
ATOM     17  C   UNL     1       7.713   3.859 -11.839  0.00  0.00    +0.000 A 
ATOM     18  C   UNL     1       8.575   3.316 -10.905  0.00  0.00    +0.000 A 
ATOM     19  C   UNL     1       8.102   2.413  -9.971  0.00  0.00    +0.004 A 
ENDBRANCH  10  14
BRANCH   1  21
ATOM     20  N   UNL     1       1.941  -1.468  -3.433  0.00  0.00    -0.278 N 
ATOM     21  C   UNL     1       2.658  -1.968  -4.458  0.00  0.00    +0.254 C 
ATOM     22  O   UNL     1       2.764  -3.172  -4.596  0.00  0.00    -0.270 OA
ATOM     23  H   UNL     1       1.798  -0.511  -3.362  0.00  0.00    +0.155 HD
BRANCH  20  29
ATOM     24  C   UNL     1       1.208  -1.883  -1.164  0.00  0.00    +0.142 A 
ATOM     25  C   UNL     1       0.668  -2.738  -0.216  0.00  0.00    +0.047 A 
ATOM     26  C   UNL     1       0.328  -4.032  -0.566  0.00  0.00    +0.004 A 
ATOM     27  C   UNL     1       0.525  -4.477  -1.860  0.00  0.00    +0.002 A 
ATOM     28  C   UNL     1       1.063  -3.631  -2.811  0.00  0.00    +0.027 A 
ATOM     29  C   UNL     1       1.401  -2.329  -2.469  0.00  0.00    +0.076 A 
BRANCH  24  30
ATOM     30  O   UNL     1       1.543  -0.611  -0.821  0.00  0.00    -0.490 OA
BRANCH  30  32
ATOM     31  C   UNL     1       1.751   1.231   0.729  0.00  0.00    +0.048 C 
ATOM     32  C   UNL     1       1.317  -0.223   0.535  0.00  0.00    +0.226 C 
ENDBRANCH  30  32
ENDBRANCH  24  30
ENDBRANCH  20  29
ENDBRANCH   1  21
TORSDOF 5
