REMARK  Name = ZINC44917332
REMARK  5 active torsions:
REMARK  status: ('A' for Active; 'I' for Inactive)
REMARK    1  A    between atoms: C_1  and  O_2
REMARK    2  A    between atoms: O_2  and  C_3
REMARK    3  A    between atoms: C_5  and  C_10
REMARK    4  A    between atoms: C_8  and  O_9
REMARK    5  A    between atoms: C_20  and  C_21
REMARK                            x       y       z     vdW  Elec       q    Type
REMARK                         _______ _______ _______ _____ _____    ______ ____
ROOT
ATOM      1  C   UNL     1      -4.859   0.502   0.127  0.00  0.00    +0.068 C 
ATOM      2  C   UNL     1      -5.706   0.329  -1.140  0.00  0.00    +0.109 C 
ATOM      3  C   UNL     1      -7.122   0.770  -0.902  0.00  0.00    +0.218 C 
ATOM      4  O   UNL     1      -7.705   1.354  -1.791  0.00  0.00    -0.275 OA
ATOM      5  N   UNL     1      -7.772   0.546   0.255  0.00  0.00    -0.283 N 
ATOM      6  C   UNL     1      -7.033   0.058   1.364  0.00  0.00    +0.072 A 
ATOM      7  C   UNL     1      -5.666   0.035   1.297  0.00  0.00    +0.039 A 
ATOM      8  S   UNL     1      -5.184  -0.600   2.755  0.00  0.00    +0.010 S 
ATOM      9  N   UNL     1      -6.678  -0.816   3.482  0.00  0.00    -0.208 NA
ATOM     10  C   UNL     1      -7.546  -0.404   2.576  0.00  0.00    +0.101 A 
ATOM     11  H   UNL     1      -8.724   0.715   0.330  0.00  0.00    +0.155 HD
ENDROOT
BRANCH  10  12
ATOM     12  C   UNL     1      -9.005  -0.428   2.837  0.00  0.00    +0.003 A 
ATOM     13  C   UNL     1      -9.886  -0.855   1.844  0.00  0.00    +0.011 A 
ATOM     14  C   UNL     1     -11.243  -0.877   2.092  0.00  0.00    +0.020 A 
ATOM     15  C   UNL     1     -11.731  -0.475   3.324  0.00  0.00    +0.041 A 
ATOM     16  C   UNL     1     -10.860  -0.050   4.313  0.00  0.00    +0.020 A 
ATOM     17  C   UNL     1      -9.501  -0.030   4.077  0.00  0.00    +0.011 A 
ATOM     18 CL   UNL     1     -13.439  -0.504   3.630  0.00  0.00    -0.084 Cl
ENDBRANCH  10  12
BRANCH   1  21
ATOM     19  C   UNL     1      -1.210  -0.462  -0.021  0.00  0.00    +0.162 A 
ATOM     20  C   UNL     1      -2.366   0.294   0.082  0.00  0.00    +0.053 A 
ATOM     21  C   UNL     1      -3.602  -0.321   0.015  0.00  0.00    -0.035 A 
ATOM     22  C   UNL     1      -3.688  -1.691  -0.153  0.00  0.00    +0.008 A 
ATOM     23  C   UNL     1      -2.538  -2.451  -0.256  0.00  0.00    +0.049 A 
ATOM     24  C   UNL     1      -1.296  -1.839  -0.196  0.00  0.00    +0.158 A 
BRANCH  19  26
ATOM     25  C   UNL     1       0.019   1.560   0.225  0.00  0.00    +0.277 C 
ATOM     26  O   UNL     1       0.007   0.142   0.044  0.00  0.00    -0.491 OA
ENDBRANCH  19  26
BRANCH  24  27
ATOM     27  O   UNL     1      -0.163  -2.585  -0.303  0.00  0.00    -0.503 OA
ATOM     28  H   UNL     1       0.173  -2.913   0.542  0.00  0.00    +0.292 HD
ENDBRANCH  24  27
ENDBRANCH   1  21
TORSDOF 4
