REMARK  Name = ZINC12567338
REMARK  10 active torsions:
REMARK  status: ('A' for Active; 'I' for Inactive)
REMARK    1  A    between atoms: C_1  and  C_2
REMARK    2  A    between atoms: C_2  and  C_4
REMARK    3  A    between atoms: C_2  and  O_21
REMARK    4  A    between atoms: N_6  and  C_7
REMARK    5  A    between atoms: N_6  and  C_14
REMARK    6  A    between atoms: C_7  and  C_8
REMARK    7  A    between atoms: C_14  and  C_15
REMARK    8  A    between atoms: O_21  and  C_22
REMARK    9  A    between atoms: C_22  and  C_24
REMARK   10  A    between atoms: C_27  and  N_30
REMARK                            x       y       z     vdW  Elec       q    Type
REMARK                         _______ _______ _______ _____ _____    ______ ____
ROOT
ATOM      1  O   UNL     1       2.553   5.681  -1.904  0.00  0.00    -0.449 OA
ENDROOT
BRANCH   1   3
ATOM      2  C   UNL     1       3.366   5.780   0.390  0.00  0.00    +0.062 C 
ATOM      3  C   UNL     1       3.620   6.191  -1.062  0.00  0.00    +0.259 C 
BRANCH   3   4
ATOM      4  C   UNL     1       3.661   7.695  -1.158  0.00  0.00    +0.257 C 
ATOM      5  O   UNL     1       2.686   8.304  -1.543  0.00  0.00    -0.272 OA
ATOM      6  N   UNL     1       4.780   8.362  -0.815  0.00  0.00    -0.290 N 
BRANCH   6   7
ATOM      7  C   UNL     1       5.977   7.623  -0.405  0.00  0.00    +0.143 C 
BRANCH   7   8
ATOM      8  C   UNL     1       6.895   7.459  -1.589  0.00  0.00    -0.030 A 
ATOM      9  C   UNL     1       6.877   6.285  -2.320  0.00  0.00    +0.005 A 
ATOM     10  C   UNL     1       7.715   6.136  -3.409  0.00  0.00    +0.000 A 
ATOM     11  C   UNL     1       8.580   7.156  -3.760  0.00  0.00    +0.000 A 
ATOM     12  C   UNL     1       8.603   8.327  -3.025  0.00  0.00    +0.000 A 
ATOM     13  C   UNL     1       7.760   8.478  -1.940  0.00  0.00    +0.005 A 
ENDBRANCH   7   8
ENDBRANCH   6   7
BRANCH   6  14
ATOM     14  C   UNL     1       4.801   9.827  -0.852  0.00  0.00    +0.143 C 
BRANCH  14  15
ATOM     15  C   UNL     1       4.370  10.369   0.487  0.00  0.00    -0.030 A 
ATOM     16  C   UNL     1       3.034  10.629   0.730  0.00  0.00    +0.005 A 
ATOM     17  C   UNL     1       2.638  11.122   1.959  0.00  0.00    +0.000 A 
ATOM     18  C   UNL     1       3.580  11.364   2.942  0.00  0.00    +0.000 A 
ATOM     19  C   UNL     1       4.916  11.109   2.697  0.00  0.00    +0.000 A 
ATOM     20  C   UNL     1       5.311  10.611   1.470  0.00  0.00    +0.005 A 
ENDBRANCH  14  15
ENDBRANCH   6  14
ENDBRANCH   3   4
ENDBRANCH   1   3
BRANCH   1  21
ATOM     21  C   UNL     1       2.727   4.456  -2.436  0.00  0.00    +0.340 C 
ATOM     22  O   UNL     1       3.742   3.830  -2.203  0.00  0.00    -0.245 OA
BRANCH  21  23
ATOM     23  C   UNL     1       1.684   3.873  -3.301  0.00  0.00    +0.059 A 
ATOM     24  C   UNL     1       1.863   2.602  -3.855  0.00  0.00    +0.017 A 
ATOM     25  C   UNL     1       0.888   2.061  -4.662  0.00  0.00    +0.025 A 
ATOM     26  C   UNL     1      -0.272   2.781  -4.933  0.00  0.00    +0.045 A 
ATOM     27  C   UNL     1      -0.455   4.044  -4.380  0.00  0.00    +0.025 A 
ATOM     28  C   UNL     1       0.515   4.591  -3.571  0.00  0.00    +0.017 A 
BRANCH  26  29
ATOM     29  N   UNL     1      -1.256   2.232  -5.758  0.00  0.00    -0.202 N 
ATOM     30  C   UNL     1      -1.174   1.022  -6.339  0.00  0.00    +0.258 C 
ATOM     31  O   UNL     1      -0.246   0.246  -6.232  0.00  0.00    -0.269 OA
ATOM     32  C   UNL     1      -2.402   0.794  -7.128  0.00  0.00    +0.050 A 
ATOM     33  C   UNL     1      -2.867  -0.246  -7.918  0.00  0.00    +0.014 A 
ATOM     34  C   UNL     1      -4.099  -0.137  -8.543  0.00  0.00    +0.001 A 
ATOM     35  C   UNL     1      -4.868   1.001  -8.383  0.00  0.00    +0.001 A 
ATOM     36  C   UNL     1      -4.416   2.049  -7.596  0.00  0.00    +0.014 A 
ATOM     37  C   UNL     1      -3.186   1.954  -6.965  0.00  0.00    +0.050 A 
ATOM     38  C   UNL     1      -2.409   2.846  -6.079  0.00  0.00    +0.258 C 
ATOM     39  O   UNL     1      -2.754   3.948  -5.704  0.00  0.00    -0.269 OA
ENDBRANCH  26  29
ENDBRANCH  21  23
ENDBRANCH   1  21
TORSDOF 9
