REMARK  Name = ZINC02031634
REMARK  1 active torsions:
REMARK  status: ('A' for Active; 'I' for Inactive)
REMARK    1  A    between atoms: C_1  and  C_2
REMARK                            x       y       z     vdW  Elec       q    Type
REMARK                         _______ _______ _______ _____ _____    ______ ____
ROOT
ATOM      1  C   UNL     1      -0.018   1.503   0.010  0.00  0.00    +0.044 C 
ATOM      2  C   UNL     1       0.002  -0.004   0.002  0.00  0.00    +0.022 C 
ATOM      3  C   UNL     1      -1.121  -0.673   0.009  0.00  0.00    -0.112 C 
ATOM      4  C   UNL     1      -2.244  -1.342   0.016  0.00  0.00    +0.130 C 
ATOM      5 CL   UNL     1      -2.975  -1.794   1.524  0.00  0.00    -0.083 Cl
ENDROOT
TORSDOF 0
