REMARK  Name = ZINC13977092
REMARK  11 active torsions:
REMARK  status: ('A' for Active; 'I' for Inactive)
REMARK    1  A    between atoms: C_1  and  C_2
REMARK    2  A    between atoms: C_2  and  C_3
REMARK    3  A    between atoms: C_2  and  C_4
REMARK    4  A    between atoms: C_2  and  C_5
REMARK    5  A    between atoms: C_8  and  C_12
REMARK    6  A    between atoms: N_14  and  C_15
REMARK    7  A    between atoms: C_15  and  N_17
REMARK    8  A    between atoms: N_17  and  N_18
REMARK    9  A    between atoms: C_19  and  C_21
REMARK   10  A    between atoms: C_21  and  O_22
REMARK   11  A    between atoms: O_22  and  C_23
REMARK                            x       y       z     vdW  Elec       q    Type
REMARK                         _______ _______ _______ _____ _____    ______ ____
ROOT
ATOM      1  N   UNL     1       2.416   0.626  -0.070  0.00  0.00    -0.245 N 
ATOM      2  H   UNL     1       3.271   1.084  -0.052  0.00  0.00    +0.172 HD
ENDROOT
BRANCH   1   3
ATOM      3  N   UNL     1       2.370  -0.765  -0.229  0.00  0.00    -0.232 N 
ATOM      4  C   UNL     1       3.513  -1.467  -0.356  0.00  0.00    +0.267 C 
ATOM      5  O   UNL     1       4.582  -0.894  -0.334  0.00  0.00    -0.271 OA
ATOM      6  H   UNL     1       1.515  -1.223  -0.247  0.00  0.00    +0.173 HD
BRANCH   4   7
ATOM      7  C   UNL     1       3.464  -2.963  -0.527  0.00  0.00    +0.326 C 
BRANCH   7   8
ATOM      8  O   UNL     1       4.794  -3.474  -0.640  0.00  0.00    -0.482 OA
BRANCH   8   9
ATOM      9  C   UNL     1       4.927  -4.816  -0.800  0.00  0.00    +0.129 A 
ATOM     10  C   UNL     1       3.821  -5.617  -0.847  0.00  0.00    +0.046 A 
ATOM     11  C   UNL     1       3.941  -6.994  -1.011  0.00  0.00    +0.004 A 
ATOM     12  C   UNL     1       5.162  -7.584  -1.129  0.00  0.00    +0.009 A 
ATOM     13  C   UNL     1       6.325  -6.795  -1.085  0.00  0.00    -0.014 A 
ATOM     14  C   UNL     1       6.208  -5.392  -0.925  0.00  0.00    +0.024 A 
ATOM     15  C   UNL     1       7.369  -4.605  -0.876  0.00  0.00    +0.012 A 
ATOM     16  C   UNL     1       8.590  -5.197  -0.994  0.00  0.00    +0.001 A 
ATOM     17  C   UNL     1       8.705  -6.576  -1.157  0.00  0.00    +0.001 A 
ATOM     18  C   UNL     1       7.601  -7.371  -1.204  0.00  0.00    +0.008 A 
ENDBRANCH   8   9
ENDBRANCH   7   8
ENDBRANCH   4   7
ENDBRANCH   1   3
BRANCH   1  19
ATOM     19  C   UNL     1       1.272   1.328   0.057  0.00  0.00    +0.153 C 
ATOM     20  S   UNL     1       1.329   3.028   0.251  0.00  0.00    -0.017 S 
BRANCH  19  23
ATOM     21  C   UNL     1      -1.059   1.394   0.154  0.00  0.00    +0.250 C 
ATOM     22  O   UNL     1      -1.019   2.601   0.292  0.00  0.00    -0.270 OA
ATOM     23  N   UNL     1       0.085   0.692   0.032  0.00  0.00    -0.263 N 
ATOM     24  H   UNL     1       0.053  -0.272  -0.077  0.00  0.00    +0.157 HD
BRANCH  21  28
ATOM     25  C   UNL     1      -4.803  -0.611   0.059  0.00  0.00    -0.028 A 
ATOM     26  C   UNL     1      -3.630  -1.335  -0.066  0.00  0.00    +0.006 A 
ATOM     27  C   UNL     1      -2.411  -0.689  -0.043  0.00  0.00    +0.013 A 
ATOM     28  C   UNL     1      -2.362   0.697   0.121  0.00  0.00    +0.038 A 
ATOM     29  C   UNL     1      -3.548   1.421   0.247  0.00  0.00    +0.028 A 
ATOM     30  C   UNL     1      -4.761   0.764   0.215  0.00  0.00    +0.022 A 
ATOM     31 BR   UNL     1      -6.370   1.743   0.386  0.00  0.00    -0.050 Br
BRANCH  25  33
ATOM     32  C   UNL     1      -5.899  -2.826  -0.139  0.00  0.00    +0.015 C 
ATOM     33  C   UNL     1      -6.130  -1.323   0.025  0.00  0.00    -0.012 C 
ATOM     34  C   UNL     1      -6.882  -1.062   1.332  0.00  0.00    +0.015 C 
ATOM     35  C   UNL     1      -6.958  -0.803  -1.152  0.00  0.00    +0.015 C 
ENDBRANCH  25  33
ENDBRANCH  21  28
ENDBRANCH  19  23
ENDBRANCH   1  19
TORSDOF 8
