REMARK  Name = ZINC15435277
REMARK  8 active torsions:
REMARK  status: ('A' for Active; 'I' for Inactive)
REMARK    1  A    between atoms: C_1  and  C_2
REMARK    2  A    between atoms: C_2  and  C_3
REMARK    3  A    between atoms: C_2  and  C_4
REMARK    4  A    between atoms: C_7  and  S_10
REMARK    5  A    between atoms: S_10  and  N_13
REMARK    6  A    between atoms: C_16  and  C_19
REMARK    7  A    between atoms: N_21  and  N_22
REMARK    8  A    between atoms: C_23  and  C_25
REMARK                            x       y       z     vdW  Elec       q    Type
REMARK                         _______ _______ _______ _____ _____    ______ ____
ROOT
ATOM      1  N   UNL     1       1.155   4.329   1.596  0.00  0.00    -0.177 NA
ATOM      2  C   UNL     1      -0.105   4.535   2.322  0.00  0.00    +0.110 C 
ATOM      3  C   UNL     1      -0.104   5.936   2.932  0.00  0.00    +0.030 C 
ATOM      4  C   UNL     1       1.151   6.116   3.788  0.00  0.00    +0.079 C 
ATOM      5  C   UNL     1       2.396   5.969   2.909  0.00  0.00    +0.030 C 
ATOM      6  C   UNL     1       2.423   4.564   2.300  0.00  0.00    +0.110 C 
ENDROOT
BRANCH   4   7
ATOM      7  C   UNL     1       1.139   7.486   4.416  0.00  0.00    +0.232 C 
ATOM      8  O   UNL     1       2.036   8.267   4.184  0.00  0.00    -0.274 OA
ATOM      9  N   UNL     1       0.130   7.842   5.236  0.00  0.00    -0.234 N 
ATOM     10  H   UNL     1      -0.587   7.216   5.423  0.00  0.00    +0.173 HD
BRANCH   9  11
ATOM     11  N   UNL     1       0.119   9.115   5.820  0.00  0.00    -0.230 N 
ATOM     12  C   UNL     1      -0.890   9.471   6.640  0.00  0.00    +0.260 C 
ATOM     13  O   UNL     1      -1.789   8.688   6.873  0.00  0.00    -0.269 OA
ATOM     14  H   UNL     1       0.837   9.741   5.634  0.00  0.00    +0.173 HD
BRANCH  12  15
ATOM     15  C   UNL     1      -0.902  10.815   7.256  0.00  0.00    +0.038 A 
ATOM     16  C   UNL     1       0.132  11.715   6.995  0.00  0.00    +0.013 A 
ATOM     17  C   UNL     1       0.112  12.970   7.569  0.00  0.00    +0.001 A 
ATOM     18  C   UNL     1      -0.925  13.332   8.411  0.00  0.00    +0.000 A 
ATOM     19  C   UNL     1      -1.950  12.443   8.678  0.00  0.00    +0.001 A 
ATOM     20  C   UNL     1      -1.945  11.187   8.106  0.00  0.00    +0.013 A 
ENDBRANCH  12  15
ENDBRANCH   9  11
ENDBRANCH   4   7
BRANCH   1  21
ATOM     21  S   UNL     1       1.147   3.847   0.011  0.00  0.00    +0.061 S 
ATOM     22  O   UNL     1       2.382   4.273  -0.549  0.00  0.00    -0.153 OA
ATOM     23  O   UNL     1      -0.109   4.239  -0.526  0.00  0.00    -0.153 OA
BRANCH  21  27
ATOM     24  C   UNL     1       1.208  -0.679  -0.013  0.00  0.00    -0.045 A 
ATOM     25  C   UNL     1       0.002  -0.004   0.002  0.00  0.00    +0.006 A 
ATOM     26  C   UNL     1      -0.017   1.378   0.010  0.00  0.00    +0.029 A 
ATOM     27  C   UNL     1       1.171   2.086   0.002  0.00  0.00    +0.105 A 
ATOM     28  C   UNL     1       2.377   1.411  -0.015  0.00  0.00    +0.029 A 
ATOM     29  C   UNL     1       2.396   0.029  -0.021  0.00  0.00    +0.006 A 
BRANCH  24  31
ATOM     30  C   UNL     1       1.944  -2.680  -1.279  0.00  0.00    +0.012 C 
ATOM     31  C   UNL     1       1.229  -2.186  -0.021  0.00  0.00    +0.013 C 
ATOM     32  C   UNL     1       1.969  -2.692   1.219  0.00  0.00    +0.012 C 
ENDBRANCH  24  31
ENDBRANCH  21  27
ENDBRANCH   1  21
TORSDOF 6
