REMARK  Name = ZINC08568422
REMARK  12 active torsions:
REMARK  status: ('A' for Active; 'I' for Inactive)
REMARK    1  A    between atoms: C_1  and  C_2
REMARK    2  A    between atoms: C_2  and  N_3
REMARK    3  A    between atoms: N_3  and  C_4
REMARK    4  A    between atoms: N_3  and  C_6
REMARK    5  A    between atoms: C_4  and  C_5
REMARK    6  A    between atoms: C_9  and  C_13
REMARK    7  A    between atoms: C_10  and  O_12
REMARK    8  A    between atoms: N_14  and  N_15
REMARK    9  A    between atoms: C_16  and  C_18
REMARK   10  A    between atoms: C_18  and  N_29
REMARK   11  A    between atoms: C_19  and  C_20
REMARK   12  A    between atoms: C_30  and  C_32
REMARK                            x       y       z     vdW  Elec       q    Type
REMARK                         _______ _______ _______ _____ _____    ______ ____
ROOT
ATOM      1  C   UNL     1      -1.126   2.187   0.222  0.00  0.00    +0.098 C 
ATOM      2  C   UNL     1      -0.319   2.482   1.268  0.00  0.00    +0.036 C 
ENDROOT
BRANCH   2   3
ATOM      3  C   UNL     1      -0.798   2.288   2.644  0.00  0.00    -0.019 A 
ATOM      4  C   UNL     1      -2.148   2.491   2.952  0.00  0.00    +0.012 A 
ATOM      5  C   UNL     1      -2.595   2.303   4.242  0.00  0.00    +0.050 A 
ATOM      6  C   UNL     1      -1.709   1.922   5.241  0.00  0.00    +0.166 A 
ATOM      7  C   UNL     1      -0.361   1.722   4.942  0.00  0.00    +0.167 A 
ATOM      8  C   UNL     1       0.095   1.904   3.651  0.00  0.00    +0.057 A 
ATOM      9  O   UNL     1       0.289   1.357   6.086  0.00  0.00    -0.453 OA
ATOM     10  C   UNL     1      -0.744   0.938   6.997  0.00  0.00    +0.466 C 
ATOM     11  O   UNL     1      -1.900   1.682   6.571  0.00  0.00    -0.453 OA
ENDBRANCH   2   3
BRANCH   1  13
ATOM     12  N   UNL     1      -2.468   0.229   0.782  0.00  0.00    -0.202 N 
ATOM     13  C   UNL     1      -2.421   1.535   0.454  0.00  0.00    +0.277 C 
ATOM     14  O   UNL     1      -3.451   2.175   0.351  0.00  0.00    -0.267 OA
ATOM     15  H   UNL     1      -1.647  -0.263   0.934  0.00  0.00    +0.178 HD
BRANCH  12  17
ATOM     16  C   UNL     1      -3.756  -1.650   1.311  0.00  0.00    +0.142 C 
ATOM     17  N   UNL     1      -3.705  -0.419   0.901  0.00  0.00    -0.187 NA
BRANCH  16  21
ATOM     18  C   UNL     1      -7.468  -3.716   1.372  0.00  0.00    +0.033 A 
ATOM     19  C   UNL     1      -6.306  -4.358   1.791  0.00  0.00    +0.024 A 
ATOM     20  C   UNL     1      -5.101  -3.692   1.772  0.00  0.00    +0.015 A 
ATOM     21  C   UNL     1      -5.043  -2.366   1.332  0.00  0.00    +0.036 A 
ATOM     22  C   UNL     1      -6.215  -1.719   0.915  0.00  0.00    +0.127 A 
ATOM     23  C   UNL     1      -7.420  -2.399   0.933  0.00  0.00    +0.069 A 
BRANCH  22  24
ATOM     24  O   UNL     1      -6.168  -0.430   0.490  0.00  0.00    -0.506 OA
ATOM     25  H   UNL     1      -6.013  -0.334  -0.459  0.00  0.00    +0.292 HD
ENDBRANCH  22  24
BRANCH  18  26
ATOM     26  N   UNL     1      -8.684  -4.398   1.393  0.00  0.00    -0.330 N 
BRANCH  26  28
ATOM     27  C   UNL     1      -8.989  -5.812   3.365  0.00  0.00    +0.024 C 
ATOM     28  C   UNL     1      -8.738  -5.787   1.856  0.00  0.00    +0.102 C 
ENDBRANCH  26  28
BRANCH  26  29
ATOM     29  C   UNL     1      -9.909  -3.724   0.953  0.00  0.00    +0.102 C 
ATOM     30  C   UNL     1     -10.102  -3.948  -0.548  0.00  0.00    +0.024 C 
ENDBRANCH  26  29
ENDBRANCH  18  26
ENDBRANCH  16  21
ENDBRANCH  12  17
ENDBRANCH   1  13
BRANCH   1  31
ATOM     31  N   UNL     1      -0.726   2.502  -1.081  0.00  0.00    -0.277 N 
ATOM     32  C   UNL     1      -1.509   2.169  -2.126  0.00  0.00    +0.248 C 
ATOM     33  O   UNL     1      -2.605   1.680  -1.932  0.00  0.00    -0.270 OA
ATOM     34  H   UNL     1       0.115   2.961  -1.232  0.00  0.00    +0.155 HD
BRANCH  32  35
ATOM     35  C   UNL     1      -1.036   2.399  -3.507  0.00  0.00    +0.037 A 
ATOM     36  C   UNL     1       0.220   2.966  -3.733  0.00  0.00    +0.013 A 
ATOM     37  C   UNL     1       0.658   3.172  -5.025  0.00  0.00    +0.001 A 
ATOM     38  C   UNL     1      -0.149   2.829  -6.095  0.00  0.00    +0.000 A 
ATOM     39  C   UNL     1      -1.397   2.272  -5.878  0.00  0.00    +0.001 A 
ATOM     40  C   UNL     1      -1.845   2.055  -4.592  0.00  0.00    +0.013 A 
ENDBRANCH  32  35
ENDBRANCH   1  31
TORSDOF 10
