REMARK  Name = ZINC11092941
REMARK  10 active torsions:
REMARK  status: ('A' for Active; 'I' for Inactive)
REMARK    1  A    between atoms: C_1  and  C_2
REMARK    2  A    between atoms: C_2  and  C_3
REMARK    3  A    between atoms: C_2  and  C_4
REMARK    4  A    between atoms: C_4  and  C_6
REMARK    5  A    between atoms: C_4  and  N_52
REMARK    6  A    between atoms: C_16  and  C_18
REMARK    7  A    between atoms: C_16  and  C_19
REMARK    8  A    between atoms: C_16  and  N_52
REMARK    9  A    between atoms: N_21  and  C_22
REMARK   10  A    between atoms: C_25  and  C_28
REMARK                            x       y       z     vdW  Elec       q    Type
REMARK                         _______ _______ _______ _____ _____    ______ ____
ROOT
ATOM      1  N   UNL     1      -4.671  -0.179  -1.321  0.00  0.00    +0.391 N 
ATOM      2  H   UNL     1      -4.154   0.079  -2.170  0.00  0.00    -0.084 HD
ATOM      3  H   UNL     1      -5.175   0.642  -0.965  0.00  0.00    -0.084 HD
ENDROOT
BRANCH   1   4
ATOM      4  C   UNL     1      -5.641  -1.242  -1.646  0.00  0.00    +0.014 C 
ATOM      5  C   UNL     1      -5.039  -2.179  -2.694  0.00  0.00    -0.004 C 
BRANCH   4   6
ATOM      6  C   UNL     1      -6.897  -0.615  -2.194  0.00  0.00    +0.203 C 
ATOM      7  O   UNL     1      -6.976   0.590  -2.300  0.00  0.00    -0.277 OA
ATOM      8  N   UNL     1      -7.931  -1.394  -2.567  0.00  0.00    -0.287 N 
ATOM      9  H   UNL     1      -7.845  -2.360  -2.540  0.00  0.00    +0.155 HD
BRANCH   8  10
ATOM     10  C   UNL     1      -9.126  -0.812  -2.991  0.00  0.00    +0.033 A 
ATOM     11  C   UNL     1      -9.551   0.388  -2.429  0.00  0.00    +0.024 A 
ATOM     12  C   UNL     1     -10.727   0.968  -2.849  0.00  0.00    +0.020 A 
ATOM     13  C   UNL     1     -11.500   0.345  -3.833  0.00  0.00    +0.052 A 
ATOM     14  C   UNL     1     -11.072  -0.863  -4.392  0.00  0.00    +0.020 A 
ATOM     15  C   UNL     1      -9.892  -1.435  -3.971  0.00  0.00    +0.024 A 
BRANCH  13  16
ATOM     16  C   UNL     1     -12.726   0.943  -4.269  0.00  0.00    +0.099 C 
ATOM     17  N   UNL     1     -13.698   1.417  -4.614  0.00  0.00    -0.191 NA
ENDBRANCH  13  16
ENDBRANCH   8  10
ENDBRANCH   4   6
ENDBRANCH   1   4
BRANCH   1  18
ATOM     18  C   UNL     1      -3.720  -0.648  -0.296  0.00  0.00    -0.037 C 
BRANCH  18  19
ATOM     19  C   UNL     1      -2.432   0.123  -0.425  0.00  0.00    -0.057 A 
ATOM     20  C   UNL     1      -2.464   1.478  -0.699  0.00  0.00    +0.006 A 
ATOM     21  C   UNL     1      -1.286   2.189  -0.822  0.00  0.00    +0.049 A 
ATOM     22  C   UNL     1      -0.067   1.546  -0.665  0.00  0.00    +0.162 A 
ATOM     23  C   UNL     1      -0.035   0.184  -0.388  0.00  0.00    +0.162 A 
ATOM     24  C   UNL     1      -1.221  -0.524  -0.270  0.00  0.00    +0.051 A 
ATOM     25  O   UNL     1       1.150  -0.467  -0.230  0.00  0.00    -0.485 OA
ATOM     26  C   UNL     1       2.319   0.195  -0.726  0.00  0.00    +0.270 C 
ATOM     27  C   UNL     1       2.274   1.658  -0.265  0.00  0.00    +0.270 C 
ATOM     28  O   UNL     1       1.086   2.258  -0.791  0.00  0.00    -0.485 OA
ENDBRANCH  18  19
BRANCH  18  30
ATOM     29  C   UNL     1      -3.366  -0.985   2.154  0.00  0.00    +0.006 C 
ATOM     30  C   UNL     1      -4.314  -0.420   1.095  0.00  0.00    -0.027 C 
ATOM     31  C   UNL     1      -4.504   1.080   1.329  0.00  0.00    +0.006 C 
ENDBRANCH  18  30
ENDBRANCH   1  18
TORSDOF 7
