REMARK  Name = ZINC36158735
REMARK  11 active torsions:
REMARK  status: ('A' for Active; 'I' for Inactive)
REMARK    1  A    between atoms: C_2  and  C_3
REMARK    2  A    between atoms: C_3  and  N_4
REMARK    3  A    between atoms: N_4  and  C_5
REMARK    4  A    between atoms: N_4  and  C_21
REMARK    5  A    between atoms: C_5  and  C_6
REMARK    6  A    between atoms: C_21  and  C_22
REMARK    7  A    between atoms: C_22  and  C_24
REMARK    8  A    between atoms: C_22  and  O_33
REMARK    9  A    between atoms: C_24  and  O_25
REMARK   10  A    between atoms: O_25  and  C_26
REMARK   11  A    between atoms: C_26  and  C_27
REMARK                            x       y       z     vdW  Elec       q    Type
REMARK                         _______ _______ _______ _____ _____    ______ ____
ROOT
ATOM      1  N   UNL     1       1.349  -1.514   1.554  0.00  0.00    +0.388 N 
ATOM      2  H   UNL     1       1.280  -1.004   2.421  0.00  0.00    -0.081 HD
ENDROOT
BRANCH   1   3
ATOM      3  C   UNL     1       0.902  -0.658   0.446  0.00  0.00    -0.051 C 
BRANCH   3   5
ATOM      4  C   UNL     1      -0.800   1.068   0.733  0.00  0.00    +0.002 C 
ATOM      5  C   UNL     1      -0.514  -0.209   0.698  0.00  0.00    -0.053 C 
ENDBRANCH   3   5
ENDBRANCH   1   3
BRANCH   1   6
ATOM      6  C   UNL     1       0.501  -2.711   1.620  0.00  0.00    -0.003 C 
BRANCH   6   7
ATOM      7  C   UNL     1       0.851  -3.507   2.851  0.00  0.00    +0.094 A 
ATOM      8  N   UNL     1       0.279  -4.723   3.045  0.00  0.00    -0.312 N 
ATOM      9  H   UNL     1      -0.348  -5.063   2.387  0.00  0.00    +0.170 HD
ATOM     10  C   UNL     1       0.564  -5.466   4.130  0.00  0.00    +0.260 A 
ATOM     11  O   UNL     1       0.043  -6.557   4.288  0.00  0.00    -0.267 OA
ATOM     12  C   UNL     1       1.492  -4.955   5.096  0.00  0.00    +0.075 A 
ATOM     13  C   UNL     1       1.946  -5.579   6.338  0.00  0.00    -0.023 A 
ATOM     14  C   UNL     1       2.834  -4.885   7.082  0.00  0.00    -0.004 A 
ATOM     15  S   UNL     1       3.111  -3.382   6.184  0.00  0.00    -0.073 S 
ATOM     16  C   UNL     1       2.031  -3.691   4.810  0.00  0.00    +0.116 A 
ATOM     17  N   UNL     1       1.704  -3.016   3.711  0.00  0.00    -0.229 NA
ATOM     18  C   UNL     1       3.447  -5.301   8.384  0.00  0.00    +0.043 C 
ATOM     19  C   UNL     1       2.637  -6.478   8.947  0.00  0.00    +0.005 C 
ATOM     20  C   UNL     1       2.426  -7.506   7.831  0.00  0.00    +0.005 C 
ATOM     21  C   UNL     1       1.453  -6.950   6.790  0.00  0.00    +0.037 C 
ENDBRANCH   6   7
ENDBRANCH   1   6
BRANCH   1  22
ATOM     22  C   UNL     1       2.745  -1.914   1.331  0.00  0.00    -0.044 C 
BRANCH  22  23
ATOM     23  C   UNL     1       3.652  -0.687   1.450  0.00  0.00    +0.124 C 
BRANCH  23  24
ATOM     24  O   UNL     1       3.409   0.193   0.350  0.00  0.00    -0.391 OA
ATOM     25  H   UNL     1       3.577  -0.203  -0.515  0.00  0.00    +0.210 HD
ENDBRANCH  23  24
BRANCH  23  26
ATOM     26  C   UNL     1       5.116  -1.133   1.433  0.00  0.00    +0.189 C 
BRANCH  26  27
ATOM     27  O   UNL     1       5.960  -0.002   1.661  0.00  0.00    -0.373 OA
BRANCH  27  28
ATOM     28  C   UNL     1       7.355  -0.310   1.665  0.00  0.00    +0.195 C 
BRANCH  28  29
ATOM     29  C   UNL     1       8.147   0.948   1.912  0.00  0.00    -0.022 A 
ATOM     30  C   UNL     1       8.553   1.730   0.847  0.00  0.00    +0.006 A 
ATOM     31  C   UNL     1       9.279   2.884   1.074  0.00  0.00    +0.000 A 
ATOM     32  C   UNL     1       9.598   3.257   2.366  0.00  0.00    +0.000 A 
ATOM     33  C   UNL     1       9.191   2.475   3.432  0.00  0.00    +0.000 A 
ATOM     34  C   UNL     1       8.462   1.323   3.205  0.00  0.00    +0.006 A 
ENDBRANCH  28  29
ENDBRANCH  27  28
ENDBRANCH  26  27
ENDBRANCH  23  26
ENDBRANCH  22  23
ENDBRANCH   1  22
TORSDOF 11
