REMARK  Name = ZINC64220744
REMARK  6 active torsions:
REMARK  status: ('A' for Active; 'I' for Inactive)
REMARK    1  A    between atoms: C_7  and  C_10
REMARK    2  A    between atoms: C_10  and  C_12
REMARK    3  A    between atoms: C_10  and  C_26
REMARK    4  A    between atoms: C_12  and  N_13
REMARK    5  A    between atoms: N_16  and  C_17
REMARK    6  A    between atoms: C_20  and  N_23
REMARK                            x       y       z     vdW  Elec       q    Type
REMARK                         _______ _______ _______ _____ _____    ______ ____
ROOT
ATOM      1  C   UNL     1       0.682  -3.177  -0.017  0.00  0.00    +0.071 C 
ENDROOT
BRANCH   1   8
ATOM      2  C   UNL     1      -0.018   1.357   0.041  0.00  0.00    +0.001 A 
ATOM      3  C   UNL     1       1.165   2.109   0.030  0.00  0.00    +0.002 A 
ATOM      4  C   UNL     1       2.389   1.541   0.005  0.00  0.00    +0.026 A 
ATOM      5  C   UNL     1       2.525   0.125  -0.011  0.00  0.00    +0.043 A 
ATOM      6  N   UNL     1       3.581  -0.650  -0.036  0.00  0.00    -0.380 N 
ATOM      7  C   UNL     1       3.136  -2.048  -0.043  0.00  0.00    +0.145 C 
ATOM      8  C   UNL     1       1.624  -2.002  -0.019  0.00  0.00    -0.032 C 
ATOM      9  C   UNL     1       1.290  -0.691  -0.000  0.00  0.00    -0.000 A 
ATOM     10  C   UNL     1      -0.002   0.005   0.027  0.00  0.00    +0.010 A 
ATOM     11  H   UNL     1       4.504  -0.350  -0.048  0.00  0.00    +0.160 HD
ENDBRANCH   1   8
BRANCH   1  12
ATOM     12  C   UNL     1       0.903  -4.000  -1.260  0.00  0.00    -0.002 A 
ATOM     13  C   UNL     1       0.030  -4.297  -2.253  0.00  0.00    +0.012 A 
ATOM     14  C   UNL     1       0.457  -5.079  -3.310  0.00  0.00    +0.008 A 
ATOM     15  C   UNL     1       1.737  -5.525  -3.322  0.00  0.00    +0.045 A 
ATOM     16  S   UNL     1       2.384  -4.831  -1.810  0.00  0.00    -0.101 S 
ENDBRANCH   1  12
BRANCH   1  17
ATOM     17  C   UNL     1       0.945  -4.040   1.219  0.00  0.00    +0.118 C 
BRANCH  17  18
ATOM     18  N   UNL     1      -0.048  -5.115   1.285  0.00  0.00    -0.298 N 
ATOM     19  C   UNL     1      -0.013  -6.004   2.297  0.00  0.00    +0.304 C 
ATOM     20  O   UNL     1       0.844  -5.914   3.155  0.00  0.00    -0.253 OA
ATOM     21  N   UNL     1      -0.926  -6.994   2.357  0.00  0.00    -0.269 N 
ATOM     22  H   UNL     1      -0.731  -5.187   0.600  0.00  0.00    +0.150 HD
ATOM     23  H   UNL     1      -1.649  -7.026   1.711  0.00  0.00    +0.156 HD
BRANCH  21  24
ATOM     24  C   UNL     1      -0.832  -7.973   3.352  0.00  0.00    +0.035 A 
ATOM     25  C   UNL     1      -1.196  -9.284   3.074  0.00  0.00    +0.025 A 
ATOM     26  C   UNL     1      -1.101 -10.249   4.058  0.00  0.00    +0.034 A 
ATOM     27  C   UNL     1      -0.644  -9.911   5.319  0.00  0.00    +0.126 A 
ATOM     28  C   UNL     1      -0.281  -8.606   5.599  0.00  0.00    +0.034 A 
ATOM     29  C   UNL     1      -0.368  -7.638   4.617  0.00  0.00    +0.025 A 
BRANCH  27  30
ATOM     30  N   UNL     1      -0.544 -10.947   6.371  0.00  0.00    +0.056 N 
ATOM     31  O   UNL     1      -0.862 -12.088   6.128  0.00  0.00    -0.126 OA
ATOM     32  O   UNL     1      -0.145 -10.652   7.473  0.00  0.00    -0.126 OA
ENDBRANCH  27  30
ENDBRANCH  21  24
ENDBRANCH  17  18
ENDBRANCH   1  17
TORSDOF 6
