REMARK  Name = ZINC03876357
REMARK  3 active torsions:
REMARK  status: ('A' for Active; 'I' for Inactive)
REMARK    1  A    between atoms: C_4  and  C_7
REMARK    2  A    between atoms: C_20  and  C_24
REMARK    3  A    between atoms: C_28  and  N_30
REMARK                            x       y       z     vdW  Elec       q    Type
REMARK                         _______ _______ _______ _____ _____    ______ ____
ROOT
ATOM      1  C   UNL     1       3.720  -0.639  -0.020  0.00  0.00    +0.005 C 
ATOM      2  C   UNL     1       4.548  -0.622  -1.166  0.00  0.00    +0.006 A 
ATOM      3  C   UNL     1       4.181   0.127  -2.297  0.00  0.00    +0.025 A 
ATOM      4  C   UNL     1       4.989   0.134  -3.395  0.00  0.00    +0.019 A 
ATOM      5  C   UNL     1       6.177  -0.595  -3.409  0.00  0.00    +0.017 A 
ATOM      6  C   UNL     1       6.562  -1.331  -2.330  0.00  0.00    +0.025 A 
ATOM      7  C   UNL     1       5.755  -1.363  -1.178  0.00  0.00    +0.042 A 
ATOM      8  N   UNL     1       6.134  -2.086  -0.117  0.00  0.00    -0.281 N 
ATOM      9  C   UNL     1       5.408  -2.149   0.990  0.00  0.00    +0.250 C 
ATOM     10  O   UNL     1       5.796  -2.823   1.933  0.00  0.00    -0.270 OA
ATOM     11  C   UNL     1       4.141  -1.405   1.093  0.00  0.00    +0.063 C 
ATOM     12  C   UNL     1       3.373  -1.458   2.257  0.00  0.00    +0.033 C 
ATOM     13  C   UNL     1       3.786  -2.099   3.570  0.00  0.00    +0.077 C 
ATOM     14  C   UNL     1       2.438  -2.193   4.326  0.00  0.00    +0.108 C 
ATOM     15  N   UNL     1       1.648  -1.124   3.671  0.00  0.00    -0.235 NA
ATOM     16  N   UNL     1       2.144  -0.948   2.413  0.00  0.00    -0.283 N 
ATOM     17 BR   UNL     1       4.492   1.142  -4.915  0.00  0.00    -0.050 Br
ATOM     18  H   UNL     1       1.696  -0.265   4.197  0.00  0.00    +0.145 HD
ATOM     19  H   UNL     1       1.656  -0.502   1.704  0.00  0.00    +0.166 HD
ATOM     20  H   UNL     1       6.967  -2.580  -0.160  0.00  0.00    +0.155 HD
ENDROOT
BRANCH   1  24
ATOM     21  C   UNL     1       0.087   1.556   0.089  0.00  0.00    +0.000 A 
ATOM     22  C   UNL     1       0.160   0.380  -0.637  0.00  0.00    +0.001 A 
ATOM     23  C   UNL     1       1.336  -0.338  -0.677  0.00  0.00    +0.008 A 
ATOM     24  C   UNL     1       2.457   0.124   0.018  0.00  0.00    -0.016 A 
ATOM     25  C   UNL     1       2.376   1.313   0.749  0.00  0.00    +0.008 A 
ATOM     26  C   UNL     1       1.193   2.020   0.779  0.00  0.00    +0.001 A 
ENDBRANCH   1  24
BRANCH  14  27
ATOM     27  C   UNL     1       2.622  -1.905   5.794  0.00  0.00    -0.026 A 
ATOM     28  C   UNL     1       2.712  -0.598   6.237  0.00  0.00    +0.005 A 
ATOM     29  C   UNL     1       2.881  -0.334   7.583  0.00  0.00    +0.003 A 
ATOM     30  C   UNL     1       2.960  -1.377   8.487  0.00  0.00    +0.033 A 
ATOM     31  C   UNL     1       2.869  -2.684   8.045  0.00  0.00    +0.127 A 
ATOM     32  C   UNL     1       2.696  -2.947   6.699  0.00  0.00    +0.038 A 
BRANCH  31  33
ATOM     33  N   UNL     1       2.954  -3.800   9.013  0.00  0.00    +0.056 N 
ATOM     34  O   UNL     1       3.102  -3.570  10.190  0.00  0.00    -0.126 OA
ATOM     35  O   UNL     1       2.874  -4.943   8.626  0.00  0.00    -0.126 OA
ENDBRANCH  31  33
ENDBRANCH  14  27
TORSDOF 3
