REMARK  Name = ZINC39324247
REMARK  8 active torsions:
REMARK  status: ('A' for Active; 'I' for Inactive)
REMARK    1  A    between atoms: C_1  and  C_2
REMARK    2  A    between atoms: C_2  and  C_3
REMARK    3  A    between atoms: C_2  and  C_4
REMARK    4  A    between atoms: C_2  and  C_5
REMARK    5  A    between atoms: C_12  and  N_29
REMARK    6  A    between atoms: C_13  and  C_27
REMARK    7  A    between atoms: C_14  and  C_16
REMARK    8  A    between atoms: C_19  and  N_22
REMARK                            x       y       z     vdW  Elec       q    Type
REMARK                         _______ _______ _______ _____ _____    ______ ____
ROOT
ATOM      1  C   UNL     1       0.912  -0.342  -1.938  0.00  0.00    +0.049 A 
ATOM      2  C   UNL     1       1.122  -1.666  -1.913  0.00  0.00    +0.050 A 
ATOM      3  C   UNL     1       1.992  -1.993  -2.977  0.00  0.00    +0.245 A 
ATOM      4  N   UNL     1       2.285  -0.894  -3.610  0.00  0.00    -0.135 NA
ATOM      5  N   UNL     1       1.612   0.165  -2.979  0.00  0.00    -0.277 N 
ATOM      6  H   UNL     1       1.646   1.098  -3.243  0.00  0.00    +0.189 HD
ATOM      7  O   UNL     1       2.397  -3.270  -3.211  0.00  0.00    -0.421 OA
ATOM      8  C   UNL     1       2.166  -4.181  -2.246  0.00  0.00    +0.201 C 
ATOM      9  C   UNL     1       1.347  -3.988  -1.191  0.00  0.00    +0.098 C 
ATOM     10  C   UNL     1       0.579  -2.709  -0.969  0.00  0.00    +0.101 C 
ENDROOT
BRANCH  10  11
ATOM     11  C   UNL     1      -0.883  -2.939  -1.252  0.00  0.00    -0.034 A 
ATOM     12  C   UNL     1      -1.313  -3.131  -2.552  0.00  0.00    +0.006 A 
ATOM     13  C   UNL     1      -2.652  -3.342  -2.814  0.00  0.00    +0.023 A 
ATOM     14  C   UNL     1      -3.568  -3.361  -1.769  0.00  0.00    +0.030 A 
ATOM     15  C   UNL     1      -3.133  -3.168  -0.464  0.00  0.00    +0.023 A 
ATOM     16  C   UNL     1      -1.791  -2.963  -0.209  0.00  0.00    +0.006 A 
BRANCH  14  17
ATOM     17  N   UNL     1      -4.924  -3.574  -2.031  0.00  0.00    -0.330 N 
ATOM     18  C   UNL     1      -5.516  -3.797  -3.358  0.00  0.00    +0.105 C 
ATOM     19  C   UNL     1      -7.038  -3.956  -3.160  0.00  0.00    +0.020 C 
ATOM     20  C   UNL     1      -7.287  -3.251  -1.800  0.00  0.00    +0.020 C 
ATOM     21  C   UNL     1      -5.997  -3.619  -1.021  0.00  0.00    +0.105 C 
ENDBRANCH  14  17
ENDBRANCH  10  11
BRANCH   1  23
ATOM     22  C   UNL     1       0.202   1.936  -1.263  0.00  0.00    +0.017 C 
ATOM     23  C   UNL     1       0.047   0.440  -0.983  0.00  0.00    +0.004 C 
ATOM     24  C   UNL     1       0.477   0.142   0.454  0.00  0.00    +0.017 C 
ATOM     25  C   UNL     1      -1.416   0.035  -1.172  0.00  0.00    +0.017 C 
ENDBRANCH   1  23
BRANCH   8  26
ATOM     26  N   UNL     1       2.808  -5.391  -2.342  0.00  0.00    -0.328 N 
ATOM     27  H   UNL     1       3.404  -5.565  -3.087  0.00  0.00    +0.145 HD
ATOM     28  H   UNL     1       2.665  -6.071  -1.665  0.00  0.00    +0.145 HD
ENDBRANCH   8  26
BRANCH   9  29
ATOM     29  C   UNL     1       1.200  -5.046  -0.237  0.00  0.00    +0.101 C 
ATOM     30  N   UNL     1       1.083  -5.885   0.519  0.00  0.00    -0.191 NA
ENDBRANCH   9  29
TORSDOF 5
