REMARK  Name = ZINC15860499
REMARK  10 active torsions:
REMARK  status: ('A' for Active; 'I' for Inactive)
REMARK    1  A    between atoms: C_1  and  C_2
REMARK    2  A    between atoms: C_5  and  C_7
REMARK    3  A    between atoms: C_7  and  C_9
REMARK    4  A    between atoms: C_7  and  N_62
REMARK    5  A    between atoms: C_9  and  N_10
REMARK    6  A    between atoms: C_11  and  C_13
REMARK    7  A    between atoms: C_14  and  C_24
REMARK    8  A    between atoms: C_16  and  C_23
REMARK    9  A    between atoms: C_18  and  C_22
REMARK   10  A    between atoms: C_27  and  C_30
REMARK                            x       y       z     vdW  Elec       q    Type
REMARK                         _______ _______ _______ _____ _____    ______ ____
ROOT
ATOM      1  C   UNL     1      -0.472   1.100  -3.568  0.00  0.00    +0.097 C 
ENDROOT
BRANCH   1   2
ATOM      2  N   UNL     1      -1.817   0.537  -3.421  0.00  0.00    -0.310 N 
ATOM      3  C   UNL     1      -2.671   0.551  -4.464  0.00  0.00    +0.280 C 
ATOM      4  O   UNL     1      -2.325   1.031  -5.527  0.00  0.00    -0.267 OA
ATOM      5  H   UNL     1      -2.092   0.154  -2.574  0.00  0.00    +0.149 HD
BRANCH   3   6
ATOM      6  C   UNL     1      -4.019  -0.014  -4.317  0.00  0.00    +0.193 A 
ATOM      7  C   UNL     1      -4.961  -0.055  -5.295  0.00  0.00    +0.008 A 
ATOM      8  C   UNL     1      -6.133  -0.698  -4.702  0.00  0.00    +0.027 A 
ATOM      9  C   UNL     1      -7.405  -1.030  -5.175  0.00  0.00    -0.039 A 
ATOM     10  C   UNL     1      -8.298  -1.645  -4.344  0.00  0.00    +0.007 A 
ATOM     11  C   UNL     1      -7.949  -1.940  -3.033  0.00  0.00    -0.047 A 
ATOM     12  C   UNL     1      -6.700  -1.621  -2.546  0.00  0.00    +0.050 A 
ATOM     13  C   UNL     1      -5.774  -0.995  -3.374  0.00  0.00    +0.137 A 
ATOM     14  O   UNL     1      -4.507  -0.576  -3.191  0.00  0.00    -0.450 OA
ATOM     15  C   UNL     1      -8.948  -2.619  -2.131  0.00  0.00    +0.044 C 
ATOM     16  C   UNL     1      -7.790  -0.712  -6.597  0.00  0.00    +0.044 C 
ATOM     17  C   UNL     1      -4.825   0.459  -6.705  0.00  0.00    +0.048 C 
ENDBRANCH   3   6
ENDBRANCH   1   2
BRANCH   1  18
ATOM     18  C   UNL     1       0.326   0.855  -2.286  0.00  0.00    +0.016 C 
BRANCH  18  25
ATOM     19  C   UNL     1      -0.739   2.834  -1.387  0.00  0.00    -0.078 C 
ATOM     20  C   UNL     1      -1.613   3.354  -0.243  0.00  0.00    -0.015 C 
ATOM     21  C   UNL     1      -0.851   3.218   1.078  0.00  0.00    -0.018 C 
ATOM     22  C   UNL     1      -0.464   1.751   1.285  0.00  0.00    -0.015 C 
ATOM     23  C   UNL     1       0.377   1.277   0.097  0.00  0.00    -0.078 C 
ATOM     24  C   UNL     1      -1.743   3.679   2.232  0.00  0.00    +0.007 C 
ATOM     25  N   UNL     1      -0.422   1.412  -1.140  0.00  0.00    +0.387 N 
ATOM     26  H   UNL     1      -1.298   0.889  -1.028  0.00  0.00    -0.081 HD
ENDBRANCH  18  25
BRANCH  18  31
ATOM     27  C   UNL     1       3.941   4.372  -2.285  0.00  0.00    +0.086 C 
ATOM     28  C   UNL     1       3.251   3.038  -2.403  0.00  0.00    +0.102 A 
ATOM     29  C   UNL     1       3.843   1.871  -2.713  0.00  0.00    +0.044 A 
ATOM     30  C   UNL     1       2.830   0.884  -2.708  0.00  0.00    +0.043 A 
ATOM     31  C   UNL     1       1.679   1.508  -2.404  0.00  0.00    +0.093 A 
ATOM     32  O   UNL     1       1.940   2.813  -2.217  0.00  0.00    -0.466 OA
ENDBRANCH  18  31
ENDBRANCH   1  18
TORSDOF 5
