REMARK  Name = ZINC36312719
REMARK  3 active torsions:
REMARK  status: ('A' for Active; 'I' for Inactive)
REMARK    1  A    between atoms: C_1  and  C_2
REMARK    2  A    between atoms: N_10  and  N_14
REMARK    3  A    between atoms: C_15  and  C_16
REMARK                            x       y       z     vdW  Elec       q    Type
REMARK                         _______ _______ _______ _____ _____    ______ ____
ROOT
ATOM      1  C   UNL     1      -0.018   1.526   0.013  0.00  0.00    +0.007 C 
ATOM      2  C   UNL     1       0.003  -0.004   0.000  0.00  0.00    -0.014 C 
ATOM      3  C   UNL     1       0.724  -0.493  -1.257  0.00  0.00    +0.006 C 
ATOM      4  C   UNL     1       0.735  -2.024  -1.275  0.00  0.00    +0.035 C 
ATOM      5  C   UNL     1       1.442  -2.543  -0.028  0.00  0.00    +0.114 C 
ATOM      6  C   UNL     1       0.746  -2.045   1.234  0.00  0.00    +0.035 C 
ATOM      7  C   UNL     1       0.735  -0.514   1.243  0.00  0.00    +0.006 C 
ATOM      8  C   UNL     1       1.495  -4.053  -0.041  0.00  0.00    +0.266 C 
ATOM      9  O   UNL     1       0.556  -4.820  -0.044  0.00  0.00    -0.271 OA
ATOM     10  N   UNL     1       2.807  -4.367  -0.049  0.00  0.00    -0.109 N 
ATOM     11  C   UNL     1       3.577  -3.272  -0.043  0.00  0.00    +0.330 C 
ATOM     12  O   UNL     1       4.792  -3.300  -0.048  0.00  0.00    -0.250 OA
ATOM     13  N   UNL     1       2.853  -2.136  -0.030  0.00  0.00    -0.283 N 
ATOM     14  H   UNL     1       3.197  -1.229  -0.024  0.00  0.00    +0.151 HD
ENDROOT
BRANCH  10  15
ATOM     15  N   UNL     1       3.303  -5.678  -0.062  0.00  0.00    -0.176 NA
ATOM     16  C   UNL     1       2.486  -6.681   0.040  0.00  0.00    +0.142 C 
BRANCH  16  17
ATOM     17  C   UNL     1       3.014  -8.054   0.139  0.00  0.00    +0.031 A 
ATOM     18  C   UNL     1       2.139  -9.137   0.243  0.00  0.00    +0.027 A 
ATOM     19  C   UNL     1       2.640 -10.420   0.335  0.00  0.00    +0.019 A 
ATOM     20  C   UNL     1       4.008 -10.635   0.325  0.00  0.00    +0.018 A 
ATOM     21  C   UNL     1       4.882  -9.569   0.223  0.00  0.00    +0.040 A 
ATOM     22  C   UNL     1       4.395  -8.279   0.123  0.00  0.00    +0.132 A 
ATOM     23  F   UNL     1       5.250  -7.238   0.017  0.00  0.00    -0.205 F 
ATOM     24 BR   UNL     1       1.455 -11.887   0.477  0.00  0.00    -0.050 Br
ENDBRANCH  16  17
ENDBRANCH  10  15
TORSDOF 2
