REMARK  Name = ZINC12459502
REMARK  14 active torsions:
REMARK  status: ('A' for Active; 'I' for Inactive)
REMARK    1  A    between atoms: C_1  and  N_65
REMARK    2  A    between atoms: C_2  and  C_3
REMARK    3  A    between atoms: C_2  and  N_65
REMARK    4  A    between atoms: C_9  and  C_10
REMARK    5  A    between atoms: C_9  and  N_65
REMARK    6  A    between atoms: C_10  and  C_12
REMARK    7  A    between atoms: C_10  and  O_32
REMARK    8  A    between atoms: C_12  and  O_13
REMARK    9  A    between atoms: O_13  and  C_14
REMARK   10  A    between atoms: C_16  and  C_22
REMARK   11  A    between atoms: C_19  and  O_20
REMARK   12  A    between atoms: O_20  and  C_21
REMARK   13  A    between atoms: C_22  and  N_67
REMARK   14  A    between atoms: C_23  and  N_67
REMARK                            x       y       z     vdW  Elec       q    Type
REMARK                         _______ _______ _______ _____ _____    ______ ____
ROOT
ATOM      1  C   UNL     1      -3.808   4.058   3.680  0.00  0.00    +0.162 A 
ATOM      2  C   UNL     1      -3.209   3.616   2.511  0.00  0.00    +0.051 A 
ATOM      3  C   UNL     1      -1.870   3.874   2.281  0.00  0.00    -0.061 A 
ATOM      4  C   UNL     1      -1.130   4.582   3.209  0.00  0.00    +0.005 A 
ATOM      5  C   UNL     1      -1.723   5.030   4.375  0.00  0.00    +0.049 A 
ATOM      6  C   UNL     1      -3.063   4.770   4.615  0.00  0.00    +0.162 A 
ENDROOT
BRANCH   6   7
ATOM      7  O   UNL     1      -3.648   5.210   5.761  0.00  0.00    -0.491 OA
ATOM      8  C   UNL     1      -2.822   5.935   6.674  0.00  0.00    +0.277 C 
ENDBRANCH   6   7
BRANCH   1   9
ATOM      9  O   UNL     1      -5.123   3.800   3.910  0.00  0.00    -0.486 OA
BRANCH   9  10
ATOM     10  C   UNL     1      -5.826   3.064   2.907  0.00  0.00    +0.258 C 
BRANCH  10  11
ATOM     11  C   UNL     1      -7.281   2.873   3.340  0.00  0.00    +0.135 C 
BRANCH  11  12
ATOM     12  O   UNL     1      -7.931   4.144   3.400  0.00  0.00    -0.390 OA
ATOM     13  H   UNL     1      -7.943   4.620   2.558  0.00  0.00    +0.210 HD
ENDBRANCH  11  12
BRANCH  11  14
ATOM     14  C   UNL     1      -8.001   1.980   2.327  0.00  0.00    -0.044 C 
BRANCH  14  16
ATOM     15  C   UNL     1      -9.479   1.038   3.998  0.00  0.00    -0.096 C 
ATOM     16  N   UNL     1      -9.410   1.823   2.747  0.00  0.00    +0.382 N 
ATOM     17  H   UNL     1      -9.814   2.752   2.914  0.00  0.00    -0.082 HD
BRANCH  16  18
ATOM     18  C   UNL     1     -10.182   1.147   1.683  0.00  0.00    -0.043 C 
BRANCH  18  19
ATOM     19  C   UNL     1     -11.645   1.197   2.038  0.00  0.00    -0.064 A 
ATOM     20  C   UNL     1     -12.216   0.168   2.764  0.00  0.00    +0.002 A 
ATOM     21  C   UNL     1     -13.557   0.216   3.094  0.00  0.00    +0.000 A 
ATOM     22  C   UNL     1     -14.331   1.288   2.690  0.00  0.00    +0.000 A 
ATOM     23  C   UNL     1     -13.762   2.314   1.959  0.00  0.00    +0.000 A 
ATOM     24  C   UNL     1     -12.419   2.269   1.634  0.00  0.00    +0.002 A 
ENDBRANCH  18  19
ENDBRANCH  16  18
ENDBRANCH  14  16
ENDBRANCH  11  14
ENDBRANCH  10  11
ENDBRANCH   9  10
ENDBRANCH   1   9
BRANCH   3  25
ATOM     25  C   UNL     1      -1.218   3.389   1.012  0.00  0.00    -0.046 C 
BRANCH  25  26
ATOM     26  N   UNL     1      -0.664   2.041   1.238  0.00  0.00    +0.384 N 
ATOM     27  H   UNL     1      -1.423   1.403   1.507  0.00  0.00    -0.085 HD
ATOM     28  H   UNL     1       0.030   2.083   1.993  0.00  0.00    -0.085 HD
BRANCH  26  29
ATOM     29  C   UNL     1      -0.019   1.539   0.011  0.00  0.00    -0.063 C 
ATOM     30  C   UNL     1       1.484   1.891  -0.002  0.00  0.00    +0.020 C 
ATOM     31  C   UNL     1       2.162   0.710  -0.663  0.00  0.00    -0.046 A 
ATOM     32  C   UNL     1       3.423   0.597  -1.223  0.00  0.00    +0.004 A 
ATOM     33  C   UNL     1       3.833  -0.599  -1.778  0.00  0.00    +0.000 A 
ATOM     34  C   UNL     1       2.982  -1.688  -1.776  0.00  0.00    +0.000 A 
ATOM     35  C   UNL     1       1.723  -1.578  -1.218  0.00  0.00    +0.004 A 
ATOM     36  C   UNL     1       1.310  -0.379  -0.661  0.00  0.00    -0.046 A 
ATOM     37  C   UNL     1       0.002  -0.004   0.002  0.00  0.00    +0.020 C 
ENDBRANCH  26  29
ENDBRANCH  25  26
ENDBRANCH   3  25
TORSDOF 12
