REMARK  Name = ZINC64220403
REMARK  7 active torsions:
REMARK  status: ('A' for Active; 'I' for Inactive)
REMARK    1  A    between atoms: C_7  and  C_10
REMARK    2  A    between atoms: C_10  and  C_11
REMARK    3  A    between atoms: C_11  and  N_12
REMARK    4  A    between atoms: C_13  and  C_15
REMARK    5  A    between atoms: C_19  and  N_21
REMARK    6  A    between atoms: N_21  and  S_22
REMARK    7  A    between atoms: S_22  and  C_25
REMARK                            x       y       z     vdW  Elec       q    Type
REMARK                         _______ _______ _______ _____ _____    ______ ____
ROOT
ATOM      1  C   UNL     1      -1.734  -6.535  -2.622  0.00  0.00    +0.038 A 
ATOM      2  C   UNL     1      -2.247  -7.021  -1.417  0.00  0.00    +0.013 A 
ATOM      3  C   UNL     1      -3.108  -8.098  -1.418  0.00  0.00    +0.003 A 
ATOM      4  C   UNL     1      -3.466  -8.702  -2.609  0.00  0.00    +0.024 A 
ATOM      5  C   UNL     1      -2.962  -8.226  -3.814  0.00  0.00    +0.049 A 
ATOM      6  C   UNL     1      -2.100  -7.140  -3.824  0.00  0.00    +0.037 A 
ENDROOT
BRANCH   1   8
ATOM      7  N   UNL     1      -0.458  -4.798  -1.460  0.00  0.00    -0.311 N 
ATOM      8  C   UNL     1      -0.811  -5.380  -2.623  0.00  0.00    +0.244 C 
ATOM      9  O   UNL     1      -0.370  -4.956  -3.674  0.00  0.00    -0.270 OA
ATOM     10  H   UNL     1      -0.810  -5.136  -0.622  0.00  0.00    +0.149 HD
BRANCH   7  11
ATOM     11  C   UNL     1       0.457  -3.653  -1.462  0.00  0.00    +0.109 C 
BRANCH  11  12
ATOM     12  C   UNL     1       0.691  -3.186  -0.024  0.00  0.00    +0.052 C 
BRANCH  12  19
ATOM     13  C   UNL     1      -0.016   1.348   0.009  0.00  0.00    +0.001 A 
ATOM     14  C   UNL     1       1.166   2.101   0.002  0.00  0.00    +0.002 A 
ATOM     15  C   UNL     1       2.391   1.535  -0.013  0.00  0.00    +0.026 A 
ATOM     16  C   UNL     1       2.529   0.120  -0.022  0.00  0.00    +0.043 A 
ATOM     17  N   UNL     1       3.587  -0.654  -0.037  0.00  0.00    -0.380 N 
ATOM     18  C   UNL     1       3.143  -2.053  -0.041  0.00  0.00    +0.144 C 
ATOM     19  C   UNL     1       1.631  -2.008  -0.025  0.00  0.00    -0.040 C 
ATOM     20  C   UNL     1       1.295  -0.698  -0.014  0.00  0.00    -0.001 A 
ATOM     21  C   UNL     1       0.002  -0.004   0.002  0.00  0.00    +0.010 A 
ATOM     22  H   UNL     1       4.509  -0.353  -0.045  0.00  0.00    +0.160 HD
ENDBRANCH  12  19
ENDBRANCH  11  12
ENDBRANCH   7  11
ENDBRANCH   1   8
BRANCH   5  23
ATOM     23  N   UNL     1      -3.327  -8.840  -5.015  0.00  0.00    -0.216 N 
ATOM     24  H   UNL     1      -2.652  -9.037  -5.683  0.00  0.00    +0.174 HD
BRANCH  23  25
ATOM     25  S   UNL     1      -4.911  -9.231  -5.297  0.00  0.00    +0.072 S 
ATOM     26  O   UNL     1      -4.962  -9.807  -6.595  0.00  0.00    -0.150 OA
ATOM     27  O   UNL     1      -5.372  -9.915  -4.141  0.00  0.00    -0.150 OA
BRANCH  25  28
ATOM     28  C   UNL     1      -5.813  -7.720  -5.381  0.00  0.00    +0.112 A 
ATOM     29  C   UNL     1      -6.359  -7.178  -4.232  0.00  0.00    +0.032 A 
ATOM     30  C   UNL     1      -7.068  -5.992  -4.290  0.00  0.00    +0.051 A 
ATOM     31  C   UNL     1      -7.229  -5.347  -5.505  0.00  0.00    +0.162 A 
ATOM     32  C   UNL     1      -6.682  -5.891  -6.659  0.00  0.00    +0.164 A 
ATOM     33  C   UNL     1      -5.968  -7.076  -6.596  0.00  0.00    +0.078 A 
ATOM     34  O   UNL     1      -6.846  -5.247  -7.851  0.00  0.00    -0.488 OA
ATOM     35  C   UNL     1      -8.177  -5.222  -8.369  0.00  0.00    +0.232 C 
ATOM     36  C   UNL     1      -8.968  -4.072  -7.767  0.00  0.00    +0.082 C 
ATOM     37  C   UNL     1      -9.174  -4.232  -6.269  0.00  0.00    +0.232 C 
ATOM     38  O   UNL     1      -7.926  -4.176  -5.577  0.00  0.00    -0.488 OA
ENDBRANCH  25  28
ENDBRANCH  23  25
ENDBRANCH   5  23
TORSDOF 7
