REMARK  Name = ZINC13721221
REMARK  6 active torsions:
REMARK  status: ('A' for Active; 'I' for Inactive)
REMARK    1  A    between atoms: C_1  and  C_2
REMARK    2  A    between atoms: C_2  and  C_3
REMARK    3  A    between atoms: C_2  and  C_4
REMARK    4  A    between atoms: C_4  and  C_5
REMARK    5  A    between atoms: C_7  and  C_11
REMARK    6  A    between atoms: C_17  and  C_19
REMARK                            x       y       z     vdW  Elec       q    Type
REMARK                         _______ _______ _______ _____ _____    ______ ____
ROOT
ATOM      1  C   UNL     1      -1.070   2.078   5.210  0.00  0.00    +0.206 A 
ATOM      2  N   UNL     1      -0.500   3.261   5.210  0.00  0.00    -0.125 NA
ATOM      3  N   UNL     1      -0.930   3.955   6.205  0.00  0.00    -0.120 NA
ATOM      4  C   UNL     1      -1.790   3.256   6.885  0.00  0.00    +0.219 A 
ATOM      5  N   UNL     1      -1.936   2.025   6.293  0.00  0.00    -0.184 N 
ATOM      6  N   UNL     1      -2.829   1.149   6.894  0.00  0.00    -0.155 NA
ATOM      7  C   UNL     1      -3.494   1.490   7.968  0.00  0.00    +0.135 A 
ATOM      8  S   UNL     1      -2.902   3.149   8.265  0.00  0.00    -0.026 S 
ENDROOT
BRANCH   7   9
ATOM      9  C   UNL     1      -4.479   0.702   8.742  0.00  0.00    +0.044 A 
ATOM     10  C   UNL     1      -5.089   1.255   9.867  0.00  0.00    +0.013 A 
ATOM     11  C   UNL     1      -6.007   0.515  10.585  0.00  0.00    +0.001 A 
ATOM     12  C   UNL     1      -6.323  -0.773  10.191  0.00  0.00    +0.003 A 
ATOM     13  C   UNL     1      -5.722  -1.329   9.076  0.00  0.00    +0.039 A 
ATOM     14  C   UNL     1      -4.805  -0.597   8.345  0.00  0.00    +0.133 A 
ATOM     15  F   UNL     1      -4.223  -1.138   7.253  0.00  0.00    -0.205 F 
ENDBRANCH   7   9
BRANCH   1  18
ATOM     16  C   UNL     1      -0.030  -0.130   2.478  0.00  0.00    +0.037 A 
ATOM     17  C   UNL     1       0.044   1.053   3.127  0.00  0.00    +0.056 A 
ATOM     18  C   UNL     1      -0.836   0.998   4.227  0.00  0.00    +0.131 A 
ATOM     19  N   UNL     1      -1.413  -0.188   4.225  0.00  0.00    -0.170 NA
ATOM     20  N   UNL     1      -0.921  -0.908   3.129  0.00  0.00    -0.281 N 
ATOM     21  H   UNL     1      -1.176  -1.811   2.881  0.00  0.00    +0.189 HD
BRANCH  16  22
ATOM     22  C   UNL     1       0.742  -0.511   1.242  0.00  0.00    +0.058 C 
BRANCH  22  24
ATOM     23  C   UNL     1      -0.019   1.526   0.010  0.00  0.00    +0.007 C 
ATOM     24  C   UNL     1       0.002  -0.004   0.002  0.00  0.00    -0.011 C 
ATOM     25  C   UNL     1       0.718  -0.497  -1.257  0.00  0.00    +0.007 C 
ENDBRANCH  22  24
ENDBRANCH  16  22
ENDBRANCH   1  18
TORSDOF 4
