REMARK  Name = ZINC38970741
REMARK  5 active torsions:
REMARK  status: ('A' for Active; 'I' for Inactive)
REMARK    1  A    between atoms: C_1  and  C_2
REMARK    2  A    between atoms: C_4  and  C_8
REMARK    3  A    between atoms: C_12  and  S_25
REMARK    4  A    between atoms: N_14  and  N_15
REMARK    5  A    between atoms: C_16  and  C_17
REMARK                            x       y       z     vdW  Elec       q    Type
REMARK                         _______ _______ _______ _____ _____    ______ ____
ROOT
ATOM      1  C   UNL     1      -0.789  -2.889  -1.152  0.00  0.00    +0.206 C 
ATOM      2  N   UNL     1      -0.238  -2.302  -2.395  0.00  0.00    -0.231 NA
ATOM      3  N   UNL     1      -0.199  -3.426  -3.344  0.00  0.00    -0.225 NA
ATOM      4  C   UNL     1       0.196  -4.574  -2.486  0.00  0.00    +0.231 C 
ATOM      5  N   UNL     1      -0.513  -4.335  -1.210  0.00  0.00    -0.207 N 
ATOM      6  H   UNL     1      -0.829  -1.560  -2.738  0.00  0.00    +0.143 HD
ATOM      7  H   UNL     1       0.485  -3.265  -4.068  0.00  0.00    +0.143 HD
ENDROOT
BRANCH   1  11
ATOM      8  C   UNL     1       0.890   1.321   0.160  0.00  0.00    +0.067 C 
ATOM      9  C   UNL     1       0.711  -0.174   0.092  0.00  0.00    +0.058 C 
ATOM     10  C   UNL     1      -0.461  -0.803   0.202  0.00  0.00    +0.029 C 
ATOM     11  C   UNL     1      -0.101  -2.272   0.068  0.00  0.00    +0.190 C 
ATOM     12  N   UNL     1       1.360  -2.240  -0.115  0.00  0.00    -0.177 NA
ATOM     13  N   UNL     1       1.716  -1.059  -0.094  0.00  0.00    -0.159 NA
ENDBRANCH   1  11
BRANCH   5  14
ATOM     14  N   UNL     1      -0.854  -5.293  -0.247  0.00  0.00    -0.188 NA
ATOM     15  C   UNL     1      -1.572  -4.954   0.779  0.00  0.00    +0.141 C 
BRANCH  15  16
ATOM     16  C   UNL     1      -1.836  -5.933   1.850  0.00  0.00    +0.031 A 
ATOM     17  C   UNL     1      -1.309  -7.225   1.766  0.00  0.00    +0.051 A 
ATOM     18  C   UNL     1      -1.560  -8.136   2.773  0.00  0.00    +0.021 A 
ATOM     19  C   UNL     1      -2.330  -7.772   3.864  0.00  0.00    +0.003 A 
ATOM     20  C   UNL     1      -2.855  -6.495   3.954  0.00  0.00    +0.021 A 
ATOM     21  C   UNL     1      -2.608  -5.571   2.957  0.00  0.00    +0.051 A 
ATOM     22 CL   UNL     1      -3.262  -3.968   3.076  0.00  0.00    -0.083 Cl
ATOM     23 CL   UNL     1      -0.343  -7.684   0.399  0.00  0.00    -0.083 Cl
ENDBRANCH  15  16
ENDBRANCH   5  14
BRANCH   4  24
ATOM     24  S   UNL     1      -0.343  -6.138  -3.230  0.00  0.00    -0.138 S 
ATOM     25  H   UNL     1       0.312  -6.182  -4.404  0.00  0.00    +0.105 HD
ENDBRANCH   4  24
TORSDOF 4
