REMARK  Name = ZINC12303166
REMARK  7 active torsions:
REMARK  status: ('A' for Active; 'I' for Inactive)
REMARK    1  A    between atoms: C_1  and  C_2
REMARK    2  A    between atoms: C_9  and  C_25
REMARK    3  A    between atoms: C_10  and  C_11
REMARK    4  A    between atoms: C_11  and  N_59
REMARK    5  A    between atoms: C_12  and  C_13
REMARK    6  A    between atoms: C_12  and  N_59
REMARK    7  A    between atoms: N_16  and  C_18
REMARK                            x       y       z     vdW  Elec       q    Type
REMARK                         _______ _______ _______ _____ _____    ______ ____
ROOT
ATOM      1  C   UNL     1      -1.198  -0.755   0.815  0.00  0.00    +0.047 C 
ATOM      2  C   UNL     1       0.055   0.012   0.478  0.00  0.00    -0.008 A 
ATOM      3  C   UNL     1       0.024   1.367   0.379  0.00  0.00    +0.008 A 
ATOM      4  C   UNL     1       1.200   2.070   0.065  0.00  0.00    +0.018 A 
ATOM      5  C   UNL     1       2.356   1.407  -0.140  0.00  0.00    +0.093 A 
ATOM      6  N   UNL     1       2.404   0.044  -0.044  0.00  0.00    -0.304 N 
ATOM      7  C   UNL     1       1.272  -0.670   0.262  0.00  0.00    +0.141 A 
ATOM      8  N   UNL     1       1.585  -1.954   0.293  0.00  0.00    -0.223 NA
ATOM      9  C   UNL     1       2.895  -2.094   0.015  0.00  0.00    +0.146 A 
ATOM     10  C   UNL     1       3.419  -0.851  -0.199  0.00  0.00    +0.039 A 
ENDROOT
BRANCH   9  11
ATOM     11  C   UNL     1       3.636  -3.368  -0.049  0.00  0.00    +0.267 C 
ATOM     12  O   UNL     1       4.843  -3.363  -0.193  0.00  0.00    -0.268 OA
ATOM     13  N   UNL     1       2.974  -4.538   0.053  0.00  0.00    -0.296 N 
ATOM     14  C   UNL     1       1.506  -4.568   0.074  0.00  0.00    +0.108 C 
ATOM     15  C   UNL     1       1.021  -5.533  -1.019  0.00  0.00    +0.019 C 
ATOM     16  C   UNL     1       1.680  -6.899  -0.815  0.00  0.00    +0.003 C 
ATOM     17  C   UNL     1       3.199  -6.757  -0.936  0.00  0.00    +0.019 C 
ATOM     18  C   UNL     1       3.708  -5.807   0.152  0.00  0.00    +0.108 C 
ENDBRANCH   9  11
BRANCH  10  19
ATOM     19  C   UNL     1       4.851  -0.529  -0.540  0.00  0.00    -0.025 C 
BRANCH  19  20
ATOM     20  N   UNL     1       5.611  -0.320   0.707  0.00  0.00    +0.385 N 
ATOM     21  H   UNL     1       5.571  -1.174   1.275  0.00  0.00    -0.085 HD
ATOM     22  H   UNL     1       5.194   0.459   1.230  0.00  0.00    -0.085 HD
BRANCH  20  23
ATOM     23  C   UNL     1       7.019  -0.003   0.402  0.00  0.00    -0.043 C 
BRANCH  23  24
ATOM     24  C   UNL     1       7.768   0.205   1.693  0.00  0.00    -0.027 A 
ATOM     25  C   UNL     1       8.432  -0.782   2.428  0.00  0.00    +0.136 A 
ATOM     26  N   UNL     1       8.963  -0.220   3.484  0.00  0.00    -0.175 NA
ATOM     27  N   UNL     1       8.653   1.145   3.455  0.00  0.00    -0.240 N 
ATOM     28  C   UNL     1       7.923   1.383   2.342  0.00  0.00    +0.116 A 
BRANCH  27  29
ATOM     29  C   UNL     1       9.036   2.099   4.409  0.00  0.00    +0.068 A 
ATOM     30  C   UNL     1       9.794   1.717   5.508  0.00  0.00    +0.028 A 
ATOM     31  C   UNL     1      10.172   2.657   6.447  0.00  0.00    +0.005 A 
ATOM     32  C   UNL     1       9.796   3.979   6.294  0.00  0.00    +0.038 A 
ATOM     33  C   UNL     1       9.040   4.364   5.199  0.00  0.00    +0.125 A 
ATOM     34  C   UNL     1       8.664   3.426   4.253  0.00  0.00    +0.066 A 
ATOM     35  F   UNL     1       8.673   5.656   5.052  0.00  0.00    -0.205 F 
ENDBRANCH  27  29
ENDBRANCH  23  24
ENDBRANCH  20  23
ENDBRANCH  19  20
ENDBRANCH  10  19
TORSDOF 6
