REMARK  Name = ZINC35399277
REMARK  5 active torsions:
REMARK  status: ('A' for Active; 'I' for Inactive)
REMARK    1  A    between atoms: C_1  and  C_2
REMARK    2  A    between atoms: C_5  and  S_9
REMARK    3  A    between atoms: C_6  and  C_8
REMARK    4  A    between atoms: S_9  and  N_12
REMARK    5  A    between atoms: C_26  and  C_30
REMARK                            x       y       z     vdW  Elec       q    Type
REMARK                         _______ _______ _______ _____ _____    ______ ____
ROOT
ATOM      1  N   UNL     1       1.528  -4.964   0.705  0.00  0.00    -0.176 NA
ATOM      2  C   UNL     1       2.731  -5.101  -0.127  0.00  0.00    +0.112 C 
ATOM      3  C   UNL     1       3.872  -4.313   0.525  0.00  0.00    +0.049 C 
ATOM      4  C   UNL     1       4.046  -4.776   1.971  0.00  0.00    +0.075 C 
ATOM      5  C   UNL     1       2.764  -4.515   2.760  0.00  0.00    +0.049 C 
ATOM      6  C   UNL     1       1.613  -5.299   2.133  0.00  0.00    +0.112 C 
ATOM      7  C   UNL     1       5.198  -4.038   2.606  0.00  0.00    +0.047 A 
ATOM      8  C   UNL     1       5.588  -2.768   2.448  0.00  0.00    +0.025 A 
ATOM      9  C   UNL     1       6.708  -2.564   3.284  0.00  0.00    +0.020 A 
ATOM     10  C   UNL     1       6.961  -3.730   3.919  0.00  0.00    +0.092 A 
ATOM     11  N   UNL     1       6.051  -4.643   3.503  0.00  0.00    -0.316 N 
ATOM     12  C   UNL     1       5.912  -5.998   3.840  0.00  0.00    +0.067 A 
ATOM     13  C   UNL     1       6.622  -6.564   4.881  0.00  0.00    +0.028 A 
ATOM     14  C   UNL     1       6.437  -7.899   5.193  0.00  0.00    +0.005 A 
ATOM     15  C   UNL     1       5.543  -8.665   4.467  0.00  0.00    -0.049 A 
ATOM     16  C   UNL     1       4.837  -8.107   3.417  0.00  0.00    +0.028 A 
ATOM     17  C   UNL     1       5.023  -6.774   3.089  0.00  0.00    +0.052 A 
ATOM     18  N   UNL     1       4.356  -6.213   1.993  0.00  0.00    -0.331 N 
ATOM     19  C   UNL     1       5.337 -10.115   4.822  0.00  0.00    +0.044 C 
ATOM     20  H   UNL     1       4.097  -6.774   1.246  0.00  0.00    +0.147 HD
ENDROOT
BRANCH   1  21
ATOM     21  S   UNL     1       0.103  -4.434   0.046  0.00  0.00    +0.061 S 
ATOM     22  O   UNL     1      -0.925  -4.798   0.956  0.00  0.00    -0.153 OA
ATOM     23  O   UNL     1       0.103  -4.855  -1.312  0.00  0.00    -0.153 OA
BRANCH  21  28
ATOM     24  C   UNL     1       0.296   1.596  -0.018  0.00  0.00    +0.044 C 
ATOM     25  C   UNL     1       0.248   0.090  -0.002  0.00  0.00    -0.050 A 
ATOM     26  C   UNL     1       0.288  -0.616  -1.190  0.00  0.00    +0.005 A 
ATOM     27  C   UNL     1       0.244  -1.997  -1.176  0.00  0.00    +0.029 A 
ATOM     28  C   UNL     1       0.161  -2.673   0.027  0.00  0.00    +0.108 A 
ATOM     29  C   UNL     1       0.122  -1.968   1.215  0.00  0.00    -0.024 A 
ATOM     30  C   UNL     1       0.171  -0.587   1.201  0.00  0.00    +0.008 A 
ATOM     31  C   UNL     1       0.032  -2.705   2.526  0.00  0.00    +0.046 C 
ENDBRANCH  21  28
ENDBRANCH   1  21
TORSDOF 2
