REMARK  Name = ZINC04909754
REMARK  4 active torsions:
REMARK  status: ('A' for Active; 'I' for Inactive)
REMARK    1  A    between atoms: C_7  and  C_9
REMARK    2  A    between atoms: C_9  and  N_58
REMARK    3  A    between atoms: C_12  and  N_15
REMARK    4  A    between atoms: C_16  and  C_18
REMARK                            x       y       z     vdW  Elec       q    Type
REMARK                         _______ _______ _______ _____ _____    ______ ____
ROOT
ATOM      1  C   UNL     1      -2.541  -2.712  -0.578  0.00  0.00    -0.076 C 
ATOM      2  C   UNL     1      -1.245  -1.908  -0.703  0.00  0.00    +0.003 C 
ATOM      3  C   UNL     1      -1.356  -0.637   0.144  0.00  0.00    +0.069 C 
ATOM      4  C   UNL     1      -1.642  -1.025   1.598  0.00  0.00    +0.003 C 
ATOM      5  C   UNL     1      -2.926  -1.855   1.655  0.00  0.00    -0.076 C 
ATOM      6  N   UNL     1      -2.745  -3.075   0.840  0.00  0.00    +0.386 N 
ATOM      7  H   UNL     1      -1.918  -3.582   1.177  0.00  0.00    -0.081 HD
ENDROOT
BRANCH   3   8
ATOM      8  N   UNL     1      -0.097   0.109   0.076  0.00  0.00    -0.312 N 
ATOM      9  C   UNL     1      -0.089   1.439   0.290  0.00  0.00    +0.219 C 
ATOM     10  O   UNL     1      -1.125   2.020   0.535  0.00  0.00    -0.275 OA
ATOM     11  H   UNL     1       0.732  -0.355  -0.124  0.00  0.00    +0.149 HD
BRANCH   9  12
ATOM     12  C   UNL     1       1.206   2.207   0.219  0.00  0.00    +0.048 C 
ATOM     13  C   UNL     1       1.814   2.053  -1.176  0.00  0.00    +0.019 C 
ATOM     14  C   UNL     1       3.129   2.832  -1.248  0.00  0.00    -0.009 C 
ATOM     15  C   UNL     1       2.861   4.312  -0.968  0.00  0.00    +0.007 C 
ATOM     16  C   UNL     1       2.254   4.465   0.427  0.00  0.00    -0.009 C 
ATOM     17  C   UNL     1       0.939   3.687   0.499  0.00  0.00    +0.019 C 
ATOM     18  C   UNL     1       3.229   3.917   1.471  0.00  0.00    +0.007 C 
ATOM     19  C   UNL     1       3.496   2.437   1.192  0.00  0.00    -0.009 C 
ATOM     20  C   UNL     1       4.104   2.284  -0.204  0.00  0.00    +0.007 C 
ATOM     21  C   UNL     1       2.181   1.658   1.263  0.00  0.00    +0.019 C 
ENDBRANCH   9  12
ENDBRANCH   3   8
BRANCH   6  22
ATOM     22  C   UNL     1      -3.929  -3.950   0.971  0.00  0.00    +0.019 C 
BRANCH  22  29
ATOM     23  C   UNL     1      -3.079  -9.071  -1.419  0.00  0.00    +0.120 A 
ATOM     24  C   UNL     1      -4.178  -9.864  -1.426  0.00  0.00    +0.068 A 
ATOM     25  S   UNL     1      -5.365  -8.793  -0.628  0.00  0.00    -0.061 S 
ATOM     26  C   UNL     1      -4.311  -7.437  -0.373  0.00  0.00    +0.164 A 
ATOM     27  N   UNL     1      -3.177  -7.865  -0.893  0.00  0.00    -0.233 NA
ATOM     28  N   UNL     1      -4.591  -6.212   0.222  0.00  0.00    -0.266 N 
ATOM     29  C   UNL     1      -3.626  -5.277   0.327  0.00  0.00    +0.202 C 
ATOM     30  O   UNL     1      -2.512  -5.505  -0.097  0.00  0.00    -0.277 OA
ATOM     31  H   UNL     1      -5.481  -6.030   0.561  0.00  0.00    +0.157 HD
ENDBRANCH  22  29
ENDBRANCH   6  22
TORSDOF 4
