REMARK  Name = ZINC28054837
REMARK  2 active torsions:
REMARK  status: ('A' for Active; 'I' for Inactive)
REMARK    1  A    between atoms: C_9  and  C_17
REMARK    2  A    between atoms: C_24  and  C_27
REMARK                            x       y       z     vdW  Elec       q    Type
REMARK                         _______ _______ _______ _____ _____    ______ ____
ROOT
ATOM      1  C   UNL     1      -5.469  -2.646   1.191  0.00  0.00    +0.001 A 
ATOM      2  C   UNL     1      -6.564  -1.800   1.137  0.00  0.00    +0.004 A 
ATOM      3  C   UNL     1      -6.403  -0.462   0.825  0.00  0.00    +0.046 A 
ATOM      4  C   UNL     1      -5.139   0.036   0.568  0.00  0.00    +0.131 A 
ATOM      5  C   UNL     1      -4.030  -0.819   0.624  0.00  0.00    +0.038 A 
ATOM      6  C   UNL     1      -4.200  -2.161   0.936  0.00  0.00    +0.013 A 
ATOM      7  C   UNL     1      -2.689  -0.253   0.343  0.00  0.00    +0.050 C 
ATOM      8  C   UNL     1      -2.540   1.073   0.373  0.00  0.00    +0.025 C 
ATOM      9  C   UNL     1      -1.223   1.744   0.067  0.00  0.00    +0.174 C 
ATOM     10  N   UNL     1      -0.148   0.761   0.071  0.00  0.00    -0.201 N 
ATOM     11  C   UNL     1      -0.351  -0.582   0.052  0.00  0.00    +0.240 A 
ATOM     12  N   UNL     1       0.819  -1.152   0.050  0.00  0.00    -0.092 NA
ATOM     13  N   UNL     1       1.750  -0.260   0.073  0.00  0.00    -0.021 NA
ATOM     14  N   UNL     1       1.236   0.928   0.088  0.00  0.00    -0.042 NA
ATOM     15  N   UNL     1      -1.629  -1.118   0.046  0.00  0.00    -0.282 N 
ATOM     16  C   UNL     1      -3.728   1.941   0.722  0.00  0.00    +0.234 C 
ATOM     17  O   UNL     1      -4.939   1.343   0.261  0.00  0.00    -0.479 OA
ATOM     18  H   UNL     1      -1.829  -2.176  -0.179  0.00  0.00    +0.155 HD
ENDROOT
BRANCH   9  19
ATOM     19  C   UNL     1      -1.295   2.400  -1.288  0.00  0.00    -0.019 A 
ATOM     20  C   UNL     1      -1.530   1.633  -2.414  0.00  0.00    +0.009 A 
ATOM     21  C   UNL     1      -1.601   2.234  -3.657  0.00  0.00    +0.039 A 
ATOM     22  C   UNL     1      -1.427   3.603  -3.775  0.00  0.00    +0.123 A 
ATOM     23  C   UNL     1      -1.186   4.368  -2.646  0.00  0.00    +0.039 A 
ATOM     24  C   UNL     1      -1.121   3.766  -1.404  0.00  0.00    +0.009 A 
ATOM     25  F   UNL     1      -1.492   4.190  -4.989  0.00  0.00    -0.205 F 
ENDBRANCH   9  19
BRANCH  16  26
ATOM     26  C   UNL     1      -3.796   2.112   2.217  0.00  0.00    -0.000 A 
ATOM     27  C   UNL     1      -4.278   1.086   3.009  0.00  0.00    +0.008 A 
ATOM     28  C   UNL     1      -4.336   1.240   4.382  0.00  0.00    +0.003 A 
ATOM     29  C   UNL     1      -3.923   2.424   4.963  0.00  0.00    +0.038 A 
ATOM     30  C   UNL     1      -3.445   3.454   4.171  0.00  0.00    +0.124 A 
ATOM     31  C   UNL     1      -3.382   3.297   2.796  0.00  0.00    +0.046 A 
ATOM     32  F   UNL     1      -3.042   4.612   4.738  0.00  0.00    -0.205 F 
ENDBRANCH  16  26
TORSDOF 2
