REMARK  Name = ZINC39024373
REMARK  5 active torsions:
REMARK  status: ('A' for Active; 'I' for Inactive)
REMARK    1  A    between atoms: C_1  and  O_2
REMARK    2  A    between atoms: O_2  and  C_3
REMARK    3  A    between atoms: C_8  and  N_9
REMARK    4  A    between atoms: C_10  and  C_21
REMARK    5  A    between atoms: C_22  and  C_23
REMARK                            x       y       z     vdW  Elec       q    Type
REMARK                         _______ _______ _______ _____ _____    ______ ____
ROOT
ATOM      1  N   UNL     1      -0.074  -2.780  -0.012  0.00  0.00    -0.241 N 
ATOM      2  C   UNL     1       0.541  -3.177   1.255  0.00  0.00    +0.190 C 
ATOM      3  N   UNL     1       2.001  -3.223   1.120  0.00  0.00    -0.322 N 
ATOM      4  C   UNL     1       2.550  -3.799  -0.020  0.00  0.00    +0.041 A 
ATOM      5  C   UNL     1       3.794  -4.407  -0.002  0.00  0.00    +0.024 A 
ATOM      6  C   UNL     1       4.304  -4.957  -1.163  0.00  0.00    +0.002 A 
ATOM      7  C   UNL     1       3.580  -4.904  -2.344  0.00  0.00    +0.001 A 
ATOM      8  C   UNL     1       2.338  -4.305  -2.378  0.00  0.00    +0.015 A 
ATOM      9  C   UNL     1       1.810  -3.752  -1.214  0.00  0.00    +0.058 A 
ATOM     10  C   UNL     1       0.474  -3.128  -1.193  0.00  0.00    +0.254 C 
ATOM     11  O   UNL     1      -0.126  -2.926  -2.231  0.00  0.00    -0.270 OA
ATOM     12  H   UNL     1       2.573  -2.857   1.813  0.00  0.00    +0.148 HD
ENDROOT
BRANCH   1  18
ATOM     13  C   UNL     1      -1.201  -0.638   0.010  0.00  0.00    +0.141 A 
ATOM     14  C   UNL     1      -2.374   0.099   0.019  0.00  0.00    +0.047 A 
ATOM     15  C   UNL     1      -3.596  -0.547   0.027  0.00  0.00    +0.004 A 
ATOM     16  C   UNL     1      -3.653  -1.928   0.026  0.00  0.00    +0.002 A 
ATOM     17  C   UNL     1      -2.487  -2.671   0.017  0.00  0.00    +0.027 A 
ATOM     18  C   UNL     1      -1.257  -2.030   0.003  0.00  0.00    +0.080 A 
BRANCH  13  20
ATOM     19  C   UNL     1      -0.017   1.425   0.010  0.00  0.00    +0.277 C 
ATOM     20  O   UNL     1       0.002  -0.004   0.002  0.00  0.00    -0.493 OA
ENDBRANCH  13  20
ENDBRANCH   1  18
BRANCH   2  21
ATOM     21  C   UNL     1       0.037  -4.542   1.648  0.00  0.00    +0.015 C 
ATOM     22  C   UNL     1      -0.621  -4.706   2.806  0.00  0.00    +0.005 C 
BRANCH  22  23
ATOM     23  C   UNL     1      -1.092  -5.983   3.174  0.00  0.00    -0.019 C 
ATOM     24  C   UNL     1      -1.791  -6.319   4.326  0.00  0.00    +0.003 A 
ATOM     25  C   UNL     1      -2.231  -5.558   5.434  0.00  0.00    +0.010 A 
ATOM     26  C   UNL     1      -2.908  -6.164   6.440  0.00  0.00    +0.001 A 
ATOM     27  C   UNL     1      -3.186  -7.535   6.415  0.00  0.00    +0.002 A 
ATOM     28  C   UNL     1      -2.796  -8.326   5.388  0.00  0.00    +0.026 A 
ATOM     29  C   UNL     1      -2.082  -7.764   4.296  0.00  0.00    +0.043 A 
ATOM     30  N   UNL     1      -1.601  -8.307   3.198  0.00  0.00    -0.380 N 
ATOM     31  C   UNL     1      -0.949  -7.270   2.393  0.00  0.00    +0.149 C 
ATOM     32  H   UNL     1      -1.670  -9.244   2.958  0.00  0.00    +0.160 HD
ENDBRANCH  22  23
ENDBRANCH   2  21
TORSDOF 4
