REMARK  Name = ZINC39940596
REMARK  10 active torsions:
REMARK  status: ('A' for Active; 'I' for Inactive)
REMARK    1  A    between atoms: C_1  and  C_2
REMARK    2  A    between atoms: C_2  and  C_3
REMARK    3  A    between atoms: C_3  and  O_4
REMARK    4  A    between atoms: O_4  and  C_5
REMARK    5  A    between atoms: C_8  and  C_12
REMARK    6  A    between atoms: C_10  and  C_11
REMARK    7  A    between atoms: C_13  and  C_23
REMARK    8  A    between atoms: N_15  and  C_17
REMARK    9  A    between atoms: C_24  and  C_25
REMARK   10  A    between atoms: C_24  and  C_27
REMARK                            x       y       z     vdW  Elec       q    Type
REMARK                         _______ _______ _______ _____ _____    ______ ____
ROOT
ATOM      1  C   UNL     1       2.823  -4.810  -5.962  0.00  0.00    +0.100 A 
ATOM      2  C   UNL     1       3.092  -4.062  -7.196  0.00  0.00    +0.022 A 
ATOM      3  C   UNL     1       3.894  -4.874  -7.976  0.00  0.00    +0.123 A 
ATOM      4  N   UNL     1       4.105  -6.018  -7.298  0.00  0.00    -0.239 N 
ATOM      5  N   UNL     1       3.448  -5.962  -6.066  0.00  0.00    -0.166 NA
ENDROOT
BRANCH   1   9
ATOM      6  C   UNL     1       0.476  -3.494  -2.670  0.00  0.00    +0.123 A 
ATOM      7  C   UNL     1       1.239  -2.581  -3.385  0.00  0.00    +0.046 A 
ATOM      8  C   UNL     1       2.002  -3.004  -4.453  0.00  0.00    +0.014 A 
ATOM      9  C   UNL     1       2.005  -4.351  -4.815  0.00  0.00    +0.003 A 
ATOM     10  C   UNL     1       1.238  -5.266  -4.094  0.00  0.00    +0.017 A 
ATOM     11  C   UNL     1       0.482  -4.836  -3.023  0.00  0.00    -0.008 A 
ATOM     12  C   UNL     1      -0.344  -5.824  -2.240  0.00  0.00    +0.047 C 
BRANCH   6  13
ATOM     13  O   UNL     1      -0.273  -3.073  -1.617  0.00  0.00    -0.492 OA
BRANCH  13  14
ATOM     14  C   UNL     1      -0.233  -1.678  -1.308  0.00  0.00    +0.229 C 
BRANCH  14  16
ATOM     15  C   UNL     1      -1.089   0.097   0.228  0.00  0.00    +0.007 C 
ATOM     16  C   UNL     1      -1.132  -1.397  -0.103  0.00  0.00    +0.038 C 
ENDBRANCH  14  16
ENDBRANCH  13  14
ENDBRANCH   6  13
ENDBRANCH   1   9
BRANCH   4  17
ATOM     17  C   UNL     1       4.872  -7.097  -7.756  0.00  0.00    +0.065 A 
ATOM     18  C   UNL     1       5.489  -7.035  -8.998  0.00  0.00    +0.028 A 
ATOM     19  C   UNL     1       6.244  -8.100  -9.447  0.00  0.00    +0.002 A 
ATOM     20  C   UNL     1       6.386  -9.229  -8.660  0.00  0.00    +0.000 A 
ATOM     21  C   UNL     1       5.772  -9.294  -7.422  0.00  0.00    +0.002 A 
ATOM     22  C   UNL     1       5.020  -8.229  -6.966  0.00  0.00    +0.028 A 
ENDBRANCH   4  17
BRANCH   2  23
ATOM     23  C   UNL     1       2.606  -2.719  -7.534  0.00  0.00    +0.030 C 
ATOM     24  C   UNL     1       3.195  -2.017  -8.527  0.00  0.00    +0.072 C 
BRANCH  24  25
ATOM     25  C   UNL     1       2.602  -0.708  -8.979  0.00  0.00    +0.216 C 
ATOM     26  N   UNL     1       2.309  -0.757 -10.417  0.00  0.00    -0.359 N 
ATOM     27  C   UNL     1       3.014   0.173 -10.992  0.00  0.00    +0.060 A 
ATOM     28  C   UNL     1       3.146   0.607 -12.390  0.00  0.00    +0.027 A 
ATOM     29  C   UNL     1       3.975   1.626 -12.695  0.00  0.00    +0.002 A 
ATOM     30  C   UNL     1       4.732   2.304 -11.723  0.00  0.00    +0.002 A 
ATOM     31  C   UNL     1       4.686   1.986 -10.414  0.00  0.00    +0.027 A 
ATOM     32  C   UNL     1       3.815   0.891  -9.964  0.00  0.00    +0.060 A 
ATOM     33  N   UNL     1       3.574   0.377  -8.793  0.00  0.00    -0.359 N 
ATOM     34  H   UNL     1       1.701  -1.371 -10.858  0.00  0.00    +0.162 HD
ATOM     35  H   UNL     1       3.965   0.659  -7.950  0.00  0.00    +0.162 HD
ENDBRANCH  24  25
BRANCH  24  36
ATOM     36  C   UNL     1       4.383  -2.518  -9.150  0.00  0.00    +0.099 C 
ATOM     37  N   UNL     1       5.326  -2.916  -9.645  0.00  0.00    -0.191 NA
ENDBRANCH  24  36
ENDBRANCH   2  23
TORSDOF 8
