REMARK  Name = ZINC39992250
REMARK  7 active torsions:
REMARK  status: ('A' for Active; 'I' for Inactive)
REMARK    1  A    between atoms: C_2  and  C_3
REMARK    2  A    between atoms: C_3  and  N_4
REMARK    3  A    between atoms: C_5  and  C_7
REMARK    4  A    between atoms: C_9  and  N_18
REMARK    5  A    between atoms: C_19  and  C_21
REMARK    6  A    between atoms: C_21  and  C_32
REMARK    7  A    between atoms: C_22  and  C_23
REMARK                            x       y       z     vdW  Elec       q    Type
REMARK                         _______ _______ _______ _____ _____    ______ ____
ROOT
ATOM      1  N   UNL     1       0.195  -4.016   3.152  0.00  0.00    -0.298 N 
ATOM      2  C   UNL     1      -1.052  -4.066   2.642  0.00  0.00    +0.255 C 
ATOM      3  O   UNL     1      -1.226  -4.441   1.498  0.00  0.00    -0.269 OA
ATOM      4  H   UNL     1       0.334  -3.717   4.064  0.00  0.00    +0.150 HD
ENDROOT
BRANCH   1   6
ATOM      5  C   UNL     1       2.508  -3.409   2.457  0.00  0.00    +0.132 C 
ATOM      6  C   UNL     1       1.339  -4.416   2.330  0.00  0.00    +0.152 C 
ATOM      7  S   UNL     1       2.178  -5.906   3.014  0.00  0.00    -0.106 S 
ATOM      8  C   UNL     1       3.861  -5.405   2.738  0.00  0.00    -0.013 C 
ATOM      9  C   UNL     1       3.844  -4.110   2.456  0.00  0.00    -0.046 C 
ATOM     10  C   UNL     1       5.136  -3.358   2.144  0.00  0.00    +0.032 C 
ATOM     11  C   UNL     1       6.324  -4.163   2.668  0.00  0.00    +0.005 C 
ATOM     12  C   UNL     1       6.246  -5.597   2.135  0.00  0.00    +0.005 C 
ATOM     13  C   UNL     1       5.067  -6.299   2.813  0.00  0.00    +0.042 C 
BRANCH   5  15
ATOM     14  N   UNL     1       1.367  -1.676   1.111  0.00  0.00    -0.311 N 
ATOM     15  C   UNL     1       2.457  -2.447   1.299  0.00  0.00    +0.223 C 
ATOM     16  O   UNL     1       3.396  -2.366   0.535  0.00  0.00    -0.275 OA
ATOM     17  H   UNL     1       0.617  -1.740   1.722  0.00  0.00    +0.149 HD
BRANCH  14  18
ATOM     18  C   UNL     1       1.317  -0.740  -0.015  0.00  0.00    +0.131 C 
BRANCH  18  20
ATOM     19  C   UNL     1      -0.016   1.306   0.009  0.00  0.00    +0.005 C 
ATOM     20  C   UNL     1       0.002  -0.004   0.002  0.00  0.00    -0.016 C 
ENDBRANCH  18  20
ENDBRANCH  14  18
ENDBRANCH   5  15
ENDBRANCH   1   6
BRANCH   2  21
ATOM     21  C   UNL     1      -2.203  -3.664   3.469  0.00  0.00    +0.114 C 
ATOM     22  C   UNL     1      -3.485  -3.714   2.943  0.00  0.00    +0.030 C 
BRANCH  22  23
ATOM     23  C   UNL     1      -4.579  -3.333   3.729  0.00  0.00    -0.018 C 
ATOM     24  C   UNL     1      -5.919  -3.330   3.360  0.00  0.00    +0.003 A 
ATOM     25  C   UNL     1      -6.586  -3.680   2.166  0.00  0.00    +0.010 A 
ATOM     26  C   UNL     1      -7.934  -3.577   2.081  0.00  0.00    +0.001 A 
ATOM     27  C   UNL     1      -8.720  -3.126   3.150  0.00  0.00    +0.002 A 
ATOM     28  C   UNL     1      -8.178  -2.767   4.335  0.00  0.00    +0.026 A 
ATOM     29  C   UNL     1      -6.720  -2.850   4.508  0.00  0.00    +0.043 A 
ATOM     30  N   UNL     1      -5.946  -2.573   5.524  0.00  0.00    -0.380 N 
ATOM     31  C   UNL     1      -4.551  -2.844   5.160  0.00  0.00    +0.149 C 
ATOM     32  H   UNL     1      -6.247  -2.243   6.385  0.00  0.00    +0.160 HD
ENDBRANCH  22  23
BRANCH  21  33
ATOM     33  C   UNL     1      -1.998  -3.221   4.815  0.00  0.00    +0.104 C 
ATOM     34  N   UNL     1      -1.836  -2.870   5.883  0.00  0.00    -0.191 NA
ENDBRANCH  21  33
ENDBRANCH   2  21
TORSDOF 7
