REMARK  Name = ZINC09076262
REMARK  14 active torsions:
REMARK  status: ('A' for Active; 'I' for Inactive)
REMARK    1  A    between atoms: C_1  and  C_2
REMARK    2  A    between atoms: C_2  and  O_3
REMARK    3  A    between atoms: O_3  and  C_4
REMARK    4  A    between atoms: C_4  and  C_6
REMARK    5  A    between atoms: C_7  and  N_37
REMARK    6  A    between atoms: C_9  and  C_36
REMARK    7  A    between atoms: C_10  and  C_32
REMARK    8  A    between atoms: N_18  and  C_21
REMARK    9  A    between atoms: C_21  and  C_22
REMARK   10  A    between atoms: C_22  and  O_24
REMARK   11  A    between atoms: O_24  and  C_25
REMARK   12  A    between atoms: C_25  and  C_26
REMARK   13  A    between atoms: C_32  and  O_34
REMARK   14  A    between atoms: O_34  and  C_35
REMARK                            x       y       z     vdW  Elec       q    Type
REMARK                         _______ _______ _______ _____ _____    ______ ____
ROOT
ATOM      1  C   UNL     1      -0.143   1.022   0.079  0.00  0.00    +0.117 C 
ATOM      2  C   UNL     1       0.004  -0.330   0.107  0.00  0.00    +0.195 C 
ATOM      3  O   UNL     1       1.217  -0.906   0.126  0.00  0.00    -0.446 OA
ATOM      4  C   UNL     1       2.289  -0.188   0.494  0.00  0.00    +0.116 C 
ATOM      5  C   UNL     1       2.285   1.152   0.492  0.00  0.00    +0.098 C 
ATOM      6  C   UNL     1       1.063   1.916   0.073  0.00  0.00    +0.145 C 
ATOM      7  C   UNL     1       1.263   2.523  -1.294  0.00  0.00    -0.002 A 
ATOM      8  C   UNL     1       1.503   1.981  -2.537  0.00  0.00    +0.007 A 
ATOM      9  C   UNL     1       1.646   2.809  -3.635  0.00  0.00    +0.000 A 
ATOM     10  C   UNL     1       1.548   4.180  -3.481  0.00  0.00    +0.002 A 
ATOM     11  C   UNL     1       1.307   4.726  -2.237  0.00  0.00    +0.024 A 
ATOM     12  C   UNL     1       1.161   3.899  -1.125  0.00  0.00    +0.042 A 
ATOM     13  N   UNL     1       0.917   4.204   0.214  0.00  0.00    -0.259 N 
ATOM     14  C   UNL     1       0.845   3.102   0.982  0.00  0.00    +0.240 C 
ATOM     15  O   UNL     1       0.642   3.067   2.177  0.00  0.00    -0.274 OA
ATOM     16  C   UNL     1       3.538  -0.913   0.925  0.00  0.00    +0.087 C 
ENDROOT
BRANCH   2  17
ATOM     17  N   UNL     1      -1.112  -1.123   0.116  0.00  0.00    -0.329 N 
ATOM     18  H   UNL     1      -1.991  -0.724   0.024  0.00  0.00    +0.145 HD
ATOM     19  H   UNL     1      -1.023  -2.084   0.213  0.00  0.00    +0.145 HD
ENDBRANCH   2  17
BRANCH   1  20
ATOM     20  C   UNL     1      -1.429   1.584   0.049  0.00  0.00    +0.342 C 
ATOM     21  O   UNL     1      -1.869   2.042  -0.990  0.00  0.00    -0.245 OA
BRANCH  20  22
ATOM     22  O   UNL     1      -2.178   1.616   1.172  0.00  0.00    -0.462 OA
BRANCH  22  24
ATOM     23  C   UNL     1      -4.167   2.169   2.428  0.00  0.00    +0.048 C 
ATOM     24  C   UNL     1      -3.519   2.093   1.044  0.00  0.00    +0.229 C 
ENDBRANCH  22  24
ENDBRANCH  20  22
ENDBRANCH   1  20
BRANCH   5  25
ATOM     25  C   UNL     1       3.449   1.856   0.890  0.00  0.00    +0.340 C 
ATOM     26  O   UNL     1       4.443   1.243   1.231  0.00  0.00    -0.245 OA
BRANCH  25  27
ATOM     27  O   UNL     1       3.454   3.205   0.891  0.00  0.00    -0.465 OA
ATOM     28  C   UNL     1       4.661   3.849   1.304  0.00  0.00    +0.280 C 
ENDBRANCH  25  27
ENDBRANCH   5  25
BRANCH  13  29
ATOM     29  C   UNL     1       0.758   5.568   0.725  0.00  0.00    +0.234 C 
BRANCH  29  30
ATOM     30  C   UNL     1      -0.706   5.924   0.761  0.00  0.00    +0.325 C 
ATOM     31  O   UNL     1      -1.525   5.159   0.308  0.00  0.00    -0.249 OA
BRANCH  30  32
ATOM     32  O   UNL     1      -1.101   7.089   1.297  0.00  0.00    -0.459 OA
BRANCH  32  33
ATOM     33  C   UNL     1      -2.526   7.365   1.298  0.00  0.00    +0.267 C 
BRANCH  33  34
ATOM     34  C   UNL     1      -2.777   8.708   1.935  0.00  0.00    -0.010 A 
ATOM     35  C   UNL     1      -3.000   8.797   3.296  0.00  0.00    +0.007 A 
ATOM     36  C   UNL     1      -3.226  10.029   3.881  0.00  0.00    +0.000 A 
ATOM     37  C   UNL     1      -3.239  11.171   3.102  0.00  0.00    +0.000 A 
ATOM     38  C   UNL     1      -3.022  11.082   1.740  0.00  0.00    +0.000 A 
ATOM     39  C   UNL     1      -2.791   9.850   1.156  0.00  0.00    +0.007 A 
ENDBRANCH  33  34
ENDBRANCH  32  33
ENDBRANCH  30  32
ENDBRANCH  29  30
ENDBRANCH  13  29
TORSDOF 11
