REMARK  Name = ZINC14879423
REMARK  7 active torsions:
REMARK  status: ('A' for Active; 'I' for Inactive)
REMARK    1  A    between atoms: C_1  and  C_2
REMARK    2  A    between atoms: C_2  and  C_32
REMARK    3  A    between atoms: C_7  and  C_11
REMARK    4  A    between atoms: C_11  and  N_63
REMARK    5  A    between atoms: C_14  and  C_17
REMARK    6  A    between atoms: C_17  and  C_24
REMARK    7  A    between atoms: C_24  and  C_25
REMARK                            x       y       z     vdW  Elec       q    Type
REMARK                         _______ _______ _______ _____ _____    ______ ____
ROOT
ATOM      1  C   UNL     1       1.173  -6.221  -2.991  0.00  0.00    -0.078 C 
ATOM      2  C   UNL     1       1.039  -4.697  -2.949  0.00  0.00    -0.013 C 
ATOM      3  C   UNL     1       1.173  -4.218  -1.501  0.00  0.00    +0.018 C 
ATOM      4  C   UNL     1       2.521  -4.681  -0.941  0.00  0.00    -0.013 C 
ATOM      5  C   UNL     1       2.612  -6.206  -1.042  0.00  0.00    -0.078 C 
ATOM      6  N   UNL     1       2.500  -6.601  -2.462  0.00  0.00    +0.382 N 
ATOM      7  H   UNL     1       3.226  -6.113  -3.001  0.00  0.00    -0.081 HD
ENDROOT
BRANCH   3   8
ATOM      8  C   UNL     1       1.101  -2.690  -1.459  0.00  0.00    +0.119 C 
ATOM      9  C   UNL     1      -0.193  -2.201  -2.079  0.00  0.00    +0.245 C 
ATOM     10  O   UNL     1      -1.321  -2.442  -1.706  0.00  0.00    -0.273 OA
ATOM     11  N   UNL     1       0.172  -1.442  -3.132  0.00  0.00    -0.238 N 
ATOM     12  C   UNL     1       1.502  -1.385  -3.262  0.00  0.00    +0.307 C 
ATOM     13  O   UNL     1       2.069  -0.763  -4.138  0.00  0.00    -0.252 OA
ATOM     14  N   UNL     1       2.142  -2.095  -2.315  0.00  0.00    -0.284 N 
ATOM     15  H   UNL     1      -0.453  -0.994  -3.723  0.00  0.00    +0.159 HD
ATOM     16  H   UNL     1       3.101  -2.195  -2.215  0.00  0.00    +0.151 HD
BRANCH   8  17
ATOM     17  C   UNL     1       1.233  -2.186  -0.021  0.00  0.00    +0.073 C 
BRANCH  17  18
ATOM     18  C   UNL     1       1.211  -0.679  -0.013  0.00  0.00    -0.010 A 
ATOM     19  C   UNL     1       2.397   0.030  -0.021  0.00  0.00    +0.006 A 
ATOM     20  C   UNL     1       2.377   1.412  -0.013  0.00  0.00    +0.000 A 
ATOM     21  C   UNL     1       1.171   2.087   0.002  0.00  0.00    +0.003 A 
ATOM     22  C   UNL     1      -0.017   1.381   0.010  0.00  0.00    +0.038 A 
ATOM     23  C   UNL     1       0.002  -0.004   0.002  0.00  0.00    +0.127 A 
ATOM     24  F   UNL     1      -1.158  -0.696   0.009  0.00  0.00    -0.205 F 
ENDBRANCH  17  18
ENDBRANCH   8  17
ENDBRANCH   3   8
BRANCH   6  25
ATOM     25  C   UNL     1       2.700  -8.058  -2.598  0.00  0.00    -0.047 C 
BRANCH  25  31
ATOM     26  C   UNL     1       7.453  -7.010  -3.692  0.00  0.00    +0.012 C 
ATOM     27  C   UNL     1       6.417  -7.486  -2.671  0.00  0.00    -0.025 C 
ATOM     28  C   UNL     1       6.777  -8.820  -1.994  0.00  0.00    -0.000 C 
ATOM     29  C   UNL     1       5.916  -9.111  -0.757  0.00  0.00    +0.031 C 
ATOM     30  C   UNL     1       4.473  -8.780  -1.053  0.00  0.00    -0.029 C 
ATOM     31  C   UNL     1       4.131  -8.386  -2.258  0.00  0.00    -0.086 C 
ATOM     32  C   UNL     1       5.235  -8.267  -3.295  0.00  0.00    +0.019 C 
ATOM     33  C   UNL     1       6.176  -9.485  -3.249  0.00  0.00    +0.012 C 
ATOM     34  C   UNL     1       5.989  -6.390  -1.693  0.00  0.00    +0.012 C 
ENDBRANCH  25  31
ENDBRANCH   6  25
TORSDOF 5
