REMARK  Name = ZINC00894566
REMARK  6 active torsions:
REMARK  status: ('A' for Active; 'I' for Inactive)
REMARK    1  A    between atoms: C_1  and  C_2
REMARK    2  A    between atoms: C_4  and  C_32
REMARK    3  A    between atoms: C_7  and  C_14
REMARK    4  A    between atoms: C_14  and  C_16
REMARK    5  A    between atoms: C_14  and  N_63
REMARK    6  A    between atoms: N_20  and  C_21
REMARK                            x       y       z     vdW  Elec       q    Type
REMARK                         _______ _______ _______ _____ _____    ______ ____
ROOT
ATOM      1  C   UNL     1      -3.729   6.022   0.067  0.00  0.00    +0.039 C 
ENDROOT
BRANCH   1   8
ATOM      2  C   UNL     1       2.491   1.030  -0.015  0.00  0.00    +0.044 C 
ATOM      3  C   UNL     1       1.184   1.780   0.000  0.00  0.00    -0.048 A 
ATOM      4  C   UNL     1      -0.013   1.076   0.008  0.00  0.00    +0.007 A 
ATOM      5  C   UNL     1      -1.208   1.736   0.017  0.00  0.00    -0.041 A 
ATOM      6  C   UNL     1      -1.227   3.135   0.030  0.00  0.00    +0.002 A 
ATOM      7  C   UNL     1      -2.490   3.875   0.046  0.00  0.00    +0.018 A 
ATOM      8  C   UNL     1      -2.447   5.230   0.051  0.00  0.00    +0.011 A 
ATOM      9  C   UNL     1      -1.206   5.902   0.043  0.00  0.00    +0.251 A 
ATOM     10  O   UNL     1      -1.190   7.121   0.048  0.00  0.00    -0.268 OA
ATOM     11  N   UNL     1      -0.041   5.231   0.029  0.00  0.00    -0.322 N 
ATOM     12  H   UNL     1       0.820   5.739   0.023  0.00  0.00    +0.169 HD
ATOM     13  C   UNL     1      -0.016   3.853   0.022  0.00  0.00    +0.050 A 
ATOM     14  C   UNL     1       1.189   3.158   0.007  0.00  0.00    +0.029 A 
ATOM     15  C   UNL     1      -2.501   0.962   0.019  0.00  0.00    +0.044 C 
ENDBRANCH   1   8
BRANCH   1  21
ATOM     16  C   UNL     1      -3.498   6.232   2.468  0.00  0.00    -0.077 C 
ATOM     17  C   UNL     1      -3.346   7.239   3.610  0.00  0.00    -0.019 C 
ATOM     18  C   UNL     1      -4.614   8.094   3.702  0.00  0.00    -0.004 C 
ATOM     19  C   UNL     1      -4.846   8.793   2.360  0.00  0.00    -0.019 C 
ATOM     20  C   UNL     1      -4.954   7.741   1.254  0.00  0.00    -0.077 C 
ATOM     21  N   UNL     1      -3.694   6.969   1.201  0.00  0.00    +0.389 N 
ATOM     22  H   UNL     1      -2.911   7.619   1.069  0.00  0.00    -0.080 HD
ENDBRANCH   1  21
BRANCH   1  23
ATOM     23  C   UNL     1      -3.853   6.803  -1.216  0.00  0.00    +0.143 A 
ATOM     24  N   UNL     1      -3.192   7.888  -1.539  0.00  0.00    -0.115 NA
ATOM     25  N   UNL     1      -3.577   8.254  -2.713  0.00  0.00    -0.023 NA
ATOM     26  N   UNL     1      -4.467   7.431  -3.147  0.00  0.00    -0.044 NA
ATOM     27  N   UNL     1      -4.661   6.519  -2.255  0.00  0.00    -0.227 N 
BRANCH  27  28
ATOM     28  C   UNL     1      -5.588   5.389  -2.352  0.00  0.00    +0.111 C 
ATOM     29  C   UNL     1      -5.209   4.521  -3.554  0.00  0.00    +0.027 C 
ATOM     30  C   UNL     1      -6.177   3.341  -3.656  0.00  0.00    +0.002 C 
ATOM     31  C   UNL     1      -7.603   3.865  -3.836  0.00  0.00    +0.000 C 
ATOM     32  C   UNL     1      -7.982   4.734  -2.634  0.00  0.00    +0.002 C 
ATOM     33  C   UNL     1      -7.014   5.914  -2.532  0.00  0.00    +0.027 C 
ENDBRANCH  27  28
ENDBRANCH   1  23
TORSDOF 4
