REMARK  Name = ZINC49646369
REMARK  3 active torsions:
REMARK  status: ('A' for Active; 'I' for Inactive)
REMARK    1  A    between atoms: N_8  and  S_9
REMARK    2  A    between atoms: S_9  and  C_12
REMARK    3  A    between atoms: C_12  and  C_13
REMARK                            x       y       z     vdW  Elec       q    Type
REMARK                         _______ _______ _______ _____ _____    ______ ____
ROOT
ATOM      1  S   UNL     1       6.130  -0.178   2.427  0.00  0.00    +0.072 S 
ATOM      2  O   UNL     1       6.518   0.153   1.100  0.00  0.00    -0.151 OA
ATOM      3  O   UNL     1       5.658   0.825   3.315  0.00  0.00    -0.151 OA
ENDROOT
BRANCH   1  11
ATOM      4  C   UNL     1      -0.019   1.541   0.011  0.00  0.00    +0.011 C 
ATOM      5  C   UNL     1       1.487   1.869  -0.002  0.00  0.00    +0.054 C 
ATOM      6  C   UNL     1       2.178   0.659   0.637  0.00  0.00    +0.028 A 
ATOM      7  C   UNL     1       1.324  -0.364   0.619  0.00  0.00    +0.012 A 
ATOM      8  S   UNL     1       2.231  -1.696   1.374  0.00  0.00    -0.053 S 
ATOM      9  C   UNL     1       3.744  -0.802   1.690  0.00  0.00    +0.191 A 
ATOM     10  N   UNL     1       3.431   0.436   1.192  0.00  0.00    -0.336 N 
ATOM     11  N   UNL     1       4.854  -1.218   2.247  0.00  0.00    -0.108 NA
ATOM     12  C   UNL     1       0.002  -0.004   0.002  0.00  0.00    +0.044 C 
ATOM     13  H   UNL     1       4.082   1.153   1.227  0.00  0.00    +0.168 HD
ENDBRANCH   1  11
BRANCH   1  14
ATOM     14  C   UNL     1       7.425  -1.163   3.229  0.00  0.00    +0.194 C 
BRANCH  14  15
ATOM     15  C   UNL     1       8.666  -0.295   3.447  0.00  0.00    -0.005 C 
ATOM     16  C   UNL     1       8.338   0.825   4.439  0.00  0.00    +0.001 C 
ATOM     17  C   UNL     1       9.606   1.640   4.710  0.00  0.00    -0.019 C 
ATOM     18  C   UNL     1      10.704   0.709   5.228  0.00  0.00    -0.083 C 
ATOM     19  N   UNL     1      10.989  -0.323   4.223  0.00  0.00    +0.379 N 
ATOM     20  C   UNL     1       9.799  -1.155   4.010  0.00  0.00    -0.078 C 
ATOM     21  H   UNL     1      11.250   0.119   3.354  0.00  0.00    -0.086 HD
ATOM     22  H   UNL     1      11.750  -0.902   4.545  0.00  0.00    -0.086 HD
ENDBRANCH  14  15
ENDBRANCH   1  14
TORSDOF 3
