REMARK  Name = ZINC32598294
REMARK  3 active torsions:
REMARK  status: ('A' for Active; 'I' for Inactive)
REMARK    1  A    between atoms: C_1  and  O_2
REMARK    2  A    between atoms: O_2  and  C_3
REMARK    3  A    between atoms: C_12  and  N_14
REMARK                            x       y       z     vdW  Elec       q    Type
REMARK                         _______ _______ _______ _____ _____    ______ ____
ROOT
ATOM      1  N   UNL     1       3.483  -0.827  -0.035  0.00  0.00    -0.322 N 
ATOM      2  C   UNL     1       2.313  -0.094  -0.021  0.00  0.00    +0.135 A 
ATOM      3  C   UNL     1       2.344   1.315  -0.013  0.00  0.00    +0.078 A 
ATOM      4  C   UNL     1       3.372   2.283  -0.018  0.00  0.00    +0.147 A 
ATOM      5  N   UNL     1       2.825   3.465  -0.006  0.00  0.00    -0.180 NA
ATOM      6  N   UNL     1       1.431   3.340   0.006  0.00  0.00    -0.260 N 
ATOM      7  H   UNL     1       0.798   4.239   0.017  0.00  0.00    +0.191 HD
ATOM      8  C   UNL     1       1.121   2.012   0.002  0.00  0.00    +0.163 A 
ATOM      9  N   UNL     1      -0.016   1.318   0.009  0.00  0.00    -0.195 NA
ATOM     10  C   UNL     1       0.002  -0.004   0.002  0.00  0.00    +0.216 A 
ATOM     11  N   UNL     1       1.133  -0.701  -0.013  0.00  0.00    -0.199 NA
ATOM     12  N   UNL     1      -1.202  -0.687   0.010  0.00  0.00    -0.327 N 
ATOM     13  H   UNL     1       4.455  -0.311  -0.042  0.00  0.00    +0.148 HD
ATOM     14  H   UNL     1      -1.210  -1.787   0.004  0.00  0.00    +0.145 HD
ATOM     15  H   UNL     1      -2.150  -0.129   0.023  0.00  0.00    +0.145 HD
ENDROOT
BRANCH   1  25
ATOM     16  C   UNL     1       2.933  -3.618   3.996  0.00  0.00    +0.120 A 
ATOM     17  C   UNL     1       2.233  -2.520   3.516  0.00  0.00    +0.046 A 
ATOM     18  C   UNL     1       2.413  -2.112   2.211  0.00  0.00    +0.009 A 
ATOM     19  C   UNL     1       3.290  -2.789   1.372  0.00  0.00    -0.024 A 
ATOM     20  C   UNL     1       3.989  -3.876   1.848  0.00  0.00    -0.039 A 
ATOM     21  C   UNL     1       3.807  -4.291   3.160  0.00  0.00    +0.049 A 
ATOM     22  C   UNL     1       4.965  -4.647   0.999  0.00  0.00    +0.035 C 
ATOM     23  C   UNL     1       4.734  -4.357  -0.483  0.00  0.00    +0.007 C 
ATOM     24  C   UNL     1       4.708  -2.837  -0.678  0.00  0.00    +0.027 C 
ATOM     25  C   UNL     1       3.431  -2.291  -0.042  0.00  0.00    +0.102 C 
BRANCH  16  27
ATOM     26  C   UNL     1       1.842  -3.285   6.082  0.00  0.00    +0.277 C 
ATOM     27  O   UNL     1       2.760  -4.029   5.279  0.00  0.00    -0.495 OA
ENDBRANCH  16  27
ENDBRANCH   1  25
TORSDOF 2
