REMARK  Name = ZINC13568661
REMARK  8 active torsions:
REMARK  status: ('A' for Active; 'I' for Inactive)
REMARK    1  A    between atoms: C_1  and  O_2
REMARK    2  A    between atoms: O_2  and  C_3
REMARK    3  A    between atoms: C_8  and  C_9
REMARK    4  A    between atoms: C_14  and  C_24
REMARK    5  A    between atoms: C_27  and  O_32
REMARK    6  A    between atoms: C_28  and  O_30
REMARK    7  A    between atoms: O_30  and  C_31
REMARK    8  A    between atoms: O_32  and  C_33
REMARK                            x       y       z     vdW  Elec       q    Type
REMARK                         _______ _______ _______ _____ _____    ______ ____
ROOT
ATOM      1  C   UNL     1       0.183  -2.705   0.511  0.00  0.00    +0.035 C 
ATOM      2  C   UNL     1       0.018  -3.531  -0.764  0.00  0.00    +0.060 C 
ATOM      3  C   UNL     1       1.247  -4.400  -0.979  0.00  0.00    +0.017 C 
ATOM      4  C   UNL     1       1.916  -4.898   0.073  0.00  0.00    +0.036 C 
ATOM      5  C   UNL     1       3.130  -5.795   0.007  0.00  0.00    +0.136 C 
ATOM      6  N   UNL     1       3.724  -5.898  -1.309  0.00  0.00    -0.331 N 
ATOM      7  C   UNL     1       3.025  -6.472  -2.368  0.00  0.00    +0.049 A 
ATOM      8  C   UNL     1       3.443  -7.660  -2.947  0.00  0.00    +0.025 A 
ATOM      9  C   UNL     1       2.693  -8.222  -3.966  0.00  0.00    +0.002 A 
ATOM     10  C   UNL     1       1.534  -7.608  -4.404  0.00  0.00    +0.002 A 
ATOM     11  C   UNL     1       1.123  -6.412  -3.841  0.00  0.00    +0.025 A 
ATOM     12  C   UNL     1       1.885  -5.838  -2.838  0.00  0.00    +0.052 A 
ATOM     13  N   UNL     1       1.573  -4.602  -2.282  0.00  0.00    -0.316 N 
ATOM     14  C   UNL     1       1.509  -4.585   1.391  0.00  0.00    +0.163 C 
ATOM     15  O   UNL     1       2.123  -5.067   2.323  0.00  0.00    -0.292 OA
ATOM     16  C   UNL     1       0.348  -3.682   1.681  0.00  0.00    +0.088 C 
ATOM     17  H   UNL     1       4.622  -5.562  -1.456  0.00  0.00    +0.147 HD
ATOM     18  H   UNL     1       1.590  -3.828  -2.867  0.00  0.00    +0.152 HD
ENDROOT
BRANCH   1  24
ATOM     19  C   UNL     1      -0.918  -0.469   0.776  0.00  0.00    +0.124 A 
ATOM     20  C   UNL     1      -2.044   0.316   0.981  0.00  0.00    +0.046 A 
ATOM     21  C   UNL     1      -3.283  -0.279   1.125  0.00  0.00    +0.004 A 
ATOM     22  C   UNL     1      -3.399  -1.656   1.075  0.00  0.00    +0.001 A 
ATOM     23  C   UNL     1      -2.278  -2.440   0.877  0.00  0.00    +0.007 A 
ATOM     24  C   UNL     1      -1.038  -1.850   0.727  0.00  0.00    -0.002 A 
BRANCH  19  26
ATOM     25  C   UNL     1       0.348   1.542   0.691  0.00  0.00    +0.277 C 
ATOM     26  O   UNL     1       0.300   0.115   0.629  0.00  0.00    -0.495 OA
ENDBRANCH  19  26
ENDBRANCH   1  24
BRANCH   5  27
ATOM     27  C   UNL     1       2.730  -7.176   0.459  0.00  0.00    -0.019 A 
ATOM     28  C   UNL     1       1.799  -7.896  -0.266  0.00  0.00    +0.009 A 
ATOM     29  C   UNL     1       1.429  -9.163   0.144  0.00  0.00    +0.050 A 
ATOM     30  C   UNL     1       1.992  -9.715   1.283  0.00  0.00    +0.162 A 
ATOM     31  C   UNL     1       2.929  -8.990   2.013  0.00  0.00    +0.162 A 
ATOM     32  C   UNL     1       3.300  -7.723   1.594  0.00  0.00    +0.055 A 
BRANCH  31  33
ATOM     33  O   UNL     1       3.485  -9.527   3.132  0.00  0.00    -0.491 OA
ATOM     34  C   UNL     1       4.440  -8.727   3.830  0.00  0.00    +0.277 C 
ENDBRANCH  31  33
BRANCH  30  35
ATOM     35  O   UNL     1       1.629 -10.961   1.688  0.00  0.00    -0.491 OA
ATOM     36  C   UNL     1       0.661 -11.646   0.890  0.00  0.00    +0.277 C 
ENDBRANCH  30  35
ENDBRANCH   5  27
TORSDOF 5
