REMARK  Name = ZINC38806211
REMARK  10 active torsions:
REMARK  status: ('A' for Active; 'I' for Inactive)
REMARK    1  A    between atoms: C_1  and  C_2
REMARK    2  A    between atoms: C_2  and  O_3
REMARK    3  A    between atoms: O_3  and  C_4
REMARK    4  A    between atoms: C_4  and  C_6
REMARK    5  A    between atoms: C_10  and  N_11
REMARK    6  A    between atoms: C_12  and  C_14
REMARK    7  A    between atoms: C_22  and  C_28
REMARK    8  A    between atoms: C_22  and  C_29
REMARK    9  A    between atoms: C_24  and  C_26
REMARK   10  A    between atoms: C_24  and  C_27
REMARK                            x       y       z     vdW  Elec       q    Type
REMARK                         _______ _______ _______ _____ _____    ______ ____
ROOT
ATOM      1  C   UNL     1       1.449  -2.344  -2.516  0.00  0.00    +0.091 A 
ATOM      2  C   UNL     1       2.869  -2.616  -2.534  0.00  0.00    -0.024 A 
ATOM      3  C   UNL     1       3.334  -3.115  -3.703  0.00  0.00    -0.016 A 
ATOM      4  S   UNL     1       1.904  -3.218  -4.737  0.00  0.00    -0.079 S 
ATOM      5  C   UNL     1       0.741  -2.622  -3.681  0.00  0.00    +0.086 A 
ATOM      6  C   UNL     1       4.749  -3.476  -4.010  0.00  0.00    -0.041 C 
ATOM      7  N   UNL     1       5.602  -3.448  -2.823  0.00  0.00    +0.389 N 
ATOM      8  C   UNL     1       4.932  -3.492  -1.531  0.00  0.00    -0.069 C 
ATOM      9  C   UNL     1       3.857  -2.405  -1.397  0.00  0.00    +0.024 C 
ATOM     10  C   UNL     1       4.301  -4.864  -1.284  0.00  0.00    -0.010 C 
ATOM     11  C   UNL     1       5.983  -3.251  -0.430  0.00  0.00    -0.010 C 
ATOM     12  C   UNL     1       4.791  -4.868  -4.655  0.00  0.00    -0.005 C 
ATOM     13  C   UNL     1       5.294  -2.463  -5.035  0.00  0.00    -0.005 C 
ATOM     14  H   UNL     1       6.253  -4.235  -2.876  0.00  0.00    -0.084 HD
ATOM     15  H   UNL     1       6.183  -2.608  -2.860  0.00  0.00    -0.084 HD
ENDROOT
BRANCH   5  16
ATOM     16  N   UNL     1      -0.612  -2.446  -3.915  0.00  0.00    -0.275 N 
ATOM     17  C   UNL     1      -1.137  -2.771  -5.113  0.00  0.00    +0.250 C 
ATOM     18  O   UNL     1      -0.422  -3.219  -5.988  0.00  0.00    -0.270 OA
ATOM     19  H   UNL     1      -1.183  -2.089  -3.216  0.00  0.00    +0.156 HD
BRANCH  17  20
ATOM     20  C   UNL     1      -2.580  -2.583  -5.362  0.00  0.00    +0.056 A 
ATOM     21  C   UNL     1      -3.404  -2.064  -4.361  0.00  0.00    +0.029 A 
ATOM     22  C   UNL     1      -4.752  -1.891  -4.601  0.00  0.00    +0.019 A 
ATOM     23  C   UNL     1      -5.289  -2.231  -5.832  0.00  0.00    +0.017 A 
ATOM     24  C   UNL     1      -4.480  -2.747  -6.828  0.00  0.00    +0.022 A 
ATOM     25  C   UNL     1      -3.128  -2.919  -6.603  0.00  0.00    +0.053 A 
ATOM     26 CL   UNL     1      -2.112  -3.558  -7.858  0.00  0.00    -0.083 Cl
ATOM     27 BR   UNL     1      -5.868  -1.189  -3.246  0.00  0.00    -0.050 Br
ENDBRANCH  17  20
ENDBRANCH   5  16
BRANCH   1  28
ATOM     28  C   UNL     1       0.776  -1.800  -1.335  0.00  0.00    +0.342 C 
ATOM     29  O   UNL     1       0.312  -2.552  -0.499  0.00  0.00    -0.245 OA
BRANCH  28  30
ATOM     30  O   UNL     1       0.671  -0.465  -1.174  0.00  0.00    -0.461 OA
BRANCH  30  32
ATOM     31  C   UNL     1      -0.019   1.526   0.010  0.00  0.00    +0.048 C 
ATOM     32  C   UNL     1       0.002  -0.004   0.002  0.00  0.00    +0.229 C 
ENDBRANCH  30  32
ENDBRANCH  28  30
ENDBRANCH   1  28
TORSDOF 5
