REMARK  Name = ZINC04556843
REMARK  14 active torsions:
REMARK  status: ('A' for Active; 'I' for Inactive)
REMARK    1  A    between atoms: C_1  and  C_2
REMARK    2  A    between atoms: N_4  and  C_5
REMARK    3  A    between atoms: C_7  and  O_37
REMARK    4  A    between atoms: C_9  and  O_36
REMARK    5  A    between atoms: C_11  and  C_34
REMARK    6  A    between atoms: C_14  and  O_16
REMARK    7  A    between atoms: O_16  and  C_17
REMARK    8  A    between atoms: C_19  and  O_33
REMARK    9  A    between atoms: C_21  and  C_31
REMARK   10  A    between atoms: C_24  and  O_29
REMARK   11  A    between atoms: C_26  and  O_28
REMARK   12  A    between atoms: O_29  and  C_30
REMARK   13  A    between atoms: C_31  and  O_32
REMARK   14  A    between atoms: C_34  and  O_35
REMARK                            x       y       z     vdW  Elec       q    Type
REMARK                         _______ _______ _______ _____ _____    ______ ____
ROOT
ATOM      1  C   UNL     1      -0.693   3.125  -1.257  0.00  0.00    +0.160 C 
ATOM      2  C   UNL     1      -0.776   1.596  -1.255  0.00  0.00    +0.171 C 
ATOM      3  C   UNL     1      -0.064   1.058  -0.010  0.00  0.00    +0.176 C 
ATOM      4  C   UNL     1       1.382   1.561  -0.002  0.00  0.00    +0.178 C 
ATOM      5  O   UNL     1       1.388   2.990  -0.036  0.00  0.00    -0.341 OA
ATOM      6  C   UNL     1       0.777   3.549  -1.201  0.00  0.00    +0.274 C 
ENDROOT
BRANCH   1  10
ATOM      7  C   UNL     1      -3.444   4.477   1.036  0.00  0.00    +0.109 C 
ATOM      8  C   UNL     1      -2.717   3.932  -0.166  0.00  0.00    +0.210 C 
ATOM      9  O   UNL     1      -3.317   3.741  -1.203  0.00  0.00    -0.276 OA
ATOM     10  N   UNL     1      -1.400   3.656  -0.089  0.00  0.00    -0.305 N 
ATOM     11  H   UNL     1      -0.921   3.808   0.741  0.00  0.00    +0.149 HD
ENDBRANCH   1  10
BRANCH   3  12
ATOM     12  O   UNL     1      -0.737   1.520   1.163  0.00  0.00    -0.387 OA
ATOM     13  H   UNL     1      -0.336   1.218   1.990  0.00  0.00    +0.210 HD
ENDBRANCH   3  12
BRANCH   2  14
ATOM     14  O   UNL     1      -2.147   1.192  -1.233  0.00  0.00    -0.387 OA
ATOM     15  H   UNL     1      -2.274   0.233  -1.224  0.00  0.00    +0.210 HD
ENDBRANCH   2  14
BRANCH   6  16
ATOM     16  O   UNL     1       0.861   4.974  -1.146  0.00  0.00    -0.341 OA
BRANCH  16  17
ATOM     17  C   UNL     1       2.184   5.486  -1.316  0.00  0.00    +0.186 C 
ATOM     18  C   UNL     1       2.327   6.803  -0.548  0.00  0.00    +0.177 C 
ATOM     19  C   UNL     1       3.721   7.383  -0.800  0.00  0.00    +0.178 C 
ATOM     20  O   UNL     1       3.912   7.569  -2.204  0.00  0.00    -0.341 OA
ATOM     21  C   UNL     1       3.836   6.364  -2.968  0.00  0.00    +0.281 C 
ATOM     22  C   UNL     1       2.448   5.741  -2.803  0.00  0.00    +0.202 C 
BRANCH  22  23
ATOM     23  O   UNL     1       1.460   6.637  -3.316  0.00  0.00    -0.384 OA
ATOM     24  H   UNL     1       1.566   6.843  -4.255  0.00  0.00    +0.210 HD
ENDBRANCH  22  23
BRANCH  21  25
ATOM     25  O   UNL     1       4.066   6.658  -4.347  0.00  0.00    -0.352 OA
ATOM     26  C   UNL     1       5.413   7.032  -4.645  0.00  0.00    +0.197 C 
ENDBRANCH  21  25
BRANCH  18  27
ATOM     27  O   UNL     1       1.336   7.729  -1.000  0.00  0.00    -0.386 OA
ATOM     28  H   UNL     1       1.368   8.587  -0.555  0.00  0.00    +0.210 HD
ENDBRANCH  18  27
BRANCH  19  29
ATOM     29  C   UNL     1       3.851   8.729  -0.085  0.00  0.00    +0.190 C 
BRANCH  29  30
ATOM     30  O   UNL     1       5.188   9.215  -0.223  0.00  0.00    -0.392 OA
ATOM     31  H   UNL     1       5.343  10.067   0.207  0.00  0.00    +0.210 HD
ENDBRANCH  29  30
ENDBRANCH  19  29
ENDBRANCH  16  17
ENDBRANCH   6  16
BRANCH   4  32
ATOM     32  C   UNL     1       2.083   1.078   1.269  0.00  0.00    +0.190 C 
BRANCH  32  33
ATOM     33  O   UNL     1       3.463   1.448   1.221  0.00  0.00    -0.392 OA
ATOM     34  H   UNL     1       3.971   1.173   1.997  0.00  0.00    +0.210 HD
ENDBRANCH  32  33
ENDBRANCH   4  32
TORSDOF 12
