REMARK  Name = ZINC39920071
REMARK  11 active torsions:
REMARK  status: ('A' for Active; 'I' for Inactive)
REMARK    1  A    between atoms: C_1  and  C_2
REMARK    2  A    between atoms: C_7  and  O_8
REMARK    3  A    between atoms: O_8  and  C_9
REMARK    4  A    between atoms: C_9  and  C_10
REMARK    5  A    between atoms: C_10  and  C_11
REMARK    6  A    between atoms: C_11  and  C_12
REMARK    7  A    between atoms: N_14  and  N_15
REMARK    8  A    between atoms: C_16  and  C_27
REMARK    9  A    between atoms: C_30  and  C_33
REMARK   10  A    between atoms: C_33  and  C_34
REMARK   11  A    between atoms: C_33  and  C_35
REMARK                            x       y       z     vdW  Elec       q    Type
REMARK                         _______ _______ _______ _____ _____    ______ ____
ROOT
ATOM      1  N   UNL     1       0.106   0.647   9.814  0.00  0.00    -0.191 N 
ATOM      2  C   UNL     1       1.495   0.671  10.274  0.00  0.00    +0.212 C 
ATOM      3  N   UNL     1       1.544   0.798  11.736  0.00  0.00    -0.320 N 
ATOM      4  C   UNL     1       0.704   1.719  12.351  0.00  0.00    +0.041 A 
ATOM      5  C   UNL     1       1.046   2.346  13.536  0.00  0.00    +0.024 A 
ATOM      6  C   UNL     1       0.175   3.257  14.104  0.00  0.00    +0.002 A 
ATOM      7  C   UNL     1      -1.037   3.546  13.497  0.00  0.00    +0.001 A 
ATOM      8  C   UNL     1      -1.394   2.928  12.316  0.00  0.00    +0.015 A 
ATOM      9  C   UNL     1      -0.527   2.007  11.734  0.00  0.00    +0.059 A 
ATOM     10  C   UNL     1      -0.861   1.316  10.475  0.00  0.00    +0.266 C 
ATOM     11  O   UNL     1      -1.996   1.346  10.039  0.00  0.00    -0.268 OA
ATOM     12  H   UNL     1       2.150   0.252  12.261  0.00  0.00    +0.148 HD
ENDROOT
BRANCH   2  13
ATOM     13  C   UNL     1       2.207   1.843   9.650  0.00  0.00    -0.008 A 
ATOM     14  C   UNL     1       3.376   1.643   8.940  0.00  0.00    +0.007 A 
ATOM     15  C   UNL     1       4.030   2.718   8.368  0.00  0.00    +0.004 A 
ATOM     16  C   UNL     1       3.514   3.994   8.505  0.00  0.00    -0.045 A 
ATOM     17  C   UNL     1       2.344   4.193   9.214  0.00  0.00    +0.004 A 
ATOM     18  C   UNL     1       1.688   3.118   9.783  0.00  0.00    +0.007 A 
BRANCH  16  19
ATOM     19  C   UNL     1       4.227   5.166   7.882  0.00  0.00    +0.013 C 
ATOM     20  C   UNL     1       3.299   5.852   6.878  0.00  0.00    +0.012 C 
ATOM     21  C   UNL     1       4.622   6.162   8.974  0.00  0.00    +0.012 C 
ENDBRANCH  16  19
ENDBRANCH   2  13
BRANCH   1  24
ATOM     22  C   UNL     1      -0.443   0.564   7.499  0.00  0.00    +0.229 C 
ATOM     23  O   UNL     1      -0.442   1.777   7.467  0.00  0.00    -0.274 OA
ATOM     24  N   UNL     1      -0.224  -0.080   8.662  0.00  0.00    -0.230 N 
ATOM     25  H   UNL     1      -0.295  -1.046   8.703  0.00  0.00    +0.173 HD
BRANCH  22  26
ATOM     26  C   UNL     1      -0.689  -0.222   6.237  0.00  0.00    +0.100 C 
BRANCH  26  27
ATOM     27  C   UNL     1      -0.906   0.742   5.069  0.00  0.00    +0.050 C 
BRANCH  27  28
ATOM     28  C   UNL     1      -1.156  -0.056   3.788  0.00  0.00    +0.229 C 
BRANCH  28  29
ATOM     29  O   UNL     1      -1.359   0.844   2.698  0.00  0.00    -0.492 OA
BRANCH  29  36
ATOM     30  C   UNL     1      -1.765   2.608   0.529  0.00  0.00    +0.047 C 
ATOM     31  C   UNL     1      -1.802   1.109   0.376  0.00  0.00    -0.007 A 
ATOM     32  C   UNL     1      -2.036   0.547  -0.865  0.00  0.00    +0.027 A 
ATOM     33  C   UNL     1      -2.071  -0.829  -1.006  0.00  0.00    +0.041 A 
ATOM     34  C   UNL     1      -1.871  -1.645   0.094  0.00  0.00    +0.023 A 
ATOM     35  C   UNL     1      -1.637  -1.086   1.335  0.00  0.00    +0.047 A 
ATOM     36  C   UNL     1      -1.596   0.293   1.478  0.00  0.00    +0.123 A 
ATOM     37 CL   UNL     1      -2.366  -1.533  -2.565  0.00  0.00    -0.084 Cl
ENDBRANCH  29  36
ENDBRANCH  28  29
ENDBRANCH  27  28
ENDBRANCH  26  27
ENDBRANCH  22  26
ENDBRANCH   1  24
TORSDOF 8
