REMARK  Name = ZINC39363326
REMARK  11 active torsions:
REMARK  status: ('A' for Active; 'I' for Inactive)
REMARK    1  A    between atoms: C_1  and  C_2
REMARK    2  A    between atoms: C_2  and  C_4
REMARK    3  A    between atoms: C_2  and  O_17
REMARK    4  A    between atoms: C_4  and  N_5
REMARK    5  A    between atoms: C_6  and  C_8
REMARK    6  A    between atoms: O_17  and  C_18
REMARK    7  A    between atoms: C_22  and  C_24
REMARK    8  A    between atoms: C_24  and  N_25
REMARK    9  A    between atoms: N_25  and  C_26
REMARK   10  A    between atoms: N_25  and  C_27
REMARK   11  A    between atoms: C_27  and  C_28
REMARK                            x       y       z     vdW  Elec       q    Type
REMARK                         _______ _______ _______ _____ _____    ______ ____
ROOT
ATOM      1  C   UNL     1       0.003   1.495   0.269  0.00  0.00    +0.053 C 
ATOM      2  C   UNL     1       0.005  -0.012   0.001  0.00  0.00    +0.187 C 
ENDROOT
BRANCH   2   3
ATOM      3  C   UNL     1       0.636  -0.286  -1.365  0.00  0.00    +0.148 C 
BRANCH   3   4
ATOM      4  N   UNL     1       0.637  -1.728  -1.622  0.00  0.00    -0.310 N 
ATOM      5  C   UNL     1       1.148  -2.208  -2.773  0.00  0.00    +0.236 C 
ATOM      6  O   UNL     1       1.606  -1.445  -3.597  0.00  0.00    -0.274 OA
ATOM      7  H   UNL     1       0.271  -2.338  -0.963  0.00  0.00    +0.149 HD
BRANCH   5   8
ATOM      8  C   UNL     1       1.149  -3.691  -3.037  0.00  0.00    +0.186 C 
ATOM      9  C   UNL     1       2.326  -4.352  -2.346  0.00  0.00    -0.025 C 
ATOM     10  C   UNL     1       3.073  -4.898  -3.282  0.00  0.00    +0.020 C 
ATOM     11  C   UNL     1       4.278  -5.583  -2.658  0.00  0.00    +0.052 C 
ATOM     12  C   UNL     1       4.375  -5.000  -1.232  0.00  0.00    +0.010 C 
ATOM     13  C   UNL     1       2.910  -4.583  -0.971  0.00  0.00    +0.035 C 
ATOM     14  N   UNL     1       2.529  -4.679  -4.544  0.00  0.00    -0.283 N 
ATOM     15  N   UNL     1       1.370  -3.961  -4.470  0.00  0.00    -0.227 NA
ATOM     16  H   UNL     1       2.922  -4.997  -5.372  0.00  0.00    +0.166 HD
ATOM     17  H   UNL     1       1.443  -3.101  -4.993  0.00  0.00    +0.145 HD
ENDBRANCH   5   8
ENDBRANCH   3   4
ENDBRANCH   2   3
BRANCH   2  18
ATOM     18  O   UNL     1      -1.339  -0.499   0.012  0.00  0.00    -0.488 OA
BRANCH  18  19
ATOM     19  C   UNL     1      -1.869  -0.818   1.222  0.00  0.00    +0.121 A 
ATOM     20  C   UNL     1      -3.124  -1.406   1.297  0.00  0.00    +0.045 A 
ATOM     21  C   UNL     1      -3.661  -1.729   2.528  0.00  0.00    +0.004 A 
ATOM     22  C   UNL     1      -2.949  -1.468   3.684  0.00  0.00    +0.002 A 
ATOM     23  C   UNL     1      -1.699  -0.882   3.612  0.00  0.00    -0.060 A 
ATOM     24  C   UNL     1      -1.155  -0.561   2.383  0.00  0.00    +0.047 A 
BRANCH  23  25
ATOM     25  C   UNL     1      -0.927  -0.598   4.875  0.00  0.00    -0.043 C 
BRANCH  25  26
ATOM     26  N   UNL     1      -0.092  -1.760   5.210  0.00  0.00    +0.384 N 
ATOM     27  C   UNL     1       0.924  -1.950   4.166  0.00  0.00    -0.095 C 
ATOM     28  H   UNL     1      -0.671  -2.584   5.269  0.00  0.00    -0.081 HD
BRANCH  26  29
ATOM     29  C   UNL     1       0.569  -1.532   6.502  0.00  0.00    -0.022 C 
BRANCH  29  30
ATOM     30  C   UNL     1       1.326  -2.771   6.904  0.00  0.00    +0.032 A 
ATOM     31  C   UNL     1       2.649  -2.913   6.635  0.00  0.00    +0.068 A 
ATOM     32  S   UNL     1       2.956  -4.527   7.333  0.00  0.00    -0.084 S 
ATOM     33  C   UNL     1       1.396  -4.841   7.882  0.00  0.00    +0.156 A 
ATOM     34  N   UNL     1       0.736  -3.764   7.538  0.00  0.00    -0.254 NA
ENDBRANCH  29  30
ENDBRANCH  26  29
ENDBRANCH  25  26
ENDBRANCH  23  25
ENDBRANCH  18  19
ENDBRANCH   2  18
TORSDOF 9
