REMARK  Name = ZINC36309537
REMARK  14 active torsions:
REMARK  status: ('A' for Active; 'I' for Inactive)
REMARK    1  A    between atoms: C_1  and  C_2
REMARK    2  A    between atoms: C_5  and  O_8
REMARK    3  A    between atoms: O_8  and  C_9
REMARK    4  A    between atoms: C_9  and  C_10
REMARK    5  A    between atoms: C_20  and  C_22
REMARK    6  A    between atoms: C_22  and  N_23
REMARK    7  A    between atoms: N_23  and  C_24
REMARK    8  A    between atoms: N_23  and  C_35
REMARK    9  A    between atoms: C_24  and  C_25
REMARK   10  A    between atoms: C_25  and  C_27
REMARK   11  A    between atoms: C_25  and  O_34
REMARK   12  A    between atoms: C_27  and  C_28
REMARK   13  A    between atoms: C_35  and  C_36
REMARK   14  A    between atoms: C_35  and  C_37
REMARK                            x       y       z     vdW  Elec       q    Type
REMARK                         _______ _______ _______ _____ _____    ______ ____
ROOT
ATOM      1  C   UNL     1       0.378  -7.150   1.091  0.00  0.00    +0.144 C 
ATOM      2  C   UNL     1       1.482  -7.572   0.123  0.00  0.00    -0.014 A 
ATOM      3  C   UNL     1       2.802  -7.787   0.516  0.00  0.00    +0.013 A 
ATOM      4  C   UNL     1       3.728  -8.156  -0.397  0.00  0.00    +0.046 A 
ATOM      5  S   UNL     1       2.761  -8.220  -1.898  0.00  0.00    -0.101 S 
ATOM      6  C   UNL     1       1.200  -7.755  -1.196  0.00  0.00    -0.004 A 
ATOM      7  C   UNL     1      -0.118  -7.603  -1.883  0.00  0.00    +0.061 C 
ATOM      8  C   UNL     1      -1.063  -6.812  -0.966  0.00  0.00    +0.113 C 
ATOM      9  N   UNL     1      -0.911  -7.322   0.406  0.00  0.00    -0.292 N 
ATOM     10  C   UNL     1      -1.937  -7.939   1.026  0.00  0.00    +0.200 C 
ATOM     11  O   UNL     1      -1.800  -8.356   2.156  0.00  0.00    -0.278 OA
ENDROOT
BRANCH   1  12
ATOM     12  C   UNL     1       0.565  -5.683   1.483  0.00  0.00    +0.256 C 
BRANCH  12  13
ATOM     13  O   UNL     1       0.640  -4.881   0.303  0.00  0.00    -0.490 OA
BRANCH  13  18
ATOM     14  C   UNL     1       1.329   0.663   1.020  0.00  0.00    +0.044 C 
ATOM     15  C   UNL     1       1.145  -0.820   0.828  0.00  0.00    -0.050 A 
ATOM     16  C   UNL     1       1.056  -1.345  -0.448  0.00  0.00    +0.007 A 
ATOM     17  C   UNL     1       0.887  -2.705  -0.626  0.00  0.00    +0.046 A 
ATOM     18  C   UNL     1       0.807  -3.543   0.476  0.00  0.00    +0.121 A 
ATOM     19  C   UNL     1       0.896  -3.014   1.755  0.00  0.00    +0.046 A 
ATOM     20  C   UNL     1       1.071  -1.654   1.928  0.00  0.00    +0.007 A 
ENDBRANCH  13  18
ENDBRANCH  12  13
ENDBRANCH   1  12
BRANCH  10  21
ATOM     21  C   UNL     1      -3.254  -8.109   0.314  0.00  0.00    +0.019 C 
BRANCH  21  22
ATOM     22  N   UNL     1      -4.254  -8.634   1.253  0.00  0.00    +0.389 N 
ATOM     23  H   UNL     1      -3.815  -9.296   1.876  0.00  0.00    -0.081 HD
BRANCH  22  24
ATOM     24  C   UNL     1      -4.820  -7.527   2.035  0.00  0.00    -0.074 C 
ATOM     25  C   UNL     1      -3.701  -6.819   2.802  0.00  0.00    -0.014 C 
ATOM     26  C   UNL     1      -5.500  -6.532   1.093  0.00  0.00    -0.014 C 
ENDBRANCH  22  24
BRANCH  22  27
ATOM     27  C   UNL     1      -5.326  -9.303   0.504  0.00  0.00    -0.046 C 
BRANCH  27  28
ATOM     28  C   UNL     1      -6.286  -9.980   1.484  0.00  0.00    +0.102 C 
BRANCH  28  29
ATOM     29  O   UNL     1      -5.575 -10.952   2.252  0.00  0.00    -0.393 OA
ATOM     30  H   UNL     1      -5.168 -11.651   1.723  0.00  0.00    +0.210 HD
ENDBRANCH  28  29
BRANCH  28  31
ATOM     31  C   UNL     1      -7.409 -10.668   0.704  0.00  0.00    +0.064 C 
BRANCH  31  32
ATOM     32  C   UNL     1      -8.420 -11.231   1.669  0.00  0.00    -0.045 A 
ATOM     33  C   UNL     1      -8.273 -12.518   2.152  0.00  0.00    +0.004 A 
ATOM     34  C   UNL     1      -9.201 -13.033   3.038  0.00  0.00    +0.000 A 
ATOM     35  C   UNL     1     -10.275 -12.262   3.441  0.00  0.00    +0.000 A 
ATOM     36  C   UNL     1     -10.421 -10.975   2.958  0.00  0.00    +0.000 A 
ATOM     37  C   UNL     1      -9.491 -10.457   2.076  0.00  0.00    +0.004 A 
ENDBRANCH  31  32
ENDBRANCH  28  31
ENDBRANCH  27  28
ENDBRANCH  22  27
ENDBRANCH  21  22
ENDBRANCH  10  21
TORSDOF 11
