REMARK  Name = ZINC39370930
REMARK  12 active torsions:
REMARK  status: ('A' for Active; 'I' for Inactive)
REMARK    1  A    between atoms: C_1  and  C_2
REMARK    2  A    between atoms: C_2  and  O_3
REMARK    3  A    between atoms: O_3  and  C_4
REMARK    4  A    between atoms: C_4  and  C_6
REMARK    5  A    between atoms: C_8  and  N_18
REMARK    6  A    between atoms: C_11  and  O_16
REMARK    7  A    between atoms: O_16  and  C_17
REMARK    8  A    between atoms: N_18  and  C_19
REMARK    9  A    between atoms: C_19  and  N_21
REMARK   10  A    between atoms: N_24  and  C_27
REMARK   11  A    between atoms: C_31  and  C_34
REMARK   12  A    between atoms: C_32  and  C_33
REMARK                            x       y       z     vdW  Elec       q    Type
REMARK                         _______ _______ _______ _____ _____    ______ ____
ROOT
ATOM      1  N   UNL     1       3.751  -1.233  -2.149  0.00  0.00    -0.297 N 
ATOM      2  H   UNL     1       3.152  -1.412  -1.407  0.00  0.00    +0.154 HD
ENDROOT
BRANCH   1   4
ATOM      3  C   UNL     1       1.803  -0.506  -3.668  0.00  0.00    +0.234 C 
ATOM      4  C   UNL     1       3.256  -0.739  -3.318  0.00  0.00    +0.052 C 
ATOM      5  C   UNL     1       3.979  -0.347  -4.432  0.00  0.00    +0.021 A 
ATOM      6  C   UNL     1       5.368  -0.327  -4.710  0.00  0.00    +0.057 A 
ATOM      7  C   UNL     1       5.806   0.121  -5.916  0.00  0.00    +0.121 A 
ATOM      8  C   UNL     1       4.913   0.567  -6.900  0.00  0.00    +0.047 A 
ATOM      9  C   UNL     1       3.574   0.575  -6.699  0.00  0.00    +0.029 A 
ATOM     10  C   UNL     1       3.041   0.122  -5.465  0.00  0.00    +0.045 A 
ATOM     11  N   UNL     1       1.796   0.033  -5.032  0.00  0.00    -0.367 N 
ATOM     12  H   UNL     1       1.005   0.283  -5.534  0.00  0.00    +0.161 HD
BRANCH   3  13
ATOM     13  C   UNL     1       1.043  -1.806  -3.620  0.00  0.00    +0.336 C 
ATOM     14  O   UNL     1       0.815  -2.411  -4.641  0.00  0.00    -0.248 OA
BRANCH  13  15
ATOM     15  O   UNL     1       0.619  -2.293  -2.443  0.00  0.00    -0.463 OA
BRANCH  15  17
ATOM     16  C   UNL     1      -0.495  -3.922  -1.049  0.00  0.00    +0.048 C 
ATOM     17  C   UNL     1      -0.096  -3.530  -2.473  0.00  0.00    +0.229 C 
ENDBRANCH  15  17
ENDBRANCH  13  15
ENDBRANCH   3  13
BRANCH   7  18
ATOM     18  O   UNL     1       7.141   0.137  -6.174  0.00  0.00    -0.495 OA
ATOM     19  C   UNL     1       7.549   0.617  -7.457  0.00  0.00    +0.277 C 
ENDBRANCH   7  18
ENDBRANCH   1   4
BRANCH   1  20
ATOM     20  C   UNL     1       5.071  -1.471  -2.024  0.00  0.00    +0.137 C 
ATOM     21  S   UNL     1       5.671  -3.068  -2.177  0.00  0.00    -0.018 S 
BRANCH  20  22
ATOM     22  N   UNL     1       5.920  -0.454  -1.778  0.00  0.00    -0.309 N 
ATOM     23  C   UNL     1       5.409   0.902  -1.527  0.00  0.00    +0.125 C 
ATOM     24  C   UNL     1       5.960   1.392  -0.182  0.00  0.00    +0.124 C 
ATOM     25  N   UNL     1       7.412   1.166  -0.159  0.00  0.00    -0.327 N 
ATOM     26  C   UNL     1       7.923  -0.189  -0.410  0.00  0.00    +0.124 C 
ATOM     27  C   UNL     1       7.371  -0.680  -1.749  0.00  0.00    +0.125 C 
BRANCH  25  28
ATOM     28  C   UNL     1       8.291   2.221   0.096  0.00  0.00    +0.033 A 
ATOM     29  C   UNL     1       8.679   2.505   1.399  0.00  0.00    +0.023 A 
ATOM     30  C   UNL     1       9.549   3.549   1.648  0.00  0.00    +0.002 A 
ATOM     31  C   UNL     1      10.034   4.311   0.601  0.00  0.00    +0.004 A 
ATOM     32  C   UNL     1       9.650   4.031  -0.698  0.00  0.00    -0.046 A 
ATOM     33  C   UNL     1       8.785   2.985  -0.954  0.00  0.00    -0.027 A 
ATOM     34  C   UNL     1       8.373   2.677  -2.370  0.00  0.00    +0.046 C 
ATOM     35  C   UNL     1      10.181   4.865  -1.836  0.00  0.00    +0.044 C 
ENDBRANCH  25  28
ENDBRANCH  20  22
ENDBRANCH   1  20
TORSDOF 8
