REMARK  Name = ZINC35861751
REMARK  10 active torsions:
REMARK  status: ('A' for Active; 'I' for Inactive)
REMARK    1  A    between atoms: C_1  and  O_2
REMARK    2  A    between atoms: O_2  and  C_3
REMARK    3  A    between atoms: C_3  and  C_4
REMARK    4  A    between atoms: C_4  and  N_5
REMARK    5  A    between atoms: C_6  and  C_8
REMARK    6  A    between atoms: C_11  and  C_13
REMARK    7  A    between atoms: C_13  and  O_14
REMARK    8  A    between atoms: O_14  and  C_15
REMARK    9  A    between atoms: C_21  and  C_33
REMARK   10  A    between atoms: C_26  and  C_28
REMARK                            x       y       z     vdW  Elec       q    Type
REMARK                         _______ _______ _______ _____ _____    ______ ____
ROOT
ATOM      1  C   UNL     1       5.016  -1.959  -6.961  0.00  0.00    +0.121 A 
ATOM      2  C   UNL     1       6.286  -1.607  -7.395  0.00  0.00    +0.046 A 
ATOM      3  C   UNL     1       6.504  -1.340  -8.730  0.00  0.00    +0.007 A 
ATOM      4  C   UNL     1       5.463  -1.423  -9.648  0.00  0.00    -0.040 A 
ATOM      5  C   UNL     1       4.205  -1.782  -9.219  0.00  0.00    -0.016 A 
ATOM      6  C   UNL     1       3.981  -2.049  -7.876  0.00  0.00    +0.051 A 
ATOM      7  C   UNL     1       3.039  -1.919 -10.166  0.00  0.00    +0.137 C 
ATOM      8  N   UNL     1       3.394  -1.354 -11.472  0.00  0.00    -0.290 N 
ATOM      9  C   UNL     1       4.719  -1.692 -12.018  0.00  0.00    +0.113 C 
ATOM     10  C   UNL     1       5.776  -1.102 -11.086  0.00  0.00    +0.054 C 
ATOM     11  C   UNL     1       2.541  -0.557 -12.146  0.00  0.00    +0.219 C 
ATOM     12  O   UNL     1       1.478  -0.248 -11.650  0.00  0.00    -0.275 OA
ENDROOT
BRANCH   7  13
ATOM     13  C   UNL     1       1.850  -1.181  -9.607  0.00  0.00    -0.022 A 
ATOM     14  C   UNL     1       1.959   0.158  -9.280  0.00  0.00    +0.008 A 
ATOM     15  C   UNL     1       0.870   0.837  -8.768  0.00  0.00    +0.038 A 
ATOM     16  C   UNL     1      -0.333   0.175  -8.583  0.00  0.00    +0.123 A 
ATOM     17  C   UNL     1      -0.441  -1.166  -8.911  0.00  0.00    +0.038 A 
ATOM     18  C   UNL     1       0.648  -1.841  -9.428  0.00  0.00    +0.008 A 
ATOM     19  F   UNL     1      -1.398   0.837  -8.082  0.00  0.00    -0.205 F 
ENDBRANCH   7  13
BRANCH  11  20
ATOM     20  C   UNL     1       2.908  -0.049 -13.517  0.00  0.00    +0.075 C 
ATOM     21  C   UNL     1       4.163   0.845 -13.430  0.00  0.00    +0.013 C 
ATOM     22  C   UNL     1       3.902   1.968 -14.464  0.00  0.00    +0.001 C 
ATOM     23  C   UNL     1       2.385   2.234 -14.303  0.00  0.00    +0.001 C 
ATOM     24  C   UNL     1       1.777   0.835 -14.072  0.00  0.00    +0.013 C 
ENDBRANCH  11  20
BRANCH   1  25
ATOM     25  O   UNL     1       4.791  -2.219  -5.646  0.00  0.00    -0.484 OA
BRANCH  25  26
ATOM     26  C   UNL     1       5.907  -2.106  -4.762  0.00  0.00    +0.303 C 
BRANCH  26  30
ATOM     27  C   UNL     1       4.712  -2.187  -1.312  0.00  0.00    +0.190 A 
ATOM     28  C   UNL     1       4.999  -3.511  -1.481  0.00  0.00    +0.055 A 
ATOM     29  C   UNL     1       5.482  -3.656  -2.791  0.00  0.00    +0.049 A 
ATOM     30  C   UNL     1       5.470  -2.428  -3.356  0.00  0.00    +0.143 A 
ATOM     31  O   UNL     1       5.000  -1.547  -2.464  0.00  0.00    -0.452 OA
BRANCH  27  33
ATOM     32  N   UNL     1       3.934  -0.245  -0.060  0.00  0.00    -0.307 N 
ATOM     33  C   UNL     1       4.179  -1.570  -0.093  0.00  0.00    +0.279 C 
ATOM     34  O   UNL     1       3.957  -2.254   0.889  0.00  0.00    -0.267 OA
ATOM     35  H   UNL     1       4.110   0.300  -0.843  0.00  0.00    +0.149 HD
BRANCH  32  36
ATOM     36  C   UNL     1       3.401   0.372   1.157  0.00  0.00    +0.132 C 
BRANCH  36  37
ATOM     37  C   UNL     1       3.215   1.873   0.929  0.00  0.00    +0.178 C 
BRANCH  37  39
ATOM     38  C   UNL     1       1.964   3.460  -0.361  0.00  0.00    +0.194 C 
ATOM     39  O   UNL     1       2.215   2.083  -0.070  0.00  0.00    -0.381 OA
ENDBRANCH  37  39
ENDBRANCH  36  37
ENDBRANCH  32  36
ENDBRANCH  27  33
ENDBRANCH  26  30
ENDBRANCH  25  26
ENDBRANCH   1  25
TORSDOF 9
