REMARK  Name = ZINC26688632
REMARK  8 active torsions:
REMARK  status: ('A' for Active; 'I' for Inactive)
REMARK    1  A    between atoms: C_1  and  C_2
REMARK    2  A    between atoms: C_2  and  O_3
REMARK    3  A    between atoms: O_3  and  C_4
REMARK    4  A    between atoms: C_9  and  N_10
REMARK    5  A    between atoms: C_11  and  C_13
REMARK    6  A    between atoms: C_13  and  C_14
REMARK    7  A    between atoms: C_26  and  C_28
REMARK    8  A    between atoms: C_32  and  N_34
REMARK                            x       y       z     vdW  Elec       q    Type
REMARK                         _______ _______ _______ _____ _____    ______ ____
ROOT
ATOM      1  C   UNL     1       5.303  -5.839  -0.777  0.00  0.00    +0.176 C 
ATOM      2  C   UNL     1       4.781  -6.723   0.333  0.00  0.00    +0.239 C 
ATOM      3  O   UNL     1       4.633  -7.910   0.135  0.00  0.00    -0.273 OA
ATOM      4  N   UNL     1       4.472  -6.205   1.537  0.00  0.00    -0.282 N 
ATOM      5  C   UNL     1       4.680  -4.848   1.807  0.00  0.00    +0.055 A 
ATOM      6  C   UNL     1       4.113  -4.252   2.922  0.00  0.00    +0.025 A 
ATOM      7  C   UNL     1       4.340  -2.912   3.176  0.00  0.00    +0.002 A 
ATOM      8  C   UNL     1       5.130  -2.163   2.323  0.00  0.00    +0.002 A 
ATOM      9  C   UNL     1       5.699  -2.749   1.207  0.00  0.00    +0.025 A 
ATOM     10  C   UNL     1       5.475  -4.089   0.946  0.00  0.00    +0.059 A 
ATOM     11  N   UNL     1       6.034  -4.711  -0.180  0.00  0.00    -0.253 N 
ATOM     12  C   UNL     1       7.202  -4.286  -0.702  0.00  0.00    +0.252 C 
ATOM     13  O   UNL     1       7.703  -3.251  -0.306  0.00  0.00    -0.270 OA
ATOM     14  H   UNL     1       4.052  -6.852   2.322  0.00  0.00    +0.155 HD
ENDROOT
BRANCH  12  15
ATOM     15  C   UNL     1       7.873  -5.077  -1.754  0.00  0.00    +0.039 A 
ATOM     16  C   UNL     1       7.119  -5.858  -2.632  0.00  0.00    +0.014 A 
ATOM     17  C   UNL     1       7.750  -6.594  -3.611  0.00  0.00    +0.023 A 
ATOM     18  C   UNL     1       9.130  -6.555  -3.729  0.00  0.00    +0.071 A 
ATOM     19  C   UNL     1       9.884  -5.786  -2.858  0.00  0.00    +0.145 A 
ATOM     20  C   UNL     1       9.263  -5.046  -1.874  0.00  0.00    +0.047 A 
ATOM     21 CL   UNL     1       9.918  -7.479  -4.971  0.00  0.00    -0.081 Cl
BRANCH  19  22
ATOM     22  N   UNL     1      11.358  -5.755  -2.987  0.00  0.00    +0.058 N 
ATOM     23  O   UNL     1      12.022  -5.075  -2.225  0.00  0.00    -0.126 OA
ATOM     24  O   UNL     1      11.908  -6.413  -3.853  0.00  0.00    -0.126 OA
ENDBRANCH  19  22
ENDBRANCH  12  15
BRANCH   1  25
ATOM     25  C   UNL     1       4.134  -5.308  -1.609  0.00  0.00    +0.128 C 
BRANCH  25  27
ATOM     26  N   UNL     1       4.910  -4.197  -3.678  0.00  0.00    -0.283 N 
ATOM     27  C   UNL     1       4.577  -4.090  -2.377  0.00  0.00    +0.220 C 
ATOM     28  O   UNL     1       4.633  -3.011  -1.824  0.00  0.00    -0.275 OA
ATOM     29  H   UNL     1       4.832  -5.170  -4.187  0.00  0.00    +0.155 HD
BRANCH  26  35
ATOM     30  C   UNL     1       6.254  -3.218  -5.437  0.00  0.00    +0.142 A 
ATOM     31  C   UNL     1       6.688  -2.101  -6.133  0.00  0.00    +0.047 A 
ATOM     32  C   UNL     1       6.238  -0.845  -5.775  0.00  0.00    +0.004 A 
ATOM     33  C   UNL     1       5.350  -0.698  -4.724  0.00  0.00    +0.002 A 
ATOM     34  C   UNL     1       4.909  -1.807  -4.028  0.00  0.00    +0.027 A 
ATOM     35  C   UNL     1       5.356  -3.071  -4.383  0.00  0.00    +0.076 A 
BRANCH  30  36
ATOM     36  O   UNL     1       6.700  -4.454  -5.786  0.00  0.00    -0.490 OA
BRANCH  36  38
ATOM     37  C   UNL     1       8.007  -5.989  -7.120  0.00  0.00    +0.048 C 
ATOM     38  C   UNL     1       7.620  -4.528  -6.877  0.00  0.00    +0.226 C 
ENDBRANCH  36  38
ENDBRANCH  30  36
ENDBRANCH  26  35
ENDBRANCH  25  27
ENDBRANCH   1  25
TORSDOF 7
