REMARK  Name = ZINC15514050
REMARK  9 active torsions:
REMARK  status: ('A' for Active; 'I' for Inactive)
REMARK    1  A    between atoms: C_1  and  C_2
REMARK    2  A    between atoms: C_6  and  O_32
REMARK    3  A    between atoms: C_12  and  C_13
REMARK    4  A    between atoms: C_13  and  C_14
REMARK    5  A    between atoms: C_14  and  C_15
REMARK    6  A    between atoms: N_17  and  N_18
REMARK    7  A    between atoms: C_19  and  C_21
REMARK    8  A    between atoms: C_28  and  C_31
REMARK    9  A    between atoms: O_32  and  C_33
REMARK                            x       y       z     vdW  Elec       q    Type
REMARK                         _______ _______ _______ _____ _____    ______ ____
ROOT
ATOM      1  C   UNL     1       6.683  -3.857   1.361  0.00  0.00    +0.229 C 
ATOM      2  O   UNL     1       7.191  -4.167   0.304  0.00  0.00    -0.274 OA
ATOM      3  N   UNL     1       7.269  -4.214   2.521  0.00  0.00    -0.234 N 
ATOM      4  H   UNL     1       6.863  -3.966   3.366  0.00  0.00    +0.173 HD
ENDROOT
BRANCH   3   5
ATOM      5  N   UNL     1       8.466  -4.942   2.506  0.00  0.00    -0.230 N 
ATOM      6  C   UNL     1       9.052  -5.299   3.666  0.00  0.00    +0.267 C 
ATOM      7  O   UNL     1       8.542  -4.988   4.726  0.00  0.00    -0.268 OA
ATOM      8  H   UNL     1       8.872  -5.190   1.660  0.00  0.00    +0.173 HD
BRANCH   6   9
ATOM      9  C   UNL     1      10.304  -6.061   3.650  0.00  0.00    +0.076 A 
ATOM     10  C   UNL     1      11.059  -6.520   4.713  0.00  0.00    +0.024 A 
ATOM     11  C   UNL     1      12.218  -7.226   4.436  0.00  0.00    -0.036 A 
ATOM     12  C   UNL     1      12.524  -7.413   3.119  0.00  0.00    -0.006 A 
ATOM     13  S   UNL     1      11.249  -6.646   2.253  0.00  0.00    -0.088 S 
ATOM     14  C   UNL     1      13.711  -8.137   2.561  0.00  0.00    +0.043 C 
ATOM     15  C   UNL     1      14.348  -8.963   3.688  0.00  0.00    +0.009 C 
ATOM     16  C   UNL     1      14.502  -8.073   4.925  0.00  0.00    -0.009 C 
ATOM     17  C   UNL     1      13.129  -7.779   5.530  0.00  0.00    +0.039 C 
ATOM     18  C   UNL     1      15.371  -8.789   5.960  0.00  0.00    +0.008 C 
ENDBRANCH   6   9
ENDBRANCH   3   5
BRANCH   1  19
ATOM     19  C   UNL     1       5.396  -3.074   1.377  0.00  0.00    +0.102 C 
BRANCH  19  20
ATOM     20  C   UNL     1       4.947  -2.801  -0.060  0.00  0.00    +0.052 C 
BRANCH  20  32
ATOM     21  C   UNL     1       4.998   0.087  -0.045  0.00  0.00    +0.045 C 
ATOM     22  C   UNL     1       3.689  -0.659  -0.037  0.00  0.00    -0.030 A 
ATOM     23  C   UNL     1       2.414   0.061  -0.021  0.00  0.00    +0.021 A 
ATOM     24  C   UNL     1       2.376   1.460  -0.013  0.00  0.00    +0.015 A 
ATOM     25  C   UNL     1       1.174   2.106   0.002  0.00  0.00    +0.046 A 
ATOM     26  C   UNL     1      -0.017   1.381   0.010  0.00  0.00    +0.124 A 
ATOM     27  C   UNL     1       0.002  -0.004   0.002  0.00  0.00    +0.092 A 
ATOM     28  C   UNL     1       1.215  -0.676  -0.013  0.00  0.00    +0.143 A 
ATOM     29  O   UNL     1       1.256  -2.026  -0.021  0.00  0.00    -0.422 OA
ATOM     30  C   UNL     1       2.421  -2.692  -0.036  0.00  0.00    +0.341 A 
ATOM     31  O   UNL     1       2.409  -3.910  -0.042  0.00  0.00    -0.245 OA
ATOM     32  C   UNL     1       3.659  -2.017  -0.044  0.00  0.00    +0.041 A 
BRANCH  26  33
ATOM     33  O   UNL     1      -1.204   2.038   0.019  0.00  0.00    -0.495 OA
ATOM     34  C   UNL     1      -1.156   3.466   0.026  0.00  0.00    +0.277 C 
ENDBRANCH  26  33
ENDBRANCH  20  32
ENDBRANCH  19  20
ENDBRANCH   1  19
TORSDOF 6
