REMARK  Name = ZINC06017495
REMARK  16 active torsions:
REMARK  status: ('A' for Active; 'I' for Inactive)
REMARK    1  A    between atoms: C_1  and  C_2
REMARK    2  A    between atoms: C_3  and  C_36
REMARK    3  A    between atoms: C_6  and  N_7
REMARK    4  A    between atoms: N_7  and  S_8
REMARK    5  A    between atoms: S_8  and  C_11
REMARK    6  A    between atoms: C_14  and  N_17
REMARK    7  A    between atoms: C_18  and  C_20
REMARK    8  A    between atoms: C_21  and  C_22
REMARK    9  A    between atoms: C_25  and  O_30
REMARK   10  A    between atoms: C_26  and  O_28
REMARK   11  A    between atoms: O_28  and  C_29
REMARK   12  A    between atoms: O_30  and  C_31
REMARK   13  A    between atoms: C_31  and  C_32
REMARK   14  A    between atoms: C_32  and  C_33
REMARK   15  A    between atoms: C_33  and  C_34
REMARK   16  A    between atoms: C_33  and  C_35
REMARK                            x       y       z     vdW  Elec       q    Type
REMARK                         _______ _______ _______ _____ _____    ______ ____
ROOT
ATOM      1  N   UNL     1      -0.164   8.087   5.173  0.00  0.00    -0.282 N 
ATOM      2  C   UNL     1       1.151   8.033   5.464  0.00  0.00    +0.241 C 
ATOM      3  O   UNL     1       1.704   6.955   5.583  0.00  0.00    -0.270 OA
ATOM      4  H   UNL     1      -0.588   8.943   5.002  0.00  0.00    +0.155 HD
ENDROOT
BRANCH   1   8
ATOM      5  C   UNL     1      -2.406   4.581   5.003  0.00  0.00    +0.109 A 
ATOM      6  C   UNL     1      -1.361   4.689   5.903  0.00  0.00    +0.030 A 
ATOM      7  C   UNL     1      -0.612   5.848   5.957  0.00  0.00    +0.025 A 
ATOM      8  C   UNL     1      -0.916   6.910   5.116  0.00  0.00    +0.034 A 
ATOM      9  C   UNL     1      -1.970   6.800   4.217  0.00  0.00    +0.025 A 
ATOM     10  C   UNL     1      -2.712   5.636   4.164  0.00  0.00    +0.030 A 
BRANCH   5  11
ATOM     11  S   UNL     1      -3.354   3.098   4.932  0.00  0.00    +0.075 S 
ATOM     12  O   UNL     1      -4.621   3.451   4.394  0.00  0.00    -0.150 OA
ATOM     13  O   UNL     1      -3.214   2.464   6.197  0.00  0.00    -0.150 OA
BRANCH  11  14
ATOM     14  N   UNL     1      -2.629   2.105   3.823  0.00  0.00    -0.183 N 
ATOM     15  H   UNL     1      -3.095   1.869   3.005  0.00  0.00    +0.177 HD
BRANCH  14  21
ATOM     16  C   UNL     1      -1.022   0.231   1.904  0.00  0.00    +0.051 C 
ATOM     17  C   UNL     1      -0.630   0.794   3.246  0.00  0.00    +0.035 A 
ATOM     18  C   UNL     1       0.572   0.595   3.953  0.00  0.00    +0.085 A 
ATOM     19  N   UNL     1       0.470   1.278   5.059  0.00  0.00    -0.081 NA
ATOM     20  O   UNL     1      -0.593   1.849   5.138  0.00  0.00    -0.338 OA
ATOM     21  C   UNL     1      -1.359   1.613   4.061  0.00  0.00    +0.240 A 
ATOM     22  C   UNL     1       1.749  -0.238   3.513  0.00  0.00    +0.069 C 
ENDBRANCH  14  21
ENDBRANCH  11  14
ENDBRANCH   5  11
ENDBRANCH   1   8
BRANCH   2  23
ATOM     23  C   UNL     1       1.913   9.269   5.637  0.00  0.00    +0.068 C 
ATOM     24  C   UNL     1       3.230   9.215   5.929  0.00  0.00    +0.013 C 
BRANCH  24  25
ATOM     25  C   UNL     1       3.995  10.457   6.103  0.00  0.00    -0.021 A 
ATOM     26  C   UNL     1       3.361  11.697   5.967  0.00  0.00    +0.012 A 
ATOM     27  C   UNL     1       4.081  12.860   6.131  0.00  0.00    +0.050 A 
ATOM     28  C   UNL     1       5.436  12.806   6.431  0.00  0.00    +0.162 A 
ATOM     29  C   UNL     1       6.075  11.574   6.569  0.00  0.00    +0.162 A 
ATOM     30  C   UNL     1       5.360  10.403   6.411  0.00  0.00    +0.057 A 
BRANCH  29  31
ATOM     31  O   UNL     1       7.402  11.526   6.863  0.00  0.00    -0.491 OA
ATOM     32  C   UNL     1       7.992  10.230   6.989  0.00  0.00    +0.277 C 
ENDBRANCH  29  31
BRANCH  28  33
ATOM     33  O   UNL     1       6.141  13.956   6.591  0.00  0.00    -0.488 OA
BRANCH  33  34
ATOM     34  C   UNL     1       5.424  15.183   6.437  0.00  0.00    +0.229 C 
BRANCH  34  35
ATOM     35  C   UNL     1       6.377  16.360   6.652  0.00  0.00    +0.044 C 
BRANCH  35  36
ATOM     36  C   UNL     1       5.610  17.674   6.487  0.00  0.00    -0.014 C 
ATOM     37  C   UNL     1       4.561  17.794   7.593  0.00  0.00    +0.007 C 
ATOM     38  C   UNL     1       6.586  18.849   6.578  0.00  0.00    +0.007 C 
ENDBRANCH  35  36
ENDBRANCH  34  35
ENDBRANCH  33  34
ENDBRANCH  28  33
ENDBRANCH  24  25
ENDBRANCH   2  23
TORSDOF 11
