REMARK  Name = ZINC22860688
REMARK  9 active torsions:
REMARK  status: ('A' for Active; 'I' for Inactive)
REMARK    1  A    between atoms: C_3  and  N_19
REMARK    2  A    between atoms: C_6  and  C_7
REMARK    3  A    between atoms: C_7  and  O_9
REMARK    4  A    between atoms: O_9  and  C_10
REMARK    5  A    between atoms: C_10  and  C_11
REMARK    6  A    between atoms: N_13  and  C_14
REMARK    7  A    between atoms: C_14  and  C_15
REMARK    8  A    between atoms: N_19  and  S_20
REMARK    9  A    between atoms: S_20  and  C_23
REMARK                            x       y       z     vdW  Elec       q    Type
REMARK                         _______ _______ _______ _____ _____    ______ ____
ROOT
ATOM      1  C   UNL     1       3.452  -3.166  -4.345  0.00  0.00    +0.017 A 
ATOM      2  C   UNL     1       2.465  -3.472  -3.444  0.00  0.00    +0.025 A 
ATOM      3  C   UNL     1       2.113  -2.556  -2.457  0.00  0.00    +0.048 A 
ATOM      4  C   UNL     1       2.758  -1.324  -2.383  0.00  0.00    +0.025 A 
ATOM      5  C   UNL     1       3.750  -1.014  -3.278  0.00  0.00    +0.017 A 
ATOM      6  C   UNL     1       4.106  -1.931  -4.271  0.00  0.00    +0.059 A 
ENDROOT
BRANCH   6   7
ATOM      7  C   UNL     1       5.168  -1.599  -5.238  0.00  0.00    +0.340 C 
ATOM      8  O   UNL     1       5.476  -2.397  -6.100  0.00  0.00    -0.245 OA
BRANCH   7   9
ATOM      9  O   UNL     1       5.796  -0.409  -5.165  0.00  0.00    -0.452 OA
BRANCH   9  10
ATOM     10  C   UNL     1       6.832  -0.150  -6.149  0.00  0.00    +0.328 C 
BRANCH  10  11
ATOM     11  C   UNL     1       7.418   1.219  -5.913  0.00  0.00    +0.251 C 
ATOM     12  O   UNL     1       7.003   1.907  -5.005  0.00  0.00    -0.272 OA
ATOM     13  N   UNL     1       8.402   1.677  -6.711  0.00  0.00    -0.304 N 
ATOM     14  H   UNL     1       8.778   1.053  -7.535  0.00  0.00    +0.149 HD
BRANCH  13  15
ATOM     15  C   UNL     1       8.972   3.007  -6.482  0.00  0.00    +0.217 C 
BRANCH  15  16
ATOM     16  C   UNL     1      10.063   3.281  -7.519  0.00  0.00    +0.405 C 
ATOM     17  F   UNL     1       9.510   3.225  -8.803  0.00  0.00    -0.169 F 
ATOM     18  F   UNL     1      10.607   4.551  -7.300  0.00  0.00    -0.169 F 
ATOM     19  F   UNL     1      11.069   2.316  -7.403  0.00  0.00    -0.169 F 
ENDBRANCH  15  16
ENDBRANCH  13  15
ENDBRANCH  10  11
ENDBRANCH   9  10
ENDBRANCH   7   9
ENDBRANCH   6   7
BRANCH   3  20
ATOM     20  N   UNL     1       1.111  -2.870  -1.545  0.00  0.00    -0.216 N 
ATOM     21  H   UNL     1       0.122  -2.397  -1.631  0.00  0.00    +0.174 HD
BRANCH  20  22
ATOM     22  S   UNL     1       1.408  -3.954  -0.329  0.00  0.00    +0.072 S 
ATOM     23  O   UNL     1       1.972  -5.106  -0.941  0.00  0.00    -0.150 OA
ATOM     24  O   UNL     1       0.229  -4.012   0.461  0.00  0.00    -0.150 OA
BRANCH  22  25
ATOM     25  C   UNL     1       2.665  -3.260   0.692  0.00  0.00    +0.109 A 
ATOM     26  C   UNL     1       2.327  -2.375   1.699  0.00  0.00    +0.030 A 
ATOM     27  C   UNL     1       3.312  -1.831   2.501  0.00  0.00    +0.017 A 
ATOM     28  C   UNL     1       4.637  -2.172   2.296  0.00  0.00    +0.018 A 
ATOM     29  C   UNL     1       4.975  -3.057   1.288  0.00  0.00    +0.017 A 
ATOM     30  C   UNL     1       3.989  -3.601   0.487  0.00  0.00    +0.030 A 
ATOM     31 BR   UNL     1       5.986  -1.428   3.393  0.00  0.00    -0.050 Br
ENDBRANCH  22  25
ENDBRANCH  20  22
ENDBRANCH   3  20
TORSDOF 9
