REMARK  Name = ZINC49741453
REMARK  5 active torsions:
REMARK  status: ('A' for Active; 'I' for Inactive)
REMARK    1  A    between atoms: C_1  and  C_2
REMARK    2  A    between atoms: C_5  and  S_8
REMARK    3  A    between atoms: S_8  and  N_11
REMARK    4  A    between atoms: N_11  and  C_12
REMARK    5  A    between atoms: C_18  and  C_23
REMARK                            x       y       z     vdW  Elec       q    Type
REMARK                         _______ _______ _______ _____ _____    ______ ____
ROOT
ATOM      1  N   UNL     1       1.676  -4.896   0.053  0.00  0.00    -0.216 N 
ATOM      2  H   UNL     1       2.097  -4.812  -0.817  0.00  0.00    +0.174 HD
ENDROOT
BRANCH   1   3
ATOM      3  C   UNL     1       2.404  -4.609   1.213  0.00  0.00    +0.048 A 
ATOM      4  C   UNL     1       2.177  -3.426   1.905  0.00  0.00    +0.026 A 
ATOM      5  C   UNL     1       2.893  -3.140   3.048  0.00  0.00    +0.025 A 
ATOM      6  C   UNL     1       3.852  -4.036   3.518  0.00  0.00    +0.037 A 
ATOM      7  C   UNL     1       4.072  -5.216   2.819  0.00  0.00    -0.013 A 
ATOM      8  C   UNL     1       3.355  -5.508   1.681  0.00  0.00    +0.030 A 
ATOM      9  C   UNL     1       5.152  -5.960   3.571  0.00  0.00    +0.104 C 
ATOM     10  C   UNL     1       5.481  -5.054   4.738  0.00  0.00    +0.224 C 
ATOM     11  O   UNL     1       6.303  -5.265   5.604  0.00  0.00    -0.275 OA
ATOM     12  N   UNL     1       4.691  -3.972   4.634  0.00  0.00    -0.285 N 
ATOM     13  C   UNL     1       6.381  -6.162   2.682  0.00  0.00    +0.022 C 
ATOM     14  H   UNL     1       4.702  -3.232   5.261  0.00  0.00    +0.155 HD
ENDBRANCH   1   3
BRANCH   1  15
ATOM     15  S   UNL     1       0.096  -5.378   0.166  0.00  0.00    +0.072 S 
ATOM     16  O   UNL     1      -0.335  -5.671  -1.156  0.00  0.00    -0.150 OA
ATOM     17  O   UNL     1      -0.562  -4.424   0.988  0.00  0.00    -0.150 OA
BRANCH  15  22
ATOM     18  C   UNL     1       0.033 -10.598   3.193  0.00  0.00    +0.044 C 
ATOM     19  C   UNL     1       0.049  -9.294   2.437  0.00  0.00    -0.050 A 
ATOM     20  C   UNL     1      -0.163  -8.104   3.107  0.00  0.00    +0.005 A 
ATOM     21  C   UNL     1      -0.148  -6.908   2.414  0.00  0.00    +0.029 A 
ATOM     22  C   UNL     1       0.078  -6.902   1.050  0.00  0.00    +0.109 A 
ATOM     23  C   UNL     1       0.291  -8.093   0.380  0.00  0.00    +0.029 A 
ATOM     24  C   UNL     1       0.281  -9.288   1.074  0.00  0.00    +0.005 A 
ENDBRANCH  15  22
ENDBRANCH   1  15
TORSDOF 3
