REMARK  Name = ZINC33289454
REMARK  10 active torsions:
REMARK  status: ('A' for Active; 'I' for Inactive)
REMARK    1  A    between atoms: C_1  and  C_2
REMARK    2  A    between atoms: C_2  and  O_3
REMARK    3  A    between atoms: O_3  and  C_4
REMARK    4  A    between atoms: C_9  and  N_10
REMARK    5  A    between atoms: C_11  and  C_13
REMARK    6  A    between atoms: C_13  and  N_14
REMARK    7  A    between atoms: C_28  and  C_32
REMARK    8  A    between atoms: C_32  and  C_33
REMARK    9  A    between atoms: C_32  and  C_34
REMARK   10  A    between atoms: C_32  and  C_35
REMARK                            x       y       z     vdW  Elec       q    Type
REMARK                         _______ _______ _______ _____ _____    ______ ____
ROOT
ATOM      1  N   UNL     1       5.961   2.311  -0.355  0.00  0.00    -0.217 N 
ATOM      2  C   UNL     1       6.669   2.838   0.666  0.00  0.00    +0.366 A 
ATOM      3  O   UNL     1       6.502   2.588   1.848  0.00  0.00    -0.243 OA
ATOM      4  N   UNL     1       7.580   3.678   0.172  0.00  0.00    -0.172 NA
ATOM      5  C   UNL     1       7.484   3.712  -1.151  0.00  0.00    +0.169 A 
ATOM      6  N   UNL     1       6.483   2.865  -1.534  0.00  0.00    -0.218 N 
ATOM      7  C   UNL     1       6.171   2.701  -2.844  0.00  0.00    +0.224 A 
ATOM      8  N   UNL     1       6.821   3.345  -3.777  0.00  0.00    -0.228 NA
ATOM      9  C   UNL     1       7.810   4.181  -3.479  0.00  0.00    +0.114 A 
ATOM     10  C   UNL     1       8.207   4.429  -2.152  0.00  0.00    +0.055 A 
ATOM     11  C   UNL     1       9.315   5.368  -1.982  0.00  0.00    -0.024 A 
ATOM     12  C   UNL     1       9.835   5.912  -3.102  0.00  0.00    -0.004 A 
ATOM     13  S   UNL     1       8.899   5.208  -4.433  0.00  0.00    -0.073 S 
ATOM     14  C   UNL     1      10.959   6.898  -3.195  0.00  0.00    +0.046 C 
ATOM     15  C   UNL     1      11.202   7.490  -1.799  0.00  0.00    -0.000 C 
ATOM     16  C   UNL     1      11.260   6.346  -0.783  0.00  0.00    +0.009 C 
ATOM     17  C   UNL     1       9.869   5.736  -0.608  0.00  0.00    +0.037 C 
ENDROOT
BRANCH  15  18
ATOM     18  C   UNL     1      12.527   8.254  -1.789  0.00  0.00    -0.035 C 
ATOM     19  C   UNL     1      13.667   7.303  -2.160  0.00  0.00    +0.011 C 
ATOM     20  C   UNL     1      12.466   9.396  -2.805  0.00  0.00    +0.011 C 
ATOM     21  C   UNL     1      12.775   8.826  -0.392  0.00  0.00    +0.011 C 
ENDBRANCH  15  18
BRANCH   1  22
ATOM     22  C   UNL     1       4.866   1.344  -0.252  0.00  0.00    +0.243 C 
BRANCH  22  24
ATOM     23  N   UNL     1       2.404   1.390  -0.013  0.00  0.00    -0.281 N 
ATOM     24  C   UNL     1       3.557   2.079  -0.122  0.00  0.00    +0.239 C 
ATOM     25  O   UNL     1       3.541   3.292  -0.116  0.00  0.00    -0.273 OA
ATOM     26  H   UNL     1       2.425   0.293   0.072  0.00  0.00    +0.155 HD
BRANCH  23  32
ATOM     27  C   UNL     1       0.064   1.495   0.596  0.00  0.00    +0.142 A 
ATOM     28  C   UNL     1      -1.147   2.169   0.592  0.00  0.00    +0.047 A 
ATOM     29  C   UNL     1      -1.244   3.413  -0.003  0.00  0.00    +0.004 A 
ATOM     30  C   UNL     1      -0.137   3.984  -0.604  0.00  0.00    +0.002 A 
ATOM     31  C   UNL     1       1.073   3.316  -0.609  0.00  0.00    +0.027 A 
ATOM     32  C   UNL     1       1.179   2.069  -0.009  0.00  0.00    +0.076 A 
BRANCH  27  33
ATOM     33  O   UNL     1       0.162   0.273   1.185  0.00  0.00    -0.490 OA
BRANCH  33  35
ATOM     34  C   UNL     1      -0.720  -1.626   2.392  0.00  0.00    +0.048 C 
ATOM     35  C   UNL     1      -1.023  -0.254   1.786  0.00  0.00    +0.226 C 
ENDBRANCH  33  35
ENDBRANCH  27  33
ENDBRANCH  23  32
ENDBRANCH  22  24
ENDBRANCH   1  22
TORSDOF 6
