REMARK  Name = ZINC09807766
REMARK  6 active torsions:
REMARK  status: ('A' for Active; 'I' for Inactive)
REMARK    1  A    between atoms: C_7  and  N_24
REMARK    2  A    between atoms: C_8  and  N_12
REMARK    3  A    between atoms: N_12  and  S_13
REMARK    4  A    between atoms: S_13  and  C_16
REMARK    5  A    between atoms: C_20  and  C_22
REMARK    6  A    between atoms: N_24  and  C_25
REMARK                            x       y       z     vdW  Elec       q    Type
REMARK                         _______ _______ _______ _____ _____    ______ ____
ROOT
ATOM      1  C   UNL     1      -2.667  -0.637   0.003  0.00  0.00    +0.001 A 
ATOM      2  C   UNL     1      -1.927   0.478   0.367  0.00  0.00    +0.004 A 
ATOM      3  C   UNL     1      -0.576   0.373   0.623  0.00  0.00    +0.047 A 
ATOM      4  C   UNL     1       0.057  -0.859   0.517  0.00  0.00    +0.141 A 
ATOM      5  C   UNL     1      -0.691  -1.989   0.148  0.00  0.00    +0.040 A 
ATOM      6  C   UNL     1      -2.059  -1.868  -0.108  0.00  0.00    +0.013 A 
ATOM      7  C   UNL     1      -0.011  -3.289   0.039  0.00  0.00    +0.068 A 
ATOM      8  C   UNL     1       1.345  -3.334   0.307  0.00  0.00    +0.154 A 
ATOM      9  C   UNL     1       2.018  -2.153   0.670  0.00  0.00    +0.362 A 
ATOM     10  O   UNL     1       3.213  -2.200   0.904  0.00  0.00    -0.243 OA
ATOM     11  O   UNL     1       1.380  -0.976   0.764  0.00  0.00    -0.421 OA
ENDROOT
BRANCH   8  12
ATOM     12  N   UNL     1       2.045  -4.551   0.218  0.00  0.00    -0.208 N 
ATOM     13  H   UNL     1       1.563  -5.378   0.060  0.00  0.00    +0.174 HD
BRANCH  12  14
ATOM     14  S   UNL     1       3.693  -4.572   0.384  0.00  0.00    +0.073 S 
ATOM     15  O   UNL     1       4.096  -5.929   0.263  0.00  0.00    -0.150 OA
ATOM     16  O   UNL     1       4.199  -3.549  -0.463  0.00  0.00    -0.150 OA
BRANCH  14  17
ATOM     17  C   UNL     1       4.056  -4.084   2.037  0.00  0.00    +0.110 A 
ATOM     18  C   UNL     1       4.856  -2.979   2.271  0.00  0.00    +0.029 A 
ATOM     19  C   UNL     1       5.147  -2.589   3.566  0.00  0.00    +0.003 A 
ATOM     20  C   UNL     1       4.640  -3.299   4.634  0.00  0.00    +0.019 A 
ATOM     21  C   UNL     1       3.832  -4.415   4.405  0.00  0.00    +0.054 A 
ATOM     22  C   UNL     1       3.538  -4.800   3.096  0.00  0.00    +0.047 A 
BRANCH  21  23
ATOM     23  C   UNL     1       3.302  -5.157   5.510  0.00  0.00    +0.099 C 
ATOM     24  N   UNL     1       2.882  -5.746   6.385  0.00  0.00    -0.191 NA
ENDBRANCH  21  23
ENDBRANCH  14  17
ENDBRANCH  12  14
ENDBRANCH   8  12
BRANCH   7  25
ATOM     25  N   UNL     1      -0.707  -4.430  -0.320  0.00  0.00    -0.339 N 
ATOM     26  H   UNL     1      -0.464  -4.913  -1.126  0.00  0.00    +0.146 HD
BRANCH  25  27
ATOM     27  C   UNL     1      -1.809  -4.910   0.516  0.00  0.00    +0.070 C 
ATOM     28  C   UNL     1      -1.270  -5.896   1.554  0.00  0.00    +0.022 C 
ATOM     29  C   UNL     1      -2.422  -6.397   2.428  0.00  0.00    +0.002 C 
ATOM     30  C   UNL     1      -3.461  -7.098   1.550  0.00  0.00    +0.000 C 
ATOM     31  C   UNL     1      -4.000  -6.112   0.512  0.00  0.00    +0.002 C 
ATOM     32  C   UNL     1      -2.848  -5.611  -0.362  0.00  0.00    +0.022 C 
ENDBRANCH  25  27
ENDBRANCH   7  25
TORSDOF 6
