REMARK  Name = ZINC39311497
REMARK  4 active torsions:
REMARK  status: ('A' for Active; 'I' for Inactive)
REMARK    1  A    between atoms: C_1  and  N_2
REMARK    2  A    between atoms: C_16  and  S_17
REMARK    3  A    between atoms: S_17  and  C_18
REMARK    4  A    between atoms: C_18  and  C_19
REMARK                            x       y       z     vdW  Elec       q    Type
REMARK                         _______ _______ _______ _____ _____    ______ ____
ROOT
ATOM      1  C   UNL     1      -0.018   1.461   0.010  0.00  0.00    +0.133 C 
ATOM      2  N   UNL     1       0.002  -0.004   0.002  0.00  0.00    -0.297 N 
ATOM      3  C   UNL     1       0.009  -0.838  -1.129  0.00  0.00    +0.054 A 
ATOM      4  C   UNL     1       0.161  -0.535  -2.475  0.00  0.00    +0.025 A 
ATOM      5  C   UNL     1       0.178  -1.545  -3.417  0.00  0.00    +0.002 A 
ATOM      6  C   UNL     1       0.043  -2.864  -3.023  0.00  0.00    +0.002 A 
ATOM      7  C   UNL     1      -0.129  -3.175  -1.688  0.00  0.00    +0.025 A 
ATOM      8  C   UNL     1      -0.167  -2.166  -0.734  0.00  0.00    +0.061 A 
ATOM      9  N   UNL     1      -0.421  -2.202   0.634  0.00  0.00    -0.230 N 
ATOM     10  C   UNL     1       0.025  -0.883   1.167  0.00  0.00    +0.275 C 
ATOM     11  N   UNL     1      -1.072  -0.610   2.122  0.00  0.00    -0.243 N 
ATOM     12  N   UNL     1      -1.345  -1.859   2.645  0.00  0.00    -0.206 N 
ATOM     13  C   UNL     1      -0.941  -2.827   1.758  0.00  0.00    +0.245 A 
ATOM     14  N   UNL     1      -1.184  -3.994   2.303  0.00  0.00    -0.110 NA
ATOM     15  N   UNL     1      -1.798  -3.777   3.543  0.00  0.00    -0.119 NA
ATOM     16  C   UNL     1      -1.880  -2.483   3.734  0.00  0.00    +0.210 A 
ATOM     17  H   UNL     1      -0.772   0.027   2.845  0.00  0.00    +0.170 HD
ENDROOT
BRANCH  16  18
ATOM     18  S   UNL     1      -2.582  -1.688   5.142  0.00  0.00    -0.077 S 
BRANCH  18  19
ATOM     19  C   UNL     1      -3.100  -3.060   6.208  0.00  0.00    +0.151 C 
BRANCH  19  20
ATOM     20  C   UNL     1      -3.725  -2.511   7.465  0.00  0.00    +0.118 A 
ATOM     21  N   UNL     1      -3.048  -2.216   8.607  0.00  0.00    -0.341 N 
ATOM     22  H   UNL     1      -2.095  -2.319   8.754  0.00  0.00    +0.167 HD
ATOM     23  C   UNL     1      -3.970  -1.741   9.519  0.00  0.00    +0.066 A 
ATOM     24  C   UNL     1      -3.889  -1.289  10.829  0.00  0.00    +0.028 A 
ATOM     25  C   UNL     1      -5.030  -0.871  11.479  0.00  0.00    +0.002 A 
ATOM     26  C   UNL     1      -6.258  -0.901  10.833  0.00  0.00    +0.002 A 
ATOM     27  C   UNL     1      -6.357  -1.343   9.545  0.00  0.00    +0.030 A 
ATOM     28  C   UNL     1      -5.213  -1.771   8.866  0.00  0.00    +0.089 A 
ATOM     29  N   UNL     1      -4.990  -2.246   7.613  0.00  0.00    -0.232 NA
ENDBRANCH  19  20
ENDBRANCH  18  19
ENDBRANCH  16  18
TORSDOF 3
