REMARK  Name = ZINC36488131
REMARK  13 active torsions:
REMARK  status: ('A' for Active; 'I' for Inactive)
REMARK    1  A    between atoms: C_1  and  C_2
REMARK    2  A    between atoms: C_6  and  N_9
REMARK    3  A    between atoms: C_7  and  C_8
REMARK    4  A    between atoms: C_10  and  C_12
REMARK    5  A    between atoms: C_12  and  C_13
REMARK    6  A    between atoms: C_12  and  S_14
REMARK    7  A    between atoms: S_14  and  C_15
REMARK    8  A    between atoms: C_19  and  C_21
REMARK    9  A    between atoms: C_21  and  C_22
REMARK   10  A    between atoms: C_21  and  C_23
REMARK   11  A    between atoms: C_21  and  C_24
REMARK   12  A    between atoms: N_25  and  C_32
REMARK   13  A    between atoms: N_28  and  C_31
REMARK                            x       y       z     vdW  Elec       q    Type
REMARK                         _______ _______ _______ _____ _____    ______ ____
ROOT
ATOM      1  C   UNL     1      -3.957  -6.568   1.733  0.00  0.00    +0.116 A 
ATOM      2  C   UNL     1      -4.348  -7.914   1.798  0.00  0.00    +0.114 A 
ATOM      3  C   UNL     1      -5.714  -8.229   1.674  0.00  0.00    +0.154 A 
ATOM      4  N   UNL     1      -6.584  -7.244   1.500  0.00  0.00    -0.213 NA
ATOM      5  C   UNL     1      -6.174  -5.990   1.444  0.00  0.00    +0.138 A 
ATOM      6  N   UNL     1      -4.907  -5.647   1.561  0.00  0.00    -0.224 NA
ATOM      7  N   UNL     1      -6.097  -9.551   1.739  0.00  0.00    -0.281 N 
ATOM      8  C   UNL     1      -5.183 -10.521   1.917  0.00  0.00    +0.333 A 
ATOM      9  O   UNL     1      -5.562 -11.675   1.969  0.00  0.00    -0.246 OA
ATOM     10  N   UNL     1      -3.870 -10.271   2.041  0.00  0.00    -0.263 N 
ATOM     11  C   UNL     1      -3.391  -9.008   1.992  0.00  0.00    +0.268 A 
ATOM     12  O   UNL     1      -2.200  -8.785   2.104  0.00  0.00    -0.267 OA
ATOM     13  C   UNL     1      -2.940 -11.386   2.234  0.00  0.00    +0.157 C 
ATOM     14  C   UNL     1      -7.513  -9.903   1.612  0.00  0.00    +0.155 C 
ENDROOT
BRANCH   5  15
ATOM     15  C   UNL     1      -7.200  -4.904   1.244  0.00  0.00    +0.022 C 
ATOM     16  C   UNL     1      -8.206  -4.934   2.397  0.00  0.00    +0.019 C 
ATOM     17  C   UNL     1      -6.502  -3.543   1.212  0.00  0.00    +0.019 C 
ATOM     18  C   UNL     1      -7.933  -5.133  -0.079  0.00  0.00    +0.019 C 
ENDBRANCH   5  15
BRANCH   1  19
ATOM     19  S   UNL     1      -2.263  -6.106   1.883  0.00  0.00    -0.093 S 
BRANCH  19  20
ATOM     20  C   UNL     1      -2.287  -4.298   1.743  0.00  0.00    +0.135 C 
ATOM     21  C   UNL     1      -3.040  -3.704   2.936  0.00  0.00    +0.029 C 
BRANCH  20  23
ATOM     22  N   UNL     1      -0.612  -2.548   1.244  0.00  0.00    -0.311 N 
ATOM     23  C   UNL     1      -0.873  -3.776   1.733  0.00  0.00    +0.226 C 
ATOM     24  O   UNL     1       0.030  -4.462   2.164  0.00  0.00    -0.275 OA
ATOM     25  H   UNL     1      -1.333  -2.000   0.898  0.00  0.00    +0.149 HD
BRANCH  22  31
ATOM     26  C   UNL     1      -0.019   1.526   0.010  0.00  0.00    +0.008 C 
ATOM     27  C   UNL     1       0.002  -0.004   0.002  0.00  0.00    -0.009 C 
ATOM     28  C   UNL     1       0.718  -0.497  -1.257  0.00  0.00    +0.003 C 
ATOM     29  C   UNL     1       0.739  -2.027  -1.265  0.00  0.00    +0.002 C 
ATOM     30  C   UNL     1       1.479  -2.534  -0.026  0.00  0.00    +0.022 C 
ATOM     31  C   UNL     1       0.763  -2.041   1.233  0.00  0.00    +0.076 C 
ATOM     32  C   UNL     1       0.742  -0.511   1.242  0.00  0.00    +0.009 C 
ATOM     33  C   UNL     1       0.026  -0.018   2.500  0.00  0.00    +0.009 C 
ENDBRANCH  22  31
ENDBRANCH  20  23
ENDBRANCH  19  20
ENDBRANCH   1  19
TORSDOF 5
