REMARK  Name = ZINC21092933
REMARK  7 active torsions:
REMARK  status: ('A' for Active; 'I' for Inactive)
REMARK    1  A    between atoms: C_1  and  C_2
REMARK    2  A    between atoms: C_3  and  C_7
REMARK    3  A    between atoms: C_10  and  S_13
REMARK    4  A    between atoms: N_11  and  N_12
REMARK    5  A    between atoms: S_13  and  C_14
REMARK    6  A    between atoms: C_14  and  C_15
REMARK    7  A    between atoms: N_17  and  C_18
REMARK                            x       y       z     vdW  Elec       q    Type
REMARK                         _______ _______ _______ _____ _____    ______ ____
ROOT
ATOM      1  S   UNL     1      -7.364   1.420   2.569  0.00  0.00    -0.075 S 
ENDROOT
BRANCH   1   5
ATOM      2  C   UNL     1     -11.025   0.054   2.570  0.00  0.00    +0.185 A 
ATOM      3  N   UNL     1     -10.534  -0.436   1.456  0.00  0.00    -0.127 NA
ATOM      4  N   UNL     1      -9.312  -0.066   1.315  0.00  0.00    -0.121 NA
ATOM      5  C   UNL     1      -8.947   0.684   2.329  0.00  0.00    +0.209 A 
ATOM      6  N   UNL     1     -10.023   0.782   3.167  0.00  0.00    -0.224 N 
BRANCH   2   9
ATOM      7  C   UNL     1     -13.306  -1.608   1.205  0.00  0.00    +0.087 C 
ATOM      8  C   UNL     1     -13.397  -0.861   2.510  0.00  0.00    +0.112 A 
ATOM      9  C   UNL     1     -12.396  -0.144   3.089  0.00  0.00    +0.061 A 
ATOM     10  C   UNL     1     -12.961   0.397   4.332  0.00  0.00    +0.053 A 
ATOM     11  C   UNL     1     -14.229  -0.043   4.385  0.00  0.00    +0.196 A 
ATOM     12  O   UNL     1     -14.478  -0.792   3.300  0.00  0.00    -0.467 OA
ENDBRANCH   2   9
BRANCH   6  13
ATOM     13  N   UNL     1     -10.089   1.464   4.349  0.00  0.00    -0.295 N 
ATOM     14  H   UNL     1      -9.209   2.011   4.719  0.00  0.00    +0.163 HD
ATOM     15  H   UNL     1     -11.022   1.466   4.931  0.00  0.00    +0.163 HD
ENDBRANCH   6  13
ENDBRANCH   1   5
BRANCH   1  16
ATOM     16  C   UNL     1      -6.517   0.837   1.080  0.00  0.00    +0.173 C 
BRANCH  16  17
ATOM     17  C   UNL     1      -5.103   1.358   1.069  0.00  0.00    +0.224 C 
ATOM     18  O   UNL     1      -4.707   2.056   1.979  0.00  0.00    -0.275 OA
ATOM     19  N   UNL     1      -4.279   1.049   0.049  0.00  0.00    -0.309 N 
ATOM     20  H   UNL     1      -4.638   0.417  -0.776  0.00  0.00    +0.149 HD
BRANCH  19  21
ATOM     21  C   UNL     1      -2.904   1.556   0.038  0.00  0.00    +0.035 C 
ATOM     22  C   UNL     1      -2.188   1.063  -1.221  0.00  0.00    +0.029 C 
ATOM     23  C   UNL     1      -0.753   1.593  -1.232  0.00  0.00    -0.008 C 
ATOM     24  C   UNL     1      -0.013   1.086   0.008  0.00  0.00    +0.007 C 
ATOM     25  C   UNL     1      -0.729   1.579   1.267  0.00  0.00    -0.008 C 
ATOM     26  C   UNL     1      -2.164   1.050   1.278  0.00  0.00    +0.029 C 
ATOM     27  C   UNL     1      -0.750   3.109   1.275  0.00  0.00    +0.007 C 
ATOM     28  C   UNL     1      -1.490   3.616   0.036  0.00  0.00    -0.008 C 
ATOM     29  C   UNL     1      -0.773   3.123  -1.223  0.00  0.00    +0.007 C 
ATOM     30  C   UNL     1      -2.925   3.086   0.047  0.00  0.00    +0.029 C 
ENDBRANCH  19  21
ENDBRANCH  16  17
ENDBRANCH   1  16
TORSDOF 6
