REMARK  Name = ZINC36610078
REMARK  9 active torsions:
REMARK  status: ('A' for Active; 'I' for Inactive)
REMARK    1  A    between atoms: C_4  and  N_7
REMARK    2  A    between atoms: N_7  and  C_8
REMARK    3  A    between atoms: C_8  and  C_10
REMARK    4  A    between atoms: C_8  and  C_17
REMARK    5  A    between atoms: C_15  and  O_16
REMARK    6  A    between atoms: N_19  and  C_20
REMARK    7  A    between atoms: C_26  and  C_28
REMARK    8  A    between atoms: C_29  and  O_35
REMARK    9  A    between atoms: C_33  and  O_34
REMARK                            x       y       z     vdW  Elec       q    Type
REMARK                         _______ _______ _______ _____ _____    ______ ____
ROOT
ATOM      1  N   UNL     1       3.300  -1.149   0.405  0.00  0.00    -0.251 N 
ATOM      2  C   UNL     1       4.240  -0.452   1.074  0.00  0.00    +0.259 C 
ATOM      3  O   UNL     1       5.256  -1.006   1.448  0.00  0.00    -0.269 OA
ENDROOT
BRANCH   1   7
ATOM      4  C   UNL     1      -0.046   0.805  -1.125  0.00  0.00    +0.000 A 
ATOM      5  C   UNL     1       1.212   1.109  -1.610  0.00  0.00    +0.002 A 
ATOM      6  C   UNL     1       2.324   0.463  -1.105  0.00  0.00    +0.023 A 
ATOM      7  C   UNL     1       2.176  -0.493  -0.108  0.00  0.00    +0.038 A 
ATOM      8  C   UNL     1       0.911  -0.796   0.377  0.00  0.00    +0.023 A 
ATOM      9  C   UNL     1      -0.196  -0.146  -0.132  0.00  0.00    +0.002 A 
ENDBRANCH   1   7
BRANCH   2  10
ATOM     10  C   UNL     1       4.037   0.979   1.352  0.00  0.00    +0.120 A 
ATOM     11  C   UNL     1       3.282   1.383   2.462  0.00  0.00    +0.133 A 
ATOM     12  C   UNL     1       3.097   2.733   2.715  0.00  0.00    +0.046 A 
ATOM     13  C   UNL     1       3.655   3.680   1.876  0.00  0.00    +0.007 A 
ATOM     14  C   UNL     1       4.401   3.293   0.778  0.00  0.00    +0.046 A 
ATOM     15  C   UNL     1       4.603   1.949   0.511  0.00  0.00    +0.133 A 
BRANCH  15  16
ATOM     16  O   UNL     1       5.340   1.572  -0.564  0.00  0.00    -0.506 OA
ATOM     17  H   UNL     1       4.840   1.533  -1.390  0.00  0.00    +0.292 HD
ENDBRANCH  15  16
BRANCH  11  18
ATOM     18  O   UNL     1       2.733   0.456   3.286  0.00  0.00    -0.506 OA
ATOM     19  H   UNL     1       3.306   0.194   4.020  0.00  0.00    +0.292 HD
ENDBRANCH  11  18
ENDBRANCH   2  10
BRANCH   1  20
ATOM     20  C   UNL     1       3.454  -2.593   0.216  0.00  0.00    +0.201 C 
BRANCH  20  21
ATOM     21  C   UNL     1       3.129  -3.306   1.504  0.00  0.00    +0.024 A 
ATOM     22  C   UNL     1       2.354  -2.682   2.462  0.00  0.00    +0.009 A 
ATOM     23  C   UNL     1       2.055  -3.335   3.644  0.00  0.00    +0.001 A 
ATOM     24  C   UNL     1       2.530  -4.614   3.869  0.00  0.00    +0.004 A 
ATOM     25  C   UNL     1       3.305  -5.242   2.913  0.00  0.00    +0.046 A 
ATOM     26  C   UNL     1       3.602  -4.591   1.724  0.00  0.00    +0.122 A 
BRANCH  26  27
ATOM     27  O   UNL     1       4.359  -5.209   0.780  0.00  0.00    -0.506 OA
ATOM     28  H   UNL     1       5.309  -5.055   0.876  0.00  0.00    +0.292 HD
ENDBRANCH  26  27
ENDBRANCH  20  21
BRANCH  20  29
ATOM     29  C   UNL     1       2.518  -3.061  -0.868  0.00  0.00    +0.239 C 
ATOM     30  O   UNL     1       1.911  -2.251  -1.536  0.00  0.00    -0.273 OA
ATOM     31  N   UNL     1       2.354  -4.380  -1.094  0.00  0.00    -0.311 N 
ATOM     32  H   UNL     1       2.840  -5.027  -0.559  0.00  0.00    +0.149 HD
BRANCH  31  33
ATOM     33  C   UNL     1       1.444  -4.834  -2.148  0.00  0.00    +0.073 C 
ATOM     34  C   UNL     1       0.019  -4.902  -1.597  0.00  0.00    +0.022 C 
ATOM     35  C   UNL     1      -0.932  -5.377  -2.697  0.00  0.00    +0.002 C 
ATOM     36  C   UNL     1      -0.504  -6.766  -3.176  0.00  0.00    +0.000 C 
ATOM     37  C   UNL     1       0.921  -6.698  -3.728  0.00  0.00    +0.002 C 
ATOM     38  C   UNL     1       1.872  -6.223  -2.627  0.00  0.00    +0.022 C 
ENDBRANCH  31  33
ENDBRANCH  20  29
ENDBRANCH   1  20
TORSDOF 9
