REMARK  Name = ZINC59587446
REMARK  10 active torsions:
REMARK  status: ('A' for Active; 'I' for Inactive)
REMARK    1  A    between atoms: C_1  and  O_2
REMARK    2  A    between atoms: O_2  and  C_3
REMARK    3  A    between atoms: C_5  and  C_19
REMARK    4  A    between atoms: C_8  and  O_9
REMARK    5  A    between atoms: O_9  and  C_10
REMARK    6  A    between atoms: C_10  and  C_11
REMARK    7  A    between atoms: C_19  and  N_20
REMARK    8  A    between atoms: N_20  and  C_21
REMARK    9  A    between atoms: N_24  and  C_27
REMARK   10  A    between atoms: C_27  and  C_28
REMARK                            x       y       z     vdW  Elec       q    Type
REMARK                         _______ _______ _______ _____ _____    ______ ____
ROOT
ATOM      1  C   UNL     1       0.606  -0.608  -1.056  0.00  0.00    +0.163 A 
ATOM      2  C   UNL     1       1.173   0.159  -2.062  0.00  0.00    +0.054 A 
ATOM      3  C   UNL     1       1.786  -0.455  -3.138  0.00  0.00    -0.029 A 
ATOM      4  C   UNL     1       1.836  -1.835  -3.214  0.00  0.00    +0.024 A 
ATOM      5  C   UNL     1       1.273  -2.606  -2.213  0.00  0.00    +0.063 A 
ATOM      6  C   UNL     1       0.662  -1.996  -1.129  0.00  0.00    +0.176 A 
ATOM      7 BR   UNL     1       1.342  -4.493  -2.321  0.00  0.00    -0.046 Br
ENDROOT
BRANCH   1   9
ATOM      8  C   UNL     1      -0.017   1.425   0.010  0.00  0.00    +0.277 C 
ATOM      9  O   UNL     1       0.002  -0.004   0.002  0.00  0.00    -0.491 OA
ENDBRANCH   1   9
BRANCH   6  10
ATOM     10  O   UNL     1       0.112  -2.752  -0.141  0.00  0.00    -0.483 OA
BRANCH  10  11
ATOM     11  C   UNL     1      -1.259  -3.125  -0.296  0.00  0.00    +0.264 C 
BRANCH  11  12
ATOM     12  C   UNL     1      -1.691  -3.954   0.885  0.00  0.00    -0.010 A 
ATOM     13  C   UNL     1      -1.548  -5.329   0.854  0.00  0.00    +0.010 A 
ATOM     14  C   UNL     1      -1.944  -6.090   1.937  0.00  0.00    +0.039 A 
ATOM     15  C   UNL     1      -2.483  -5.476   3.054  0.00  0.00    +0.123 A 
ATOM     16  C   UNL     1      -2.626  -4.099   3.085  0.00  0.00    +0.039 A 
ATOM     17  C   UNL     1      -2.225  -3.339   2.003  0.00  0.00    +0.010 A 
ATOM     18  F   UNL     1      -2.870  -6.219   4.114  0.00  0.00    -0.205 F 
ENDBRANCH  11  12
ENDBRANCH  10  11
ENDBRANCH   6  10
BRANCH   3  19
ATOM     19  C   UNL     1       2.401   0.380  -4.231  0.00  0.00    +0.116 C 
BRANCH  19  20
ATOM     20  N   UNL     1       3.806   0.659  -3.903  0.00  0.00    -0.309 NA
ATOM     21  H   UNL     1       3.885   1.103  -3.000  0.00  0.00    +0.123 HD
BRANCH  20  22
ATOM     22  C   UNL     1       4.439   1.473  -4.948  0.00  0.00    +0.050 C 
ATOM     23  C   UNL     1       4.959   0.561  -6.063  0.00  0.00    -0.000 C 
ATOM     24  C   UNL     1       5.687   1.408  -7.109  0.00  0.00    -0.077 C 
ATOM     25  N   UNL     1       6.815   2.106  -6.481  0.00  0.00    +0.382 N 
ATOM     26  C   UNL     1       6.318   3.036  -5.459  0.00  0.00    -0.077 C 
ATOM     27  C   UNL     1       5.614   2.252  -4.349  0.00  0.00    -0.000 C 
ATOM     28  H   UNL     1       7.429   1.431  -6.050  0.00  0.00    -0.081 HD
BRANCH  25  29
ATOM     29  C   UNL     1       7.557   2.856  -7.503  0.00  0.00    -0.043 C 
BRANCH  29  30
ATOM     30  C   UNL     1       8.784   3.473  -6.883  0.00  0.00    -0.064 A 
ATOM     31  C   UNL     1       8.716   4.737  -6.328  0.00  0.00    +0.002 A 
ATOM     32  C   UNL     1       9.842   5.303  -5.759  0.00  0.00    +0.000 A 
ATOM     33  C   UNL     1      11.034   4.604  -5.744  0.00  0.00    +0.000 A 
ATOM     34  C   UNL     1      11.102   3.339  -6.298  0.00  0.00    +0.000 A 
ATOM     35  C   UNL     1       9.975   2.772  -6.863  0.00  0.00    +0.002 A 
ENDBRANCH  29  30
ENDBRANCH  25  29
ENDBRANCH  20  22
ENDBRANCH  19  20
ENDBRANCH   3  19
TORSDOF 9
