REMARK  Name = ZINC10055256
REMARK  8 active torsions:
REMARK  status: ('A' for Active; 'I' for Inactive)
REMARK    1  A    between atoms: C_1  and  C_2
REMARK    2  A    between atoms: N_10  and  C_14
REMARK    3  A    between atoms: C_14  and  C_15
REMARK    4  A    between atoms: C_15  and  O_17
REMARK    5  A    between atoms: O_17  and  C_18
REMARK    6  A    between atoms: C_18  and  C_19
REMARK    7  A    between atoms: N_21  and  C_22
REMARK    8  A    between atoms: N_21  and  C_28
REMARK                            x       y       z     vdW  Elec       q    Type
REMARK                         _______ _______ _______ _____ _____    ______ ____
ROOT
ATOM      1  C   UNL     1       3.722  -6.099  -1.532  0.00  0.00    +0.326 C 
ATOM      2  O   UNL     1       3.167  -5.473  -2.404  0.00  0.00    -0.249 OA
ENDROOT
BRANCH   1   3
ATOM      3  C   UNL     1       3.880  -5.500  -0.158  0.00  0.00    +0.238 C 
BRANCH   3  13
ATOM      4  C   UNL     1       0.137   1.562   0.112  0.00  0.00    +0.007 C 
ATOM      5  C   UNL     1       0.266   0.042   0.233  0.00  0.00    -0.014 C 
ATOM      6  C   UNL     1       0.684  -0.543  -1.117  0.00  0.00    +0.006 C 
ATOM      7  C   UNL     1       0.802  -2.065  -0.998  0.00  0.00    +0.035 C 
ATOM      8  C   UNL     1       1.836  -2.413   0.068  0.00  0.00    +0.113 C 
ATOM      9  C   UNL     1       1.443  -1.818   1.416  0.00  0.00    +0.035 C 
ATOM     10  C   UNL     1       1.322  -0.297   1.287  0.00  0.00    +0.006 C 
ATOM     11  C   UNL     1       1.994  -3.912   0.179  0.00  0.00    +0.247 C 
ATOM     12  O   UNL     1       1.144  -4.720   0.487  0.00  0.00    -0.273 OA
ATOM     13  N   UNL     1       3.282  -4.163  -0.137  0.00  0.00    -0.213 N 
ATOM     14  C   UNL     1       3.946  -3.037  -0.428  0.00  0.00    +0.310 C 
ATOM     15  O   UNL     1       5.120  -3.007  -0.742  0.00  0.00    -0.252 OA
ATOM     16  N   UNL     1       3.167  -1.942  -0.333  0.00  0.00    -0.285 N 
ATOM     17  H   UNL     1       3.433  -1.024  -0.498  0.00  0.00    +0.151 HD
ENDBRANCH   3  13
ENDBRANCH   1   3
BRANCH   1  18
ATOM     18  O   UNL     1       4.198  -7.328  -1.786  0.00  0.00    -0.454 OA
BRANCH  18  19
ATOM     19  C   UNL     1       4.013  -7.834  -3.110  0.00  0.00    +0.327 C 
BRANCH  19  20
ATOM     20  C   UNL     1       4.607  -9.215  -3.208  0.00  0.00    +0.254 C 
ATOM     21  O   UNL     1       4.982  -9.786  -2.205  0.00  0.00    -0.272 OA
ATOM     22  N   UNL     1       4.722  -9.816  -4.408  0.00  0.00    -0.293 N 
BRANCH  22  23
ATOM     23  C   UNL     1       5.140 -11.218  -4.489  0.00  0.00    +0.076 C 
ATOM     24  C   UNL     1       4.140 -12.093  -3.731  0.00  0.00    +0.022 C 
ATOM     25  C   UNL     1       4.577 -13.557  -3.816  0.00  0.00    +0.002 C 
ATOM     26  C   UNL     1       5.965 -13.712  -3.191  0.00  0.00    +0.000 C 
ATOM     27  C   UNL     1       6.966 -12.836  -3.949  0.00  0.00    +0.002 C 
ATOM     28  C   UNL     1       6.529 -11.372  -3.864  0.00  0.00    +0.022 C 
ENDBRANCH  22  23
BRANCH  22  29
ATOM     29  C   UNL     1       4.428  -9.068  -5.633  0.00  0.00    +0.076 C 
ATOM     30  C   UNL     1       5.449  -7.941  -5.800  0.00  0.00    +0.022 C 
ATOM     31  C   UNL     1       5.142  -7.160  -7.079  0.00  0.00    +0.002 C 
ATOM     32  C   UNL     1       3.736  -6.564  -6.987  0.00  0.00    +0.000 C 
ATOM     33  C   UNL     1       2.715  -7.691  -6.821  0.00  0.00    +0.002 C 
ATOM     34  C   UNL     1       3.022  -8.472  -5.542  0.00  0.00    +0.022 C 
ENDBRANCH  22  29
ENDBRANCH  19  20
ENDBRANCH  18  19
ENDBRANCH   1  18
TORSDOF 7
