REMARK  Name = ZINC11821044
REMARK  11 active torsions:
REMARK  status: ('A' for Active; 'I' for Inactive)
REMARK    1  A    between atoms: C_3  and  C_7
REMARK    2  A    between atoms: C_7  and  N_71
REMARK    3  A    between atoms: C_8  and  C_9
REMARK    4  A    between atoms: C_8  and  N_71
REMARK    5  A    between atoms: C_12  and  C_15
REMARK    6  A    between atoms: C_16  and  C_17
REMARK    7  A    between atoms: C_17  and  C_18
REMARK    8  A    between atoms: C_18  and  O_19
REMARK    9  A    between atoms: C_20  and  C_21
REMARK   10  A    between atoms: C_20  and  N_71
REMARK   11  A    between atoms: C_27  and  N_73
REMARK                            x       y       z     vdW  Elec       q    Type
REMARK                         _______ _______ _______ _____ _____    ______ ____
ROOT
ATOM      1  N   UNL     1       2.646   4.161  -1.445  0.00  0.00    +0.385 N 
ATOM      2  H   UNL     1       1.975   4.576  -2.102  0.00  0.00    -0.081 HD
ENDROOT
BRANCH   1   3
ATOM      3  C   UNL     1       1.969   3.922  -0.154  0.00  0.00    -0.041 C 
BRANCH   3   6
ATOM      4  C   UNL     1      -0.739   1.332  -0.598  0.00  0.00    +0.020 A 
ATOM      5  C   UNL     1       0.505   1.890  -0.346  0.00  0.00    +0.005 A 
ATOM      6  C   UNL     1       0.637   3.268  -0.419  0.00  0.00    -0.046 A 
ATOM      7  C   UNL     1      -0.468   4.034  -0.739  0.00  0.00    +0.112 A 
ATOM      8  N   UNL     1      -1.636   3.469  -0.973  0.00  0.00    -0.263 NA
ATOM      9  C   UNL     1      -1.797   2.162  -0.918  0.00  0.00    +0.111 A 
ENDBRANCH   3   6
ENDBRANCH   1   3
BRANCH   1  10
ATOM     10  C   UNL     1       3.776   5.095  -1.258  0.00  0.00    -0.043 C 
BRANCH  10  11
ATOM     11  C   UNL     1       3.229   6.453  -0.901  0.00  0.00    -0.064 A 
ATOM     12  C   UNL     1       2.923   7.357  -1.902  0.00  0.00    +0.003 A 
ATOM     13  C   UNL     1       2.417   8.600  -1.582  0.00  0.00    +0.017 A 
ATOM     14  C   UNL     1       2.225   8.949  -0.244  0.00  0.00    +0.025 A 
ATOM     15  C   UNL     1       2.542   8.035   0.761  0.00  0.00    +0.017 A 
ATOM     16  C   UNL     1       3.042   6.793   0.427  0.00  0.00    +0.003 A 
BRANCH  14  17
ATOM     17  C   UNL     1       1.705  10.239   0.095  0.00  0.00    -0.066 C 
ATOM     18  C   UNL     1       1.279  11.297   0.373  0.00  0.00    -0.095 C 
BRANCH  18  19
ATOM     19  C   UNL     1       0.745  12.624   0.722  0.00  0.00    +0.117 C 
BRANCH  19  20
ATOM     20  C   UNL     1       0.485  13.422  -0.557  0.00  0.00    +0.168 C 
BRANCH  20  21
ATOM     21  O   UNL     1      -0.034  14.709  -0.219  0.00  0.00    -0.394 OA
ATOM     22  H   UNL     1      -0.222  15.271  -0.983  0.00  0.00    +0.209 HD
ENDBRANCH  20  21
ENDBRANCH  19  20
ENDBRANCH  18  19
ENDBRANCH  14  17
ENDBRANCH  10  11
ENDBRANCH   1  10
BRANCH   1  23
ATOM     23  C   UNL     1       3.135   2.882  -2.003  0.00  0.00    -0.076 C 
BRANCH  23  24
ATOM     24  C   UNL     1       3.492   3.094  -3.476  0.00  0.00    -0.044 C 
ATOM     25  C   UNL     1       2.237   3.502  -4.253  0.00  0.00    -0.002 C 
ATOM     26  C   UNL     1       2.591   3.652  -5.735  0.00  0.00    -0.018 C 
ATOM     27  C   UNL     1       3.171   2.334  -6.253  0.00  0.00    -0.078 C 
ATOM     28  C   UNL     1       4.047   1.792  -4.059  0.00  0.00    -0.077 C 
ATOM     29  N   UNL     1       4.389   2.010  -5.481  0.00  0.00    +0.382 N 
ATOM     30  H   UNL     1       5.045   2.797  -5.548  0.00  0.00    -0.081 HD
BRANCH  29  31
ATOM     31  C   UNL     1       5.032   0.801  -6.036  0.00  0.00    -0.069 C 
ATOM     32  C   UNL     1       5.423   1.072  -7.490  0.00  0.00    -0.015 C 
ATOM     33  C   UNL     1       6.113  -0.164  -8.072  0.00  0.00    -0.002 C 
ATOM     34  C   UNL     1       5.156  -1.356  -8.014  0.00  0.00    -0.000 C 
ATOM     35  C   UNL     1       4.765  -1.627  -6.560  0.00  0.00    -0.002 C 
ATOM     36  C   UNL     1       4.075  -0.391  -5.979  0.00  0.00    -0.015 C 
ENDBRANCH  29  31
ENDBRANCH  23  24
ENDBRANCH   1  23
TORSDOF 11
