REMARK  Name = ZINC63708078
REMARK  6 active torsions:
REMARK  status: ('A' for Active; 'I' for Inactive)
REMARK    1  A    between atoms: C_7  and  C_10
REMARK    2  A    between atoms: C_10  and  C_11
REMARK    3  A    between atoms: C_11  and  C_12
REMARK    4  A    between atoms: C_22  and  S_26
REMARK    5  A    between atoms: S_26  and  C_27
REMARK    6  A    between atoms: C_27  and  C_28
REMARK                            x       y       z     vdW  Elec       q    Type
REMARK                         _______ _______ _______ _____ _____    ______ ____
ROOT
ATOM      1  C   UNL     1      -0.484  -4.830  -1.460  0.00  0.00    +0.090 C 
ATOM      2  N   UNL     1      -0.126  -6.088  -1.373  0.00  0.00    -0.332 N 
ATOM      3  C   UNL     1      -1.205  -6.879  -1.400  0.00  0.00    +0.128 C 
ATOM      4  C   UNL     1      -1.366  -8.277  -1.337  0.00  0.00    +0.038 A 
ATOM      5  C   UNL     1      -0.249  -9.122  -1.223  0.00  0.00    +0.013 A 
ATOM      6  C   UNL     1      -0.424 -10.471  -1.164  0.00  0.00    +0.001 A 
ATOM      7  C   UNL     1      -1.692 -11.046  -1.213  0.00  0.00    +0.002 A 
ATOM      8  C   UNL     1      -2.814 -10.286  -1.323  0.00  0.00    +0.026 A 
ATOM      9  C   UNL     1      -2.702  -8.880  -1.389  0.00  0.00    +0.048 A 
ATOM     10  N   UNL     1      -3.785  -8.122  -1.496  0.00  0.00    -0.356 N 
ATOM     11  C   UNL     1      -3.644  -6.662  -1.563  0.00  0.00    +0.248 C 
ATOM     12  N   UNL     1      -2.307  -6.072  -1.511  0.00  0.00    -0.204 N 
ATOM     13  N   UNL     1      -1.831  -4.755  -1.543  0.00  0.00    -0.249 N 
ATOM     14  H   UNL     1      -2.364  -3.947  -1.613  0.00  0.00    +0.171 HD
ATOM     15  H   UNL     1      -4.664  -8.529  -1.530  0.00  0.00    +0.162 HD
ATOM     16  H   UNL     1       0.790  -6.400  -1.300  0.00  0.00    +0.168 HD
ENDROOT
BRANCH   1  17
ATOM     17  C   UNL     1       0.457  -3.653  -1.462  0.00  0.00    +0.075 C 
BRANCH  17  18
ATOM     18  C   UNL     1       0.691  -3.186  -0.024  0.00  0.00    +0.040 C 
BRANCH  18  25
ATOM     19  C   UNL     1      -0.016   1.348   0.009  0.00  0.00    +0.001 A 
ATOM     20  C   UNL     1       1.166   2.101   0.002  0.00  0.00    +0.002 A 
ATOM     21  C   UNL     1       2.391   1.535  -0.013  0.00  0.00    +0.026 A 
ATOM     22  C   UNL     1       2.529   0.120  -0.022  0.00  0.00    +0.043 A 
ATOM     23  N   UNL     1       3.587  -0.654  -0.037  0.00  0.00    -0.380 N 
ATOM     24  C   UNL     1       3.143  -2.053  -0.041  0.00  0.00    +0.144 C 
ATOM     25  C   UNL     1       1.631  -2.008  -0.025  0.00  0.00    -0.041 C 
ATOM     26  C   UNL     1       1.295  -0.698  -0.014  0.00  0.00    -0.001 A 
ATOM     27  C   UNL     1       0.002  -0.004   0.002  0.00  0.00    +0.010 A 
ATOM     28  H   UNL     1       4.509  -0.353  -0.045  0.00  0.00    +0.160 HD
ENDBRANCH  18  25
ENDBRANCH  17  18
ENDBRANCH   1  17
BRANCH  11  29
ATOM     29  S   UNL     1      -4.604  -5.958  -0.195  0.00  0.00    -0.109 S 
BRANCH  29  30
ATOM     30  C   UNL     1      -3.843  -6.674   1.288  0.00  0.00    +0.128 C 
BRANCH  30  31
ATOM     31  C   UNL     1      -4.556  -6.164   2.514  0.00  0.00    +0.059 A 
ATOM     32  C   UNL     1      -5.421  -6.991   3.204  0.00  0.00    +0.094 A 
ATOM     33  C   UNL     1      -6.071  -6.495   4.340  0.00  0.00    +0.259 A 
ATOM     34  O   UNL     1      -6.842  -7.201   4.971  0.00  0.00    -0.267 OA
ATOM     35  N   UNL     1      -5.832  -5.224   4.726  0.00  0.00    -0.268 N 
ATOM     36  C   UNL     1      -6.457  -4.726   5.830  0.00  0.00    +0.096 A 
ATOM     37  C   UNL     1      -6.234  -3.457   6.237  0.00  0.00    +0.018 A 
ATOM     38  C   UNL     1      -5.352  -2.633   5.523  0.00  0.00    +0.005 A 
ATOM     39  C   UNL     1      -4.722  -3.121   4.418  0.00  0.00    +0.047 A 
ATOM     40  C   UNL     1      -4.966  -4.445   4.010  0.00  0.00    +0.140 A 
ATOM     41  N   UNL     1      -4.348  -4.926   2.933  0.00  0.00    -0.233 NA
ENDBRANCH  30  31
ENDBRANCH  29  30
ENDBRANCH  11  29
TORSDOF 6
