REMARK  Name = ZINC12002902
REMARK  7 active torsions:
REMARK  status: ('A' for Active; 'I' for Inactive)
REMARK    1  A    between atoms: C_1  and  O_2
REMARK    2  A    between atoms: O_2  and  C_3
REMARK    3  A    between atoms: C_5  and  N_29
REMARK    4  A    between atoms: C_18  and  C_19
REMARK    5  A    between atoms: C_18  and  N_66
REMARK    6  A    between atoms: C_30  and  C_32
REMARK    7  A    between atoms: C_32  and  C_33
REMARK                            x       y       z     vdW  Elec       q    Type
REMARK                         _______ _______ _______ _____ _____    ______ ____
ROOT
ATOM      1  C   UNL     1      -6.282   0.331   3.138  0.00  0.00    +0.153 C 
ATOM      2  C   UNL     1      -4.739   0.344   3.073  0.00  0.00    +0.133 C 
ATOM      3  C   UNL     1      -4.309  -1.014   3.587  0.00  0.00    -0.021 A 
ATOM      4  C   UNL     1      -3.076  -1.452   4.040  0.00  0.00    +0.006 A 
ATOM      5  C   UNL     1      -2.915  -2.755   4.469  0.00  0.00    +0.000 A 
ATOM      6  C   UNL     1      -3.989  -3.626   4.445  0.00  0.00    +0.000 A 
ATOM      7  C   UNL     1      -5.219  -3.192   3.992  0.00  0.00    +0.004 A 
ATOM      8  C   UNL     1      -5.383  -1.885   3.562  0.00  0.00    -0.034 A 
ATOM      9  C   UNL     1      -6.602  -1.171   3.029  0.00  0.00    +0.021 C 
ATOM     10  C   UNL     1      -7.828  -1.507   3.874  0.00  0.00    -0.005 C 
ATOM     11  C   UNL     1      -9.053  -0.794   3.294  0.00  0.00    -0.077 C 
ATOM     12  C   UNL     1      -8.101  -0.834   1.064  0.00  0.00    -0.077 C 
ATOM     13  C   UNL     1      -6.844  -1.548   1.570  0.00  0.00    -0.005 C 
ATOM     14  N   UNL     1      -9.251  -1.242   1.898  0.00  0.00    +0.383 N 
ATOM     15  H   UNL     1      -9.325  -2.266   1.885  0.00  0.00    -0.081 HD
ENDROOT
BRANCH   2  16
ATOM     16  N   UNL     1      -4.290   0.529   1.690  0.00  0.00    -0.306 N 
ATOM     17  C   UNL     1      -3.056   1.011   1.442  0.00  0.00    +0.218 C 
ATOM     18  O   UNL     1      -2.318   1.291   2.362  0.00  0.00    -0.275 OA
ATOM     19  H   UNL     1      -4.881   0.305   0.954  0.00  0.00    +0.149 HD
BRANCH  17  20
ATOM     20  C   UNL     1      -2.594   1.202   0.020  0.00  0.00    +0.138 C 
BRANCH  20  21
ATOM     21  C   UNL     1      -1.190   1.748   0.017  0.00  0.00    -0.001 A 
ATOM     22  C   UNL     1      -0.013   1.076   0.008  0.00  0.00    +0.011 A 
ATOM     23  C   UNL     1       1.169   1.793   0.001  0.00  0.00    +0.008 A 
ATOM     24  C   UNL     1       1.115   3.148   0.008  0.00  0.00    +0.045 A 
ATOM     25  S   UNL     1      -0.644   3.448   0.027  0.00  0.00    -0.101 S 
ENDBRANCH  20  21
ENDBRANCH  17  20
ENDBRANCH   2  16
BRANCH   1  27
ATOM     26  C   UNL     1      -6.994   2.267   4.358  0.00  0.00    +0.194 C 
ATOM     27  O   UNL     1      -6.743   0.861   4.382  0.00  0.00    -0.377 OA
ENDBRANCH   1  27
BRANCH  14  28
ATOM     28  C   UNL     1     -10.498  -0.664   1.356  0.00  0.00    -0.025 C 
BRANCH  28  29
ATOM     29  C   UNL     1     -11.670  -1.268   2.086  0.00  0.00    +0.000 A 
ATOM     30  C   UNL     1     -12.371  -2.334   1.670  0.00  0.00    +0.029 A 
ATOM     31  C   UNL     1     -13.410  -2.581   2.673  0.00  0.00    -0.000 A 
ATOM     32  C   UNL     1     -14.427  -3.529   2.803  0.00  0.00    +0.010 A 
ATOM     33  C   UNL     1     -15.260  -3.485   3.885  0.00  0.00    +0.001 A 
ATOM     34  C   UNL     1     -15.103  -2.506   4.857  0.00  0.00    +0.002 A 
ATOM     35  C   UNL     1     -14.107  -1.562   4.748  0.00  0.00    +0.026 A 
ATOM     36  C   UNL     1     -13.247  -1.587   3.655  0.00  0.00    +0.047 A 
ATOM     37  N   UNL     1     -12.181  -0.806   3.268  0.00  0.00    -0.360 N 
ATOM     38  H   UNL     1     -11.843  -0.042   3.761  0.00  0.00    +0.166 HD
ENDBRANCH  28  29
ENDBRANCH  14  28
TORSDOF 6
