REMARK  Name = ZINC16644714
REMARK  6 active torsions:
REMARK  status: ('A' for Active; 'I' for Inactive)
REMARK    1  A    between atoms: C_3  and  C_16
REMARK    2  A    between atoms: C_6  and  C_7
REMARK    3  A    between atoms: C_7  and  O_8
REMARK    4  A    between atoms: O_8  and  C_9
REMARK    5  A    between atoms: N_18  and  N_19
REMARK    6  A    between atoms: C_20  and  C_22
REMARK                            x       y       z     vdW  Elec       q    Type
REMARK                         _______ _______ _______ _____ _____    ______ ____
ROOT
ATOM      1  C   UNL     1       7.187  -3.104   3.876  0.00  0.00    +0.260 C 
ATOM      2  O   UNL     1       6.446  -4.067   3.876  0.00  0.00    -0.269 OA
ATOM      3  N   UNL     1       6.774  -1.936   3.346  0.00  0.00    -0.230 N 
ATOM      4  H   UNL     1       7.365  -1.167   3.346  0.00  0.00    +0.173 HD
ENDROOT
BRANCH   1   7
ATOM      5  C   UNL     1      10.238  -4.516   5.550  0.00  0.00    +0.008 A 
ATOM      6  C   UNL     1       8.973  -4.421   5.009  0.00  0.00    +0.013 A 
ATOM      7  C   UNL     1       8.541  -3.213   4.459  0.00  0.00    +0.038 A 
ATOM      8  C   UNL     1       9.397  -2.110   4.455  0.00  0.00    +0.013 A 
ATOM      9  C   UNL     1      10.658  -2.217   5.005  0.00  0.00    +0.008 A 
ATOM     10  C   UNL     1      11.079  -3.418   5.549  0.00  0.00    -0.010 A 
BRANCH  10  11
ATOM     11  C   UNL     1      12.460  -3.529   6.143  0.00  0.00    +0.264 C 
BRANCH  11  12
ATOM     12  O   UNL     1      13.382  -3.938   5.131  0.00  0.00    -0.487 OA
BRANCH  12  13
ATOM     13  C   UNL     1      14.681  -4.086   5.503  0.00  0.00    +0.121 A 
ATOM     14  C   UNL     1      15.060  -3.838   6.814  0.00  0.00    +0.047 A 
ATOM     15  C   UNL     1      16.379  -3.995   7.192  0.00  0.00    +0.023 A 
ATOM     16  C   UNL     1      17.324  -4.388   6.261  0.00  0.00    +0.041 A 
ATOM     17  C   UNL     1      16.949  -4.631   4.952  0.00  0.00    +0.023 A 
ATOM     18  C   UNL     1      15.629  -4.481   4.571  0.00  0.00    +0.047 A 
ATOM     19 CL   UNL     1      18.983  -4.578   6.737  0.00  0.00    -0.084 Cl
ENDBRANCH  12  13
ENDBRANCH  11  12
ENDBRANCH  10  11
ENDBRANCH   1   7
BRANCH   3  20
ATOM     20  N   UNL     1       5.490  -1.832   2.794  0.00  0.00    -0.230 N 
ATOM     21  C   UNL     1       5.077  -0.664   2.263  0.00  0.00    +0.260 C 
ATOM     22  O   UNL     1       5.818   0.299   2.264  0.00  0.00    -0.269 OA
ATOM     23  H   UNL     1       4.899  -2.601   2.794  0.00  0.00    +0.173 HD
BRANCH  21  24
ATOM     24  C   UNL     1       3.724  -0.555   1.682  0.00  0.00    +0.042 A 
ATOM     25  C   UNL     1       2.871  -1.662   1.681  0.00  0.00    +0.017 A 
ATOM     26  C   UNL     1       1.610  -1.558   1.138  0.00  0.00    +0.050 A 
ATOM     27  C   UNL     1       1.181  -0.356   0.590  0.00  0.00    +0.166 A 
ATOM     28  C   UNL     1       2.028   0.752   0.588  0.00  0.00    +0.167 A 
ATOM     29  C   UNL     1       3.294   0.654   1.131  0.00  0.00    +0.062 A 
ATOM     30  O   UNL     1       1.376   1.797  -0.001  0.00  0.00    -0.453 OA
ATOM     31  C   UNL     1      -0.017   1.435   0.010  0.00  0.00    +0.466 C 
ATOM     32  O   UNL     1       0.002  -0.004   0.002  0.00  0.00    -0.453 OA
ENDBRANCH  21  24
ENDBRANCH   3  20
TORSDOF 6
