REMARK  Name = ZINC39984435
REMARK  6 active torsions:
REMARK  status: ('A' for Active; 'I' for Inactive)
REMARK    1  A    between atoms: C_1  and  C_2
REMARK    2  A    between atoms: N_4  and  C_5
REMARK    3  A    between atoms: C_8  and  S_11
REMARK    4  A    between atoms: S_11  and  N_14
REMARK    5  A    between atoms: C_16  and  N_26
REMARK    6  A    between atoms: N_26  and  C_27
REMARK                            x       y       z     vdW  Elec       q    Type
REMARK                         _______ _______ _______ _____ _____    ______ ____
ROOT
ATOM      1  N   UNL     1      -1.747  -7.157  -1.209  0.00  0.00    -0.110 NA
ATOM      2  C   UNL     1      -2.210  -8.365  -1.076  0.00  0.00    +0.192 C 
ATOM      3  C   UNL     1      -3.700  -8.614  -1.024  0.00  0.00    +0.237 C 
ATOM      4  N   UNL     1      -4.160 -10.004  -0.873  0.00  0.00    -0.359 N 
ATOM      5  C   UNL     1      -3.266 -10.950  -0.792  0.00  0.00    +0.063 A 
ATOM      6  C   UNL     1      -3.673 -12.354  -0.641  0.00  0.00    +0.027 A 
ATOM      7  C   UNL     1      -2.717 -13.306  -0.561  0.00  0.00    +0.002 A 
ATOM      8  C   UNL     1      -1.350 -12.987  -0.618  0.00  0.00    +0.002 A 
ATOM      9  C   UNL     1      -0.900 -11.721  -0.756  0.00  0.00    +0.030 A 
ATOM     10  C   UNL     1      -1.815 -10.642  -0.850  0.00  0.00    +0.089 A 
ATOM     11  N   UNL     1      -1.372  -9.410  -0.989  0.00  0.00    -0.226 NA
ATOM     12  H   UNL     1      -5.106 -10.212  -0.835  0.00  0.00    +0.162 HD
ENDROOT
BRANCH   1  13
ATOM     13  S   UNL     1      -0.113  -6.899  -1.272  0.00  0.00    +0.100 S 
ATOM     14  O   UNL     1       0.348  -7.502  -2.473  0.00  0.00    -0.146 OA
ATOM     15  O   UNL     1       0.403  -7.251   0.005  0.00  0.00    -0.146 OA
BRANCH  13  19
ATOM     16  C   UNL     1       0.521  -2.439  -1.737  0.00  0.00    +0.033 A 
ATOM     17  C   UNL     1       0.450  -3.003  -0.470  0.00  0.00    +0.025 A 
ATOM     18  C   UNL     1       0.257  -4.363  -0.332  0.00  0.00    +0.031 A 
ATOM     19  C   UNL     1       0.134  -5.164  -1.453  0.00  0.00    +0.113 A 
ATOM     20  C   UNL     1       0.204  -4.605  -2.716  0.00  0.00    +0.031 A 
ATOM     21  C   UNL     1       0.391  -3.244  -2.861  0.00  0.00    +0.025 A 
BRANCH  16  25
ATOM     22  C   UNL     1       0.239   1.103  -2.981  0.00  0.00    +0.109 C 
ATOM     23  C   UNL     1       0.119  -0.397  -2.890  0.00  0.00    +0.214 C 
ATOM     24  O   UNL     1      -0.516  -1.006  -3.725  0.00  0.00    -0.276 OA
ATOM     25  N   UNL     1       0.717  -1.061  -1.881  0.00  0.00    -0.286 N 
ATOM     26  H   UNL     1       1.283  -0.583  -1.255  0.00  0.00    +0.155 HD
ENDBRANCH  16  25
ENDBRANCH  13  19
ENDBRANCH   1  13
BRANCH   3  27
ATOM     27  N   UNL     1      -4.286  -8.082  -2.257  0.00  0.00    -0.318 N 
ATOM     28  H   UNL     1      -3.851  -8.242  -3.109  0.00  0.00    +0.148 HD
BRANCH  27  29
ATOM     29  C   UNL     1      -5.472  -7.343  -2.205  0.00  0.00    +0.029 A 
ATOM     30  C   UNL     1      -6.162  -7.219  -1.006  0.00  0.00    +0.026 A 
ATOM     31  C   UNL     1      -7.334  -6.489  -0.957  0.00  0.00    +0.040 A 
ATOM     32  C   UNL     1      -7.820  -5.880  -2.102  0.00  0.00    +0.124 A 
ATOM     33  C   UNL     1      -7.133  -6.002  -3.298  0.00  0.00    +0.040 A 
ATOM     34  C   UNL     1      -5.959  -6.728  -3.351  0.00  0.00    +0.026 A 
ATOM     35  F   UNL     1      -8.966  -5.166  -2.052  0.00  0.00    -0.205 F 
ENDBRANCH  27  29
ENDBRANCH   3  27
TORSDOF 5
