REMARK  Name = ZINC39672213
REMARK  5 active torsions:
REMARK  status: ('A' for Active; 'I' for Inactive)
REMARK    1  A    between atoms: C_1  and  N_2
REMARK    2  A    between atoms: C_10  and  C_12
REMARK    3  A    between atoms: C_12  and  N_13
REMARK    4  A    between atoms: C_14  and  C_16
REMARK    5  A    between atoms: C_27  and  C_29
REMARK                            x       y       z     vdW  Elec       q    Type
REMARK                         _______ _______ _______ _____ _____    ______ ____
ROOT
ATOM      1  C   UNL     1       7.192  -3.850   2.096  0.00  0.00    +0.100 C 
ATOM      2  C   UNL     1       6.314  -4.648   3.086  0.00  0.00    +0.121 C 
ATOM      3  N   UNL     1       6.929  -5.995   3.130  0.00  0.00    -0.296 N 
ATOM      4  C   UNL     1       8.388  -5.736   3.100  0.00  0.00    +0.115 C 
ATOM      5  C   UNL     1       8.553  -4.565   2.110  0.00  0.00    -0.004 C 
ATOM      6  C   UNL     1       8.887  -5.095   0.719  0.00  0.00    -0.010 C 
ATOM      7  C   UNL     1      10.270  -5.752   0.746  0.00  0.00    -0.082 C 
ATOM      8  N   UNL     1      11.273  -4.768   1.170  0.00  0.00    +0.379 N 
ATOM      9  C   UNL     1      10.997  -4.332   2.545  0.00  0.00    -0.082 C 
ATOM     10  C   UNL     1       9.645  -3.615   2.593  0.00  0.00    -0.010 C 
ATOM     11  C   UNL     1       6.303  -7.188   3.185  0.00  0.00    +0.248 C 
ATOM     12  O   UNL     1       6.950  -8.209   3.303  0.00  0.00    -0.270 OA
ATOM     13  H   UNL     1      12.190  -5.185   1.129  0.00  0.00    -0.086 HD
ATOM     14  H   UNL     1      11.241  -3.970   0.553  0.00  0.00    -0.086 HD
ENDROOT
BRANCH  11  15
ATOM     15  C   UNL     1       4.829  -7.253   3.100  0.00  0.00    +0.057 A 
ATOM     16  C   UNL     1       4.046  -6.310   3.769  0.00  0.00    +0.014 A 
ATOM     17  C   UNL     1       2.671  -6.375   3.687  0.00  0.00    +0.002 A 
ATOM     18  C   UNL     1       2.065  -7.373   2.943  0.00  0.00    +0.021 A 
ATOM     19  C   UNL     1       2.833  -8.312   2.278  0.00  0.00    +0.060 A 
ATOM     20  C   UNL     1       4.213  -8.254   2.347  0.00  0.00    +0.071 A 
ATOM     21 CL   UNL     1       5.176  -9.428   1.505  0.00  0.00    -0.081 Cl
ATOM     22 CL   UNL     1       2.063  -9.561   1.349  0.00  0.00    -0.082 Cl
ENDBRANCH  11  15
BRANCH   1  24
ATOM     23  N   UNL     1       6.805  -2.871  -0.143  0.00  0.00    -0.311 N 
ATOM     24  C   UNL     1       6.593  -3.890   0.713  0.00  0.00    +0.218 C 
ATOM     25  O   UNL     1       5.920  -4.840   0.371  0.00  0.00    -0.275 OA
ATOM     26  H   UNL     1       7.343  -2.112   0.131  0.00  0.00    +0.149 HD
BRANCH  23  27
ATOM     27  C   UNL     1       6.222  -2.910  -1.487  0.00  0.00    +0.139 C 
BRANCH  27  37
ATOM     28  C   UNL     1       9.038   1.913  -4.861  0.00  0.00    +0.129 C 
ATOM     29  N   UNL     1       7.686   1.786  -4.311  0.00  0.00    -0.333 N 
ATOM     30  C   UNL     1       6.702   2.862  -4.491  0.00  0.00    +0.105 C 
ATOM     31  C   UNL     1       6.001   3.085  -3.145  0.00  0.00    +0.024 C 
ATOM     32  C   UNL     1       5.241   1.814  -2.767  0.00  0.00    +0.038 C 
ATOM     33  C   UNL     1       6.147   0.614  -2.852  0.00  0.00    -0.026 A 
ATOM     34  C   UNL     1       7.309   0.634  -3.611  0.00  0.00    +0.033 A 
ATOM     35  C   UNL     1       8.118  -0.494  -3.677  0.00  0.00    +0.024 A 
ATOM     36  C   UNL     1       7.766  -1.639  -2.991  0.00  0.00    +0.007 A 
ATOM     37  C   UNL     1       6.607  -1.661  -2.237  0.00  0.00    -0.030 A 
ATOM     38  C   UNL     1       5.803  -0.535  -2.161  0.00  0.00    +0.010 A 
ENDBRANCH  27  37
ENDBRANCH  23  27
ENDBRANCH   1  24
TORSDOF 4
