REMARK  Name = ZINC64164991
REMARK  6 active torsions:
REMARK  status: ('A' for Active; 'I' for Inactive)
REMARK    1  A    between atoms: C_1  and  C_2
REMARK    2  A    between atoms: C_2  and  N_3
REMARK    3  A    between atoms: C_10  and  O_31
REMARK    4  A    between atoms: C_12  and  C_15
REMARK    5  A    between atoms: C_15  and  N_17
REMARK    6  A    between atoms: C_21  and  C_24
REMARK                            x       y       z     vdW  Elec       q    Type
REMARK                         _______ _______ _______ _____ _____    ______ ____
ROOT
ATOM      1  C   UNL     1       0.062  -1.317   4.675  0.00  0.00    +0.273 C 
ATOM      2  O   UNL     1      -1.118  -1.623   4.600  0.00  0.00    -0.268 OA
ENDROOT
BRANCH   1  11
ATOM      3  N   UNL     1       0.718  -0.389   1.204  0.00  0.00    -0.267 N 
ATOM      4  C   UNL     1       2.106  -0.514   1.102  0.00  0.00    +0.042 A 
ATOM      5  C   UNL     1       2.712  -0.492  -0.148  0.00  0.00    +0.024 A 
ATOM      6  C   UNL     1       4.083  -0.621  -0.252  0.00  0.00    +0.002 A 
ATOM      7  C   UNL     1       4.851  -0.770   0.889  0.00  0.00    +0.000 A 
ATOM      8  C   UNL     1       4.251  -0.790   2.133  0.00  0.00    +0.008 A 
ATOM      9  C   UNL     1       2.878  -0.660   2.246  0.00  0.00    +0.007 A 
ATOM     10  C   UNL     1       2.241  -0.674   3.608  0.00  0.00    +0.187 C 
ATOM     11  C   UNL     1       0.763  -0.916   3.514  0.00  0.00    +0.111 C 
ATOM     12  C   UNL     1       0.081  -0.760   2.360  0.00  0.00    +0.255 C 
ATOM     13  O   UNL     1      -1.252  -0.978   2.344  0.00  0.00    -0.270 OA
BRANCH   3  15
ATOM     14  C   UNL     1      -0.159   1.666   0.208  0.00  0.00    +0.025 C 
ATOM     15  C   UNL     1      -0.055   0.145   0.079  0.00  0.00    +0.110 C 
ENDBRANCH   3  15
BRANCH  10  16
ATOM     16  O   UNL     1       2.835  -1.710   4.393  0.00  0.00    -0.382 OA
ATOM     17  H   UNL     1       2.566  -1.704   5.321  0.00  0.00    +0.211 HD
ENDBRANCH  10  16
ENDBRANCH   1  11
BRANCH   1  18
ATOM     18  N   UNL     1       0.694  -1.361   5.859  0.00  0.00    -0.152 NA
ATOM     19  C   UNL     1       0.035  -1.738   6.949  0.00  0.00    +0.164 A 
ATOM     20  N   UNL     1      -1.272  -2.122   7.080  0.00  0.00    -0.335 N 
ATOM     21  H   UNL     1      -1.859  -2.146   6.308  0.00  0.00    +0.168 HD
ATOM     22  C   UNL     1      -1.737  -2.470   8.316  0.00  0.00    +0.055 A 
ATOM     23  C   UNL     1      -0.903  -2.430   9.377  0.00  0.00    +0.074 A 
ATOM     24  S   UNL     1       0.623  -1.884   8.629  0.00  0.00    -0.060 S 
BRANCH  22  25
ATOM     25  C   UNL     1      -3.144  -2.889   8.491  0.00  0.00    -0.001 A 
ATOM     26  C   UNL     1      -4.003  -2.936   7.391  0.00  0.00    +0.011 A 
ATOM     27  C   UNL     1      -5.315  -3.328   7.561  0.00  0.00    +0.020 A 
ATOM     28  C   UNL     1      -5.780  -3.675   8.818  0.00  0.00    +0.041 A 
ATOM     29  C   UNL     1      -4.933  -3.630   9.912  0.00  0.00    +0.020 A 
ATOM     30  C   UNL     1      -3.618  -3.246   9.754  0.00  0.00    +0.011 A 
ATOM     31 CL   UNL     1      -7.432  -4.166   9.023  0.00  0.00    -0.084 Cl
ENDBRANCH  22  25
ENDBRANCH   1  18
TORSDOF 5
