REMARK  Name = ZINC36206189
REMARK  15 active torsions:
REMARK  status: ('A' for Active; 'I' for Inactive)
REMARK    1  A    between atoms: C_1  and  C_2
REMARK    2  A    between atoms: C_2  and  C_3
REMARK    3  A    between atoms: C_2  and  C_4
REMARK    4  A    between atoms: C_4  and  O_5
REMARK    5  A    between atoms: O_5  and  C_6
REMARK    6  A    between atoms: C_6  and  C_7
REMARK    7  A    between atoms: C_7  and  C_9
REMARK    8  A    between atoms: C_7  and  O_33
REMARK    9  A    between atoms: C_9  and  N_10
REMARK   10  A    between atoms: N_10  and  C_11
REMARK   11  A    between atoms: N_10  and  C_30
REMARK   12  A    between atoms: C_11  and  C_12
REMARK   13  A    between atoms: C_18  and  C_23
REMARK   14  A    between atoms: C_30  and  C_31
REMARK   15  A    between atoms: C_30  and  C_32
REMARK                            x       y       z     vdW  Elec       q    Type
REMARK                         _______ _______ _______ _____ _____    ______ ____
ROOT
ATOM      1  C   UNL     1      -4.101  -7.662  -2.272  0.00  0.00    +0.094 A 
ATOM      2  N   UNL     1      -4.924  -8.133  -3.243  0.00  0.00    -0.312 N 
ATOM      3  H   UNL     1      -5.831  -7.793  -3.305  0.00  0.00    +0.170 HD
ATOM      4  C   UNL     1      -4.507  -9.063  -4.123  0.00  0.00    +0.260 A 
ATOM      5  O   UNL     1      -5.258  -9.476  -4.990  0.00  0.00    -0.267 OA
ATOM      6  C   UNL     1      -3.168  -9.559  -4.025  0.00  0.00    +0.080 A 
ATOM      7  C   UNL     1      -2.490 -10.553  -4.848  0.00  0.00    +0.004 A 
ATOM      8  C   UNL     1      -1.203 -10.867  -4.563  0.00  0.00    +0.056 A 
ATOM      9  S   UNL     1      -0.828  -9.834  -3.159  0.00  0.00    -0.076 S 
ATOM     10  C   UNL     1      -2.391  -9.013  -2.990  0.00  0.00    +0.116 A 
ATOM     11  N   UNL     1      -2.873  -8.091  -2.160  0.00  0.00    -0.229 NA
ENDROOT
BRANCH   7  12
ATOM     12  C   UNL     1      -3.195 -11.208  -5.975  0.00  0.00    -0.016 A 
ATOM     13  C   UNL     1      -4.456 -11.769  -5.780  0.00  0.00    +0.010 A 
ATOM     14  C   UNL     1      -5.109 -12.378  -6.832  0.00  0.00    +0.020 A 
ATOM     15  C   UNL     1      -4.513 -12.432  -8.081  0.00  0.00    +0.041 A 
ATOM     16  C   UNL     1      -3.261 -11.877  -8.280  0.00  0.00    +0.020 A 
ATOM     17  C   UNL     1      -2.602 -11.261  -7.236  0.00  0.00    +0.010 A 
ATOM     18 CL   UNL     1      -5.339 -13.199  -9.401  0.00  0.00    -0.084 Cl
ENDBRANCH   7  12
BRANCH   1  19
ATOM     19  C   UNL     1      -4.612  -6.620  -1.310  0.00  0.00    -0.003 C 
BRANCH  19  20
ATOM     20  N   UNL     1      -3.615  -6.398  -0.254  0.00  0.00    +0.388 N 
ATOM     21  H   UNL     1      -2.689  -6.436  -0.653  0.00  0.00    -0.081 HD
BRANCH  20  22
ATOM     22  C   UNL     1      -3.748  -7.440   0.773  0.00  0.00    -0.074 C 
ATOM     23  C   UNL     1      -5.153  -7.384   1.376  0.00  0.00    -0.014 C 
ATOM     24  C   UNL     1      -3.519  -8.813   0.140  0.00  0.00    -0.014 C 
ENDBRANCH  20  22
BRANCH  20  25
ATOM     25  C   UNL     1      -3.832  -5.079   0.355  0.00  0.00    -0.044 C 
BRANCH  25  26
ATOM     26  C   UNL     1      -2.698  -4.777   1.336  0.00  0.00    +0.124 C 
BRANCH  26  27
ATOM     27  O   UNL     1      -2.799  -5.649   2.464  0.00  0.00    -0.391 OA
ATOM     28  H   UNL     1      -3.656  -5.616   2.911  0.00  0.00    +0.210 HD
ENDBRANCH  26  27
BRANCH  26  29
ATOM     29  C   UNL     1      -2.801  -3.324   1.804  0.00  0.00    +0.189 C 
BRANCH  29  30
ATOM     30  O   UNL     1      -1.678  -3.007   2.628  0.00  0.00    -0.377 OA
BRANCH  30  31
ATOM     31  C   UNL     1      -1.677  -1.666   3.120  0.00  0.00    +0.163 C 
BRANCH  31  33
ATOM     32  C   UNL     1      -0.370   0.028   4.410  0.00  0.00    +0.009 C 
ATOM     33  C   UNL     1      -0.436  -1.441   3.985  0.00  0.00    +0.009 C 
ATOM     34  C   UNL     1      -0.513  -2.328   5.229  0.00  0.00    +0.009 C 
ENDBRANCH  31  33
ENDBRANCH  30  31
ENDBRANCH  29  30
ENDBRANCH  26  29
ENDBRANCH  25  26
ENDBRANCH  20  25
ENDBRANCH  19  20
ENDBRANCH   1  19
TORSDOF 11
