REMARK  Name = ZINC12430752
REMARK  9 active torsions:
REMARK  status: ('A' for Active; 'I' for Inactive)
REMARK    1  A    between atoms: C_1  and  N_2
REMARK    2  A    between atoms: N_2  and  C_3
REMARK    3  A    between atoms: C_3  and  C_4
REMARK    4  A    between atoms: C_4  and  N_66
REMARK    5  A    between atoms: C_14  and  C_16
REMARK    6  A    between atoms: C_16  and  C_17
REMARK    7  A    between atoms: C_24  and  C_25
REMARK    8  A    between atoms: C_24  and  N_68
REMARK    9  A    between atoms: C_26  and  C_27
REMARK                            x       y       z     vdW  Elec       q    Type
REMARK                         _______ _______ _______ _____ _____    ______ ____
ROOT
ATOM      1  C   UNL     1      -1.673  -0.569   0.175  0.00  0.00    +0.090 C 
ENDROOT
BRANCH   1   2
ATOM      2  C   UNL     1      -0.297   0.087   0.033  0.00  0.00    +0.028 C 
ATOM      3  C   UNL     1      -0.467   1.569  -0.143  0.00  0.00    +0.200 C 
ATOM      4  O   UNL     1      -1.342   1.971  -0.880  0.00  0.00    -0.278 OA
ATOM      5  N   UNL     1       0.307   2.465   0.480  0.00  0.00    -0.318 N 
ATOM      6  C   UNL     1       1.363   2.087   1.415  0.00  0.00    +0.085 C 
ATOM      7  C   UNL     1       1.734   0.616   1.221  0.00  0.00    -0.058 C 
ATOM      8  H   UNL     1       0.160   3.407   0.303  0.00  0.00    +0.149 HD
ATOM      9  N   UNL     1       0.489  -0.178   1.253  0.00  0.00    +0.391 N 
ATOM     10  H   UNL     1      -0.063   0.097   2.074  0.00  0.00    -0.080 HD
BRANCH   9  11
ATOM     11  C   UNL     1       0.808  -1.621   1.347  0.00  0.00    -0.050 C 
BRANCH  11  12
ATOM     12  C   UNL     1       1.703  -1.851   2.537  0.00  0.00    -0.045 C 
ATOM     13  C   UNL     1       1.348  -2.717   3.476  0.00  0.00    +0.002 C 
BRANCH  13  14
ATOM     14  C   UNL     1       2.226  -2.943   4.643  0.00  0.00    -0.025 A 
ATOM     15  C   UNL     1       3.432  -2.251   4.757  0.00  0.00    +0.008 A 
ATOM     16  C   UNL     1       4.245  -2.462   5.852  0.00  0.00    +0.001 A 
ATOM     17  C   UNL     1       3.872  -3.367   6.830  0.00  0.00    +0.000 A 
ATOM     18  C   UNL     1       2.680  -4.061   6.720  0.00  0.00    +0.001 A 
ATOM     19  C   UNL     1       1.856  -3.854   5.633  0.00  0.00    +0.008 A 
ENDBRANCH  13  14
ENDBRANCH  11  12
ENDBRANCH   9  11
ENDBRANCH   1   2
BRANCH   1  22
ATOM     20  C   UNL     1      -4.278  -1.437   0.875  0.00  0.00    +0.132 C 
ATOM     21  N   UNL     1      -3.584  -0.482   1.743  0.00  0.00    -0.306 N 
ATOM     22  C   UNL     1      -2.345  -0.059   1.424  0.00  0.00    +0.214 C 
ATOM     23  O   UNL     1      -1.770   0.732   2.143  0.00  0.00    -0.276 OA
BRANCH  21  24
ATOM     24  C   UNL     1      -4.237   0.014   2.957  0.00  0.00    +0.089 C 
BRANCH  24  25
ATOM     25  C   UNL     1      -5.031   1.280   2.629  0.00  0.00    -0.059 C 
BRANCH  25  35
ATOM     26  C   UNL     1      -6.261   3.114   3.627  0.00  0.00    -0.074 C 
ATOM     27  C   UNL     1      -7.227   3.420   4.772  0.00  0.00    +0.017 C 
ATOM     28  C   UNL     1      -6.554   3.161   6.096  0.00  0.00    -0.048 A 
ATOM     29  C   UNL     1      -7.119   3.701   7.242  0.00  0.00    +0.004 A 
ATOM     30  C   UNL     1      -6.537   3.486   8.475  0.00  0.00    +0.000 A 
ATOM     31  C   UNL     1      -5.385   2.727   8.568  0.00  0.00    +0.000 A 
ATOM     32  C   UNL     1      -4.821   2.190   7.428  0.00  0.00    +0.002 A 
ATOM     33  C   UNL     1      -5.404   2.407   6.188  0.00  0.00    -0.061 A 
ATOM     34  C   UNL     1      -4.749   1.805   4.973  0.00  0.00    -0.043 C 
ATOM     35  N   UNL     1      -5.706   1.764   3.854  0.00  0.00    +0.384 N 
ATOM     36  H   UNL     1      -6.471   1.122   4.091  0.00  0.00    -0.081 HD
ENDBRANCH  25  35
ENDBRANCH  24  25
ENDBRANCH  21  24
ENDBRANCH   1  22
TORSDOF 8
