REMARK  Name = ZINC04684389
REMARK  5 active torsions:
REMARK  status: ('A' for Active; 'I' for Inactive)
REMARK    1  A    between atoms: C_1  and  C_2
REMARK    2  A    between atoms: N_7  and  C_10
REMARK    3  A    between atoms: C_13  and  N_19
REMARK    4  A    between atoms: C_14  and  N_16
REMARK    5  A    between atoms: N_19  and  C_20
REMARK                            x       y       z     vdW  Elec       q    Type
REMARK                         _______ _______ _______ _____ _____    ______ ____
ROOT
ATOM      1  C   UNL     1       0.097  -1.859   3.170  0.00  0.00    +0.046 A 
ATOM      2  C   UNL     1       1.384  -1.871   3.690  0.00  0.00    +0.026 A 
ATOM      3  C   UNL     1       1.644  -2.533   4.873  0.00  0.00    +0.027 A 
ATOM      4  C   UNL     1       0.618  -3.186   5.544  0.00  0.00    +0.058 A 
ATOM      5  C   UNL     1      -0.670  -3.173   5.023  0.00  0.00    +0.149 A 
ATOM      6  C   UNL     1      -0.930  -2.506   3.843  0.00  0.00    +0.058 A 
ENDROOT
BRANCH   1  12
ATOM      7  C   UNL     1      -2.457   0.347  -0.032  0.00  0.00    +0.017 C 
ATOM      8  C   UNL     1      -1.011   0.380   0.466  0.00  0.00    +0.082 C 
ATOM      9  C   UNL     1      -0.150  -0.648  -0.297  0.00  0.00    +0.109 C 
ATOM     10  C   UNL     1       0.324  -1.589   0.788  0.00  0.00    +0.227 C 
ATOM     11  O   UNL     1       1.037  -2.554   0.618  0.00  0.00    -0.275 OA
ATOM     12  N   UNL     1      -0.168  -1.186   1.967  0.00  0.00    -0.210 N 
ATOM     13  C   UNL     1      -0.933  -0.085   1.904  0.00  0.00    +0.229 C 
ATOM     14  O   UNL     1      -1.475   0.452   2.846  0.00  0.00    -0.275 OA
ENDBRANCH   1  12
BRANCH   5  15
ATOM     15  N   UNL     1      -1.764  -3.869   5.737  0.00  0.00    +0.058 N 
ATOM     16  O   UNL     1      -2.631  -4.434   5.112  0.00  0.00    -0.126 OA
ATOM     17  O   UNL     1      -1.790  -3.874   6.946  0.00  0.00    -0.126 OA
ENDBRANCH   5  15
BRANCH   4  18
ATOM     18  N   UNL     1       0.881  -3.857   6.742  0.00  0.00    -0.339 N 
ATOM     19  H   UNL     1       0.183  -4.377   7.170  0.00  0.00    +0.146 HD
BRANCH  18  20
ATOM     20  C   UNL     1       2.211  -3.774   7.351  0.00  0.00    +0.070 C 
ATOM     21  C   UNL     1       2.301  -2.510   8.208  0.00  0.00    +0.022 C 
ATOM     22  C   UNL     1       3.506  -2.614   9.145  0.00  0.00    +0.002 C 
ATOM     23  C   UNL     1       4.791  -2.363   8.353  0.00  0.00    +0.000 C 
ATOM     24  C   UNL     1       5.127  -3.601   7.521  0.00  0.00    +0.000 C 
ATOM     25  C   UNL     1       4.937  -4.857   8.374  0.00  0.00    +0.000 C 
ATOM     26  C   UNL     1       3.764  -5.673   7.826  0.00  0.00    +0.002 C 
ATOM     27  C   UNL     1       2.447  -5.004   8.229  0.00  0.00    +0.022 C 
ENDBRANCH  18  20
ENDBRANCH   4  18
TORSDOF 4
