REMARK  Name = ZINC08781502
REMARK  7 active torsions:
REMARK  status: ('A' for Active; 'I' for Inactive)
REMARK    1  A    between atoms: C_5  and  C_7
REMARK    2  A    between atoms: C_7  and  C_8
REMARK    3  A    between atoms: N_15  and  C_18
REMARK    4  A    between atoms: C_18  and  C_19
REMARK    5  A    between atoms: C_19  and  N_20
REMARK    6  A    between atoms: N_20  and  C_21
REMARK    7  A    between atoms: C_24  and  C_26
REMARK                            x       y       z     vdW  Elec       q    Type
REMARK                         _______ _______ _______ _____ _____    ______ ____
ROOT
ATOM      1  C   UNL     1      -6.780   0.792   1.210  0.00  0.00    +0.167 C 
ATOM      2  C   UNL     1      -7.345   1.112  -0.161  0.00  0.00    +0.233 C 
ATOM      3  O   UNL     1      -8.395   1.706  -0.286  0.00  0.00    -0.275 OA
ATOM      4  N   UNL     1      -6.636   0.711  -1.238  0.00  0.00    -0.239 N 
ATOM      5  C   UNL     1      -5.476   0.055  -1.117  0.00  0.00    +0.315 C 
ATOM      6  O   UNL     1      -4.903  -0.268  -2.139  0.00  0.00    -0.252 OA
ATOM      7  N   UNL     1      -4.900  -0.271   0.045  0.00  0.00    -0.224 N 
ATOM      8  C   UNL     1      -5.462   0.041   1.233  0.00  0.00    +0.235 C 
ATOM      9  O   UNL     1      -4.931  -0.266   2.279  0.00  0.00    -0.274 OA
ATOM     10  H   UNL     1      -6.977   0.904  -2.125  0.00  0.00    +0.159 HD
ENDROOT
BRANCH   1  11
ATOM     11  C   UNL     1      -7.811  -0.049   1.965  0.00  0.00    +0.077 C 
BRANCH  11  16
ATOM     12  C   UNL     1     -11.410   1.069   2.015  0.00  0.00    +0.003 A 
ATOM     13  C   UNL     1     -11.265   2.285   2.666  0.00  0.00    +0.020 A 
ATOM     14  C   UNL     1     -10.004   2.690   3.061  0.00  0.00    +0.111 A 
ATOM     15  N   UNL     1      -8.949   1.934   2.830  0.00  0.00    -0.260 NA
ATOM     16  C   UNL     1      -9.049   0.775   2.209  0.00  0.00    +0.042 A 
ATOM     17  C   UNL     1     -10.278   0.303   1.786  0.00  0.00    +0.023 A 
ENDBRANCH  11  16
ENDBRANCH   1  11
BRANCH   7  18
ATOM     18  C   UNL     1      -3.625  -0.992   0.030  0.00  0.00    +0.136 C 
BRANCH  18  19
ATOM     19  C   UNL     1      -2.471   0.012   0.025  0.00  0.00    +0.122 C 
BRANCH  19  20
ATOM     20  N   UNL     1      -1.196  -0.710   0.009  0.00  0.00    -0.328 N 
ATOM     21  H   UNL     1      -1.188  -1.680   0.004  0.00  0.00    +0.147 HD
BRANCH  20  22
ATOM     22  C   UNL     1       0.002  -0.004   0.002  0.00  0.00    +0.115 A 
ATOM     23  C   UNL     1       1.210  -0.696  -0.013  0.00  0.00    +0.079 A 
ATOM     24  C   UNL     1       2.395   0.019  -0.021  0.00  0.00    +0.037 A 
ATOM     25  C   UNL     1       2.331   1.407  -0.013  0.00  0.00    +0.072 A 
ATOM     26  C   UNL     1       1.098   2.027   0.003  0.00  0.00    +0.096 A 
ATOM     27 CL   UNL     1       1.230  -2.432  -0.023  0.00  0.00    -0.080 Cl
ATOM     28  N   UNL     1      -0.085   1.357   0.010  0.00  0.00    -0.348 N 
ATOM     29  H   UNL     1      -0.989   1.846   0.021  0.00  0.00    +0.167 HD
BRANCH  25  30
ATOM     30  C   UNL     1       3.595   2.227  -0.021  0.00  0.00    +0.419 C 
ATOM     31  F   UNL     1       3.974   2.488  -1.342  0.00  0.00    -0.166 F 
ATOM     32  F   UNL     1       3.372   3.435   0.647  0.00  0.00    -0.166 F 
ATOM     33  F   UNL     1       4.615   1.519   0.625  0.00  0.00    -0.166 F 
ENDBRANCH  25  30
ENDBRANCH  20  22
ENDBRANCH  19  20
ENDBRANCH  18  19
ENDBRANCH   7  18
TORSDOF 7
