REMARK  Name = ZINC40775911
REMARK  6 active torsions:
REMARK  status: ('A' for Active; 'I' for Inactive)
REMARK    1  A    between atoms: C_1  and  C_2
REMARK    2  A    between atoms: C_2  and  C_3
REMARK    3  A    between atoms: C_2  and  C_4
REMARK    4  A    between atoms: C_7  and  N_10
REMARK    5  A    between atoms: C_11  and  C_13
REMARK    6  A    between atoms: C_13  and  C_24
REMARK                            x       y       z     vdW  Elec       q    Type
REMARK                         _______ _______ _______ _____ _____    ______ ____
ROOT
ATOM      1  N   UNL     1      -5.320  -1.968   0.042  0.00  0.00    -0.282 N 
ATOM      2  C   UNL     1      -5.790  -2.663  -1.013  0.00  0.00    +0.270 C 
ATOM      3  O   UNL     1      -5.050  -2.946  -1.931  0.00  0.00    -0.271 OA
ATOM      4  H   UNL     1      -5.894  -1.799   0.806  0.00  0.00    +0.155 HD
ENDROOT
BRANCH   2   5
ATOM      5  C   UNL     1      -7.236  -3.087  -1.052  0.00  0.00    +0.258 C 
ATOM      6  C   UNL     1      -7.665  -3.276  -2.485  0.00  0.00    +0.270 C 
ATOM      7  O   UNL     1      -6.848  -3.571  -3.331  0.00  0.00    -0.271 OA
ATOM      8  N   UNL     1      -8.962  -3.116  -2.822  0.00  0.00    -0.279 N 
ATOM      9  C   UNL     1      -9.867  -2.652  -1.857  0.00  0.00    +0.076 A 
ATOM     10  C   UNL     1     -11.231  -2.692  -2.095  0.00  0.00    +0.027 A 
ATOM     11  C   UNL     1     -12.111  -2.243  -1.128  0.00  0.00    +0.002 A 
ATOM     12  C   UNL     1     -11.634  -1.756   0.075  0.00  0.00    +0.004 A 
ATOM     13  C   UNL     1     -10.273  -1.709   0.317  0.00  0.00    +0.047 A 
ATOM     14  C   UNL     1      -9.385  -2.152  -0.649  0.00  0.00    +0.144 A 
ATOM     15  O   UNL     1      -8.044  -2.082  -0.436  0.00  0.00    -0.465 OA
ATOM     16  C   UNL     1      -7.399  -4.406  -0.294  0.00  0.00    +0.076 C 
ATOM     17  H   UNL     1      -9.264  -3.319  -3.721  0.00  0.00    +0.155 HD
ENDBRANCH   2   5
BRANCH   1  21
ATOM     18  C   UNL     1      -1.405  -0.544   0.021  0.00  0.00    -0.045 A 
ATOM     19  C   UNL     1      -1.701  -1.756  -0.574  0.00  0.00    +0.006 A 
ATOM     20  C   UNL     1      -2.998  -2.231  -0.568  0.00  0.00    +0.023 A 
ATOM     21  C   UNL     1      -4.005  -1.490   0.035  0.00  0.00    +0.034 A 
ATOM     22  C   UNL     1      -3.704  -0.272   0.632  0.00  0.00    +0.023 A 
ATOM     23  C   UNL     1      -2.405   0.195   0.627  0.00  0.00    +0.006 A 
BRANCH  18  25
ATOM     24  C   UNL     1       0.922  -1.029   0.727  0.00  0.00    +0.012 C 
ATOM     25  C   UNL     1       0.011  -0.028   0.013  0.00  0.00    +0.013 C 
ATOM     26  C   UNL     1       0.481   0.148  -1.433  0.00  0.00    +0.012 C 
ENDBRANCH  18  25
ENDBRANCH   1  21
TORSDOF 3
