REMARK  Name = ZINC21051146
REMARK  4 active torsions:
REMARK  status: ('A' for Active; 'I' for Inactive)
REMARK    1  A    between atoms: C_1  and  O_2
REMARK    2  A    between atoms: O_2  and  C_3
REMARK    3  A    between atoms: C_8  and  C_9
REMARK    4  A    between atoms: N_20  and  C_21
REMARK                            x       y       z     vdW  Elec       q    Type
REMARK                         _______ _______ _______ _____ _____    ______ ____
ROOT
ATOM      1  C   UNL     1       0.057  -2.765  -0.646  0.00  0.00    +0.201 C 
ATOM      2  N   UNL     1       1.221  -2.098  -0.051  0.00  0.00    -0.321 N 
ATOM      3  C   UNL     1       1.246  -0.708  -0.008  0.00  0.00    +0.041 A 
ATOM      4  C   UNL     1       2.436  -0.000  -0.021  0.00  0.00    +0.024 A 
ATOM      5  C   UNL     1       2.412   1.380   0.038  0.00  0.00    +0.002 A 
ATOM      6  C   UNL     1       1.206   2.061   0.112  0.00  0.00    +0.001 A 
ATOM      7  C   UNL     1       0.012   1.370   0.124  0.00  0.00    +0.015 A 
ATOM      8  C   UNL     1       0.021  -0.021   0.058  0.00  0.00    +0.058 A 
ATOM      9  C   UNL     1      -1.226  -0.804   0.065  0.00  0.00    +0.254 C 
ATOM     10  O   UNL     1      -2.289  -0.263   0.302  0.00  0.00    -0.270 OA
ATOM     11  N   UNL     1      -1.179  -2.127  -0.194  0.00  0.00    -0.244 N 
ATOM     12  H   UNL     1       2.052  -2.696   0.350  0.00  0.00    +0.148 HD
ENDROOT
BRANCH  11  13
ATOM     13  C   UNL     1      -2.333  -2.902  -0.026  0.00  0.00    +0.042 A 
ATOM     14  C   UNL     1      -3.491  -2.584  -0.723  0.00  0.00    +0.027 A 
ATOM     15  C   UNL     1      -4.628  -3.352  -0.562  0.00  0.00    +0.051 A 
ATOM     16  C   UNL     1      -4.620  -4.434   0.303  0.00  0.00    +0.166 A 
ATOM     17  C   UNL     1      -3.462  -4.753   1.007  0.00  0.00    +0.168 A 
ATOM     18  C   UNL     1      -2.320  -3.986   0.841  0.00  0.00    +0.073 A 
ATOM     19  O   UNL     1      -3.710  -5.848   1.783  0.00  0.00    -0.453 OA
ATOM     20  C   UNL     1      -4.904  -6.442   1.240  0.00  0.00    +0.466 C 
ATOM     21  O   UNL     1      -5.595  -5.331   0.638  0.00  0.00    -0.453 OA
ENDBRANCH  11  13
BRANCH   1  27
ATOM     22  C   UNL     1       1.381  -2.716  -2.775  0.00  0.00    +0.127 A 
ATOM     23  C   UNL     1       1.458  -2.634  -4.158  0.00  0.00    +0.046 A 
ATOM     24  C   UNL     1       0.304  -2.511  -4.907  0.00  0.00    +0.004 A 
ATOM     25  C   UNL     1      -0.927  -2.470  -4.279  0.00  0.00    +0.001 A 
ATOM     26  C   UNL     1      -1.007  -2.557  -2.902  0.00  0.00    +0.011 A 
ATOM     27  C   UNL     1       0.145  -2.675  -2.148  0.00  0.00    +0.033 A 
BRANCH  22  29
ATOM     28  C   UNL     1       3.754  -2.873  -2.749  0.00  0.00    +0.277 C 
ATOM     29  O   UNL     1       2.516  -2.837  -2.036  0.00  0.00    -0.495 OA
ENDBRANCH  22  29
ENDBRANCH   1  27
TORSDOF 3
