REMARK  Name = ZINC34923631
REMARK  9 active torsions:
REMARK  status: ('A' for Active; 'I' for Inactive)
REMARK    1  A    between atoms: C_1  and  C_2
REMARK    2  A    between atoms: C_3  and  C_30
REMARK    3  A    between atoms: C_4  and  C_23
REMARK    4  A    between atoms: C_7  and  C_12
REMARK    5  A    between atoms: C_13  and  N_15
REMARK    6  A    between atoms: N_15  and  C_16
REMARK    7  A    between atoms: N_19  and  C_22
REMARK    8  A    between atoms: C_30  and  O_32
REMARK    9  A    between atoms: O_32  and  C_33
REMARK                            x       y       z     vdW  Elec       q    Type
REMARK                         _______ _______ _______ _____ _____    ______ ____
ROOT
ATOM      1  C   UNL     1      -0.366   1.711  -0.064  0.00  0.00    +0.066 C 
ATOM      2  C   UNL     1      -0.249   0.212   0.033  0.00  0.00    +0.053 C 
ATOM      3  C   UNL     1      -1.390  -0.568   0.024  0.00  0.00    +0.082 C 
ATOM      4  C   UNL     1      -1.220  -2.067   0.123  0.00  0.00    +0.150 C 
ATOM      5  N   UNL     1       0.171  -2.586   0.223  0.00  0.00    -0.267 N 
ATOM      6  C   UNL     1       0.560  -3.907   0.322  0.00  0.00    +0.048 C 
ATOM      7  C   UNL     1       1.884  -4.166   0.402  0.00  0.00    +0.072 C 
ATOM      8  S   UNL     1       2.584  -2.529   0.338  0.00  0.00    -0.060 S 
ATOM      9  C   UNL     1       1.163  -1.645   0.215  0.00  0.00    +0.166 C 
ATOM     10  N   UNL     1       0.946  -0.350   0.121  0.00  0.00    -0.230 NA
ENDROOT
BRANCH   4  11
ATOM     11  C   UNL     1      -1.859  -2.688  -1.092  0.00  0.00    -0.022 A 
ATOM     12  C   UNL     1      -1.239  -2.593  -2.324  0.00  0.00    +0.007 A 
ATOM     13  C   UNL     1      -1.825  -3.162  -3.439  0.00  0.00    +0.020 A 
ATOM     14  C   UNL     1      -3.033  -3.827  -3.322  0.00  0.00    +0.041 A 
ATOM     15  C   UNL     1      -3.653  -3.922  -2.089  0.00  0.00    +0.020 A 
ATOM     16  C   UNL     1      -3.063  -3.357  -0.974  0.00  0.00    +0.007 A 
ATOM     17 CL   UNL     1      -3.770  -4.542  -4.722  0.00  0.00    -0.084 Cl
ENDBRANCH   4  11
BRANCH   6  18
ATOM     18  C   UNL     1      -0.431  -4.993   0.339  0.00  0.00    +0.091 C 
ATOM     19  C   UNL     1      -0.039  -6.258   0.584  0.00  0.00    +0.239 C 
ATOM     20  O   UNL     1       1.243  -6.513   0.943  0.00  0.00    -0.271 OA
BRANCH  19  21
ATOM     21  N   UNL     1      -0.945  -7.298   0.468  0.00  0.00    -0.309 N 
ATOM     22  H   UNL     1      -1.879  -7.110   0.286  0.00  0.00    +0.149 HD
BRANCH  21  23
ATOM     23  C   UNL     1      -0.494  -8.684   0.622  0.00  0.00    +0.070 C 
ATOM     24  C   UNL     1       0.106  -9.176  -0.698  0.00  0.00    +0.003 C 
ATOM     25  C   UNL     1       0.503 -10.647  -0.555  0.00  0.00    -0.077 C 
ATOM     26  N   UNL     1      -0.683 -11.447  -0.226  0.00  0.00    +0.378 N 
ATOM     27  C   UNL     1      -1.222 -11.028   1.073  0.00  0.00    -0.077 C 
ATOM     28  C   UNL     1      -1.685  -9.572   0.993  0.00  0.00    +0.003 C 
ATOM     29  C   UNL     1      -0.313 -12.867  -0.166  0.00  0.00    -0.096 C 
ATOM     30  H   UNL     1      -1.385 -11.315  -0.939  0.00  0.00    -0.082 HD
ENDBRANCH  21  23
ENDBRANCH  19  21
ENDBRANCH   6  18
BRANCH   3  31
ATOM     31  C   UNL     1      -2.661   0.011  -0.073  0.00  0.00    +0.339 C 
ATOM     32  O   UNL     1      -2.774   1.222  -0.152  0.00  0.00    -0.245 OA
BRANCH  31  33
ATOM     33  O   UNL     1      -3.762  -0.773  -0.080  0.00  0.00    -0.465 OA
ATOM     34  C   UNL     1      -5.026  -0.114  -0.182  0.00  0.00    +0.280 C 
ENDBRANCH  31  33
ENDBRANCH   3  31
TORSDOF 6
