REMARK  Name = ZINC22048795
REMARK  14 active torsions:
REMARK  status: ('A' for Active; 'I' for Inactive)
REMARK    1  A    between atoms: C_3  and  S_8
REMARK    2  A    between atoms: C_6  and  N_7
REMARK    3  A    between atoms: S_8  and  C_9
REMARK    4  A    between atoms: C_11  and  O_40
REMARK    5  A    between atoms: C_13  and  O_39
REMARK    6  A    between atoms: C_15  and  O_22
REMARK    7  A    between atoms: C_17  and  C_20
REMARK    8  A    between atoms: C_20  and  O_21
REMARK    9  A    between atoms: O_22  and  C_23
REMARK   10  A    between atoms: C_25  and  O_38
REMARK   11  A    between atoms: C_27  and  O_37
REMARK   12  A    between atoms: C_29  and  O_36
REMARK   13  A    between atoms: C_31  and  C_34
REMARK   14  A    between atoms: C_34  and  O_35
REMARK                            x       y       z     vdW  Elec       q    Type
REMARK                         _______ _______ _______ _____ _____    ______ ____
ROOT
ATOM      1  C   UNL     1      -2.991   0.699  -5.497  0.00  0.00    +0.212 C 
ATOM      2  C   UNL     1      -1.559   0.624  -6.033  0.00  0.00    +0.185 C 
ATOM      3  C   UNL     1      -0.599   0.367  -4.867  0.00  0.00    +0.178 C 
ATOM      4  C   UNL     1      -0.771   1.474  -3.824  0.00  0.00    +0.183 C 
ATOM      5  C   UNL     1      -2.234   1.517  -3.373  0.00  0.00    +0.176 C 
ATOM      6  O   UNL     1      -3.075   1.728  -4.509  0.00  0.00    -0.355 OA
ENDROOT
BRANCH   3   7
ATOM      7  O   UNL     1      -0.895  -0.899  -4.274  0.00  0.00    -0.386 OA
ATOM      8  H   UNL     1      -0.305  -1.257  -3.417  0.00  0.00    +0.210 HD
ENDBRANCH   3   7
BRANCH   2   9
ATOM      9  O   UNL     1      -1.222   1.859  -6.668  0.00  0.00    -0.386 OA
ATOM     10  H   UNL     1      -0.226   1.992  -7.116  0.00  0.00    +0.210 HD
ENDBRANCH   2   9
BRANCH   1  11
ATOM     11  S   UNL     1      -4.128   1.074  -6.859  0.00  0.00    -0.091 S 
BRANCH  11  14
ATOM     12  C   UNL     1      -8.111   1.146  -6.305  0.00  0.00    +0.024 A 
ATOM     13  C   UNL     1      -6.860   1.218  -6.885  0.00  0.00    +0.016 A 
ATOM     14  C   UNL     1      -5.725   0.982  -6.119  0.00  0.00    +0.011 A 
ATOM     15  C   UNL     1      -5.849   0.668  -4.772  0.00  0.00    +0.016 A 
ATOM     16  C   UNL     1      -7.100   0.601  -4.191  0.00  0.00    +0.024 A 
ATOM     17  C   UNL     1      -8.235   0.837  -4.957  0.00  0.00    +0.025 A 
BRANCH  17  18
ATOM     18  N   UNL     1      -9.503   0.764  -4.369  0.00  0.00    -0.358 N 
ATOM     19  H   UNL     1      -9.601   0.519  -3.301  0.00  0.00    +0.142 HD
ATOM     20  H   UNL     1     -10.402   0.951  -4.975  0.00  0.00    +0.142 HD
ENDBRANCH  17  18
ENDBRANCH  11  14
ENDBRANCH   1  11
BRANCH   5  21
ATOM     21  C   UNL     1      -2.427   2.660  -2.375  0.00  0.00    +0.190 C 
BRANCH  21  22
ATOM     22  O   UNL     1      -3.764   2.632  -1.871  0.00  0.00    -0.392 OA
ATOM     23  H   UNL     1      -4.091   3.383  -1.137  0.00  0.00    +0.210 HD
ENDBRANCH  21  22
ENDBRANCH   5  21
BRANCH   4  24
ATOM     24  O   UNL     1       0.068   1.206  -2.699  0.00  0.00    -0.340 OA
BRANCH  24  25
ATOM     25  C   UNL     1       1.415   1.653  -2.859  0.00  0.00    +0.282 C 
ATOM     26  C   UNL     1       2.284   1.065  -1.743  0.00  0.00    +0.201 C 
ATOM     27  C   UNL     1       1.781   1.579  -0.391  0.00  0.00    +0.179 C 
ATOM     28  C   UNL     1       1.803   3.111  -0.397  0.00  0.00    +0.177 C 
ATOM     29  C   UNL     1       0.953   3.619  -1.566  0.00  0.00    +0.178 C 
ATOM     30  O   UNL     1       1.455   3.080  -2.790  0.00  0.00    -0.341 OA
BRANCH  28  31
ATOM     31  O   UNL     1       1.269   3.601   0.835  0.00  0.00    -0.386 OA
ATOM     32  H   UNL     1       1.204   4.684   1.014  0.00  0.00    +0.210 HD
ENDBRANCH  28  31
BRANCH  27  33
ATOM     33  O   UNL     1       0.445   1.121  -0.172  0.00  0.00    -0.386 OA
ATOM     34  H   UNL     1      -0.085   1.392   0.753  0.00  0.00    +0.210 HD
ENDBRANCH  27  33
BRANCH  26  35
ATOM     35  O   UNL     1       3.642   1.469  -1.933  0.00  0.00    -0.384 OA
ATOM     36  H   UNL     1       4.417   1.141  -1.225  0.00  0.00    +0.210 HD
ENDBRANCH  26  35
BRANCH  29  37
ATOM     37  C   UNL     1       1.018   5.147  -1.617  0.00  0.00    +0.190 C 
BRANCH  37  38
ATOM     38  O   UNL     1       0.135   5.628  -2.633  0.00  0.00    -0.392 OA
ATOM     39  H   UNL     1       0.046   6.709  -2.818  0.00  0.00    +0.210 HD
ENDBRANCH  37  38
ENDBRANCH  29  37
ENDBRANCH  24  25
ENDBRANCH   4  24
TORSDOF 14
