REMARK  Name = ZINC65168943
REMARK  10 active torsions:
REMARK  status: ('A' for Active; 'I' for Inactive)
REMARK    1  A    between atoms: C_1  and  C_2
REMARK    2  A    between atoms: N_5  and  C_8
REMARK    3  A    between atoms: C_8  and  C_9
REMARK    4  A    between atoms: C_9  and  C_10
REMARK    5  A    between atoms: C_9  and  O_26
REMARK    6  A    between atoms: C_10  and  S_11
REMARK    7  A    between atoms: S_11  and  C_12
REMARK    8  A    between atoms: N_17  and  C_18
REMARK    9  A    between atoms: C_23  and  O_24
REMARK   10  A    between atoms: O_24  and  C_25
REMARK                            x       y       z     vdW  Elec       q    Type
REMARK                         _______ _______ _______ _____ _____    ______ ____
ROOT
ATOM      1  C   UNL     1       4.558  -7.994   1.842  0.00  0.00    +0.160 A 
ATOM      2  N   UNL     1       4.075  -8.757   0.879  0.00  0.00    -0.133 NA
ATOM      3  N   UNL     1       4.420 -10.088   0.823  0.00  0.00    -0.125 NA
ATOM      4  C   UNL     1       5.231 -10.594   1.732  0.00  0.00    +0.187 A 
ATOM      5  S   UNL     1       5.564  -9.161   2.745  0.00  0.00    -0.024 S 
ATOM      6  N   UNL     1       5.704 -11.895   1.863  0.00  0.00    -0.289 N 
ATOM      7  H   UNL     1       6.242 -12.140   2.633  0.00  0.00    +0.154 HD
ENDROOT
BRANCH   6   8
ATOM      8  C   UNL     1       5.405 -12.850   0.885  0.00  0.00    +0.075 A 
ATOM      9  C   UNL     1       4.528 -12.541  -0.145  0.00  0.00    +0.027 A 
ATOM     10  C   UNL     1       4.235 -13.486  -1.109  0.00  0.00    +0.002 A 
ATOM     11  C   UNL     1       4.813 -14.740  -1.052  0.00  0.00    +0.004 A 
ATOM     12  C   UNL     1       5.689 -15.056  -0.029  0.00  0.00    +0.047 A 
ATOM     13  C   UNL     1       5.992 -14.113   0.939  0.00  0.00    +0.141 A 
BRANCH  13  14
ATOM     14  O   UNL     1       6.857 -14.420   1.943  0.00  0.00    -0.493 OA
ATOM     15  C   UNL     1       7.421 -15.733   1.934  0.00  0.00    +0.277 C 
ENDBRANCH  13  14
ENDBRANCH   6   8
BRANCH   1  16
ATOM     16  S   UNL     1       4.287  -6.280   2.150  0.00  0.00    -0.094 S 
BRANCH  16  17
ATOM     17  C   UNL     1       3.158  -5.769   0.824  0.00  0.00    +0.106 C 
BRANCH  17  18
ATOM     18  C   UNL     1       2.836  -4.281   0.974  0.00  0.00    +0.108 C 
BRANCH  18  19
ATOM     19  O   UNL     1       2.217  -4.053   2.242  0.00  0.00    -0.393 OA
ATOM     20  H   UNL     1       1.390  -4.538   2.368  0.00  0.00    +0.210 HD
ENDBRANCH  18  19
BRANCH  18  21
ATOM     21  C   UNL     1       1.885  -3.850  -0.143  0.00  0.00    -0.046 C 
BRANCH  21  26
ATOM     22  C   UNL     1       1.090   1.766  -0.738  0.00  0.00    +0.007 C 
ATOM     23  C   UNL     1       1.435   0.299  -1.004  0.00  0.00    -0.018 C 
ATOM     24  C   UNL     1       2.528  -0.154  -0.031  0.00  0.00    -0.016 C 
ATOM     25  C   UNL     1       2.812  -1.642  -0.249  0.00  0.00    -0.078 C 
ATOM     26  N   UNL     1       1.589  -2.417  -0.009  0.00  0.00    +0.381 N 
ATOM     27  C   UNL     1       0.559  -2.039  -0.985  0.00  0.00    -0.078 C 
ATOM     28  C   UNL     1       0.189  -0.566  -0.795  0.00  0.00    -0.016 C 
ATOM     29  H   UNL     1       1.251  -2.232   0.923  0.00  0.00    -0.082 HD
ENDBRANCH  21  26
ENDBRANCH  18  21
ENDBRANCH  17  18
ENDBRANCH  16  17
ENDBRANCH   1  16
TORSDOF 8
