REMARK  Name = ZINC17315367
REMARK  4 active torsions:
REMARK  status: ('A' for Active; 'I' for Inactive)
REMARK    1  A    between atoms: C_1  and  C_2
REMARK    2  A    between atoms: C_10  and  O_26
REMARK    3  A    between atoms: C_21  and  C_22
REMARK    4  A    between atoms: C_21  and  O_25
REMARK                            x       y       z     vdW  Elec       q    Type
REMARK                         _______ _______ _______ _____ _____    ______ ____
ROOT
ATOM      1  C   UNL     1       0.073  -0.529   1.437  0.00  0.00    +0.015 C 
ATOM      2  C   UNL     1       0.002  -0.004   0.002  0.00  0.00    +0.011 C 
ATOM      3  C   UNL     1      -1.127  -0.693  -0.741  0.00  0.00    +0.011 C 
ATOM      4  C   UNL     1      -0.898  -2.207  -0.609  0.00  0.00    +0.009 C 
ATOM      5  C   UNL     1       0.469  -2.620  -1.136  0.00  0.00    +0.023 C 
ATOM      6  C   UNL     1       0.502  -2.524  -2.637  0.00  0.00    -0.041 A 
ATOM      7  C   UNL     1      -0.644  -2.889  -3.334  0.00  0.00    +0.008 A 
ATOM      8  C   UNL     1      -0.678  -2.830  -4.710  0.00  0.00    +0.046 A 
ATOM      9  C   UNL     1       0.442  -2.402  -5.409  0.00  0.00    +0.117 A 
ATOM     10  C   UNL     1       1.583  -2.036  -4.715  0.00  0.00    +0.049 A 
ATOM     11  C   UNL     1       1.613  -2.095  -3.328  0.00  0.00    -0.040 A 
ATOM     12  C   UNL     1       2.882  -1.671  -2.636  0.00  0.00    +0.036 C 
ATOM     13  C   UNL     1       2.916  -2.202  -1.205  0.00  0.00    +0.009 C 
ATOM     14  C   UNL     1       1.607  -1.810  -0.510  0.00  0.00    +0.000 C 
ATOM     15  C   UNL     1       1.318  -0.340  -0.750  0.00  0.00    +0.002 C 
ATOM     16  C   UNL     1       2.302   0.644  -0.107  0.00  0.00    +0.008 C 
ATOM     17  C   UNL     1       1.470   1.951  -0.002  0.00  0.00    +0.049 C 
ATOM     18  C   UNL     1      -0.019   1.521   0.010  0.00  0.00    +0.133 C 
ENDROOT
BRANCH  18  19
ATOM     19  C   UNL     1      -0.706   2.028  -1.188  0.00  0.00    -0.050 C 
ATOM     20  C   UNL     1      -1.254   2.433  -2.145  0.00  0.00    +0.007 C 
ATOM     21 CL   UNL     1      -2.019   2.998  -3.480  0.00  0.00    -0.023 Cl
ENDBRANCH  18  19
BRANCH  18  22
ATOM     22  O   UNL     1      -0.663   2.001   1.192  0.00  0.00    -0.376 OA
ATOM     23  H   UNL     1      -0.706   2.965   1.253  0.00  0.00    +0.211 HD
ENDBRANCH  18  22
BRANCH   9  24
ATOM     24  O   UNL     1       0.419  -2.343  -6.766  0.00  0.00    -0.507 OA
ATOM     25  H   UNL     1       0.121  -1.493  -7.118  0.00  0.00    +0.292 HD
ENDBRANCH   9  24
TORSDOF 3
