REMARK  Name = ZINC19927709
REMARK  14 active torsions:
REMARK  status: ('A' for Active; 'I' for Inactive)
REMARK    1  A    between atoms: C_1  and  C_2
REMARK    2  A    between atoms: C_3  and  C_36
REMARK    3  A    between atoms: C_9  and  C_35
REMARK    4  A    between atoms: C_20  and  O_31
REMARK    5  A    between atoms: C_24  and  C_30
REMARK    6  A    between atoms: O_31  and  C_32
REMARK    7  A    between atoms: C_32  and  C_34
REMARK    8  A    between atoms: C_36  and  C_37
REMARK    9  A    between atoms: C_37  and  C_38
REMARK   10  A    between atoms: C_38  and  C_40
REMARK   11  A    between atoms: C_38  and  C_41
REMARK   12  A    between atoms: C_41  and  O_42
REMARK   13  A    between atoms: O_42  and  C_43
REMARK   14  A    between atoms: C_43  and  C_45
REMARK                            x       y       z     vdW  Elec       q    Type
REMARK                         _______ _______ _______ _____ _____    ______ ____
ROOT
ATOM      1  C   UNL     1       3.038   0.677   2.045  0.00  0.00    +0.043 C 
ATOM      2  C   UNL     1       1.883   0.628   1.078  0.00  0.00    -0.028 C 
ATOM      3  C   UNL     1       0.910  -0.302   1.005  0.00  0.00    +0.098 C 
ATOM      4  O   UNL     1       0.002  -0.004   0.002  0.00  0.00    -0.492 OA
ATOM      5  C   UNL     1      -0.017   1.429   0.010  0.00  0.00    +0.181 C 
ATOM      6  C   UNL     1       1.572   1.552  -0.005  0.00  0.00    +0.072 C 
ATOM      7  C   UNL     1       1.730   2.999  -0.247  0.00  0.00    +0.039 C 
ATOM      8  C   UNL     1       0.799   3.134  -1.501  0.00  0.00    +0.010 C 
ATOM      9  C   UNL     1      -0.375   2.198  -1.267  0.00  0.00    +0.050 C 
ATOM     10  C   UNL     1       0.646   4.544  -1.916  0.00  0.00    -0.003 C 
ATOM     11  C   UNL     1      -0.414   4.782  -2.979  0.00  0.00    +0.004 C 
ATOM     12  C   UNL     1       0.066   4.487  -4.390  0.00  0.00    +0.004 C 
ATOM     13  C   UNL     1       1.493   3.956  -4.392  0.00  0.00    -0.001 C 
ATOM     14  C   UNL     1       1.946   3.687  -5.828  0.00  0.00    +0.048 C 
ATOM     15  C   UNL     1       3.342   3.063  -5.798  0.00  0.00    +0.177 C 
ATOM     16  C   UNL     1       4.316   4.031  -5.128  0.00  0.00    +0.045 C 
ATOM     17  C   UNL     1       3.857   4.360  -3.709  0.00  0.00    +0.011 C 
ATOM     18  C   UNL     1       2.439   4.929  -3.696  0.00  0.00    -0.026 C 
ATOM     19  C   UNL     1       1.974   5.218  -2.271  0.00  0.00    +0.006 C 
ATOM     20  C   UNL     1       3.059   4.940  -1.234  0.00  0.00    +0.079 C 
ATOM     21  C   UNL     1       3.054   3.491  -0.782  0.00  0.00    +0.140 C 
ATOM     22  O   UNL     1       4.032   2.790  -0.842  0.00  0.00    -0.297 OA
ATOM     23  C   UNL     1       2.453   6.266  -4.453  0.00  0.00    +0.012 C 
ATOM     24  C   UNL     1       1.267   3.822   0.956  0.00  0.00    +0.020 C 
ENDROOT
BRANCH  15  25
ATOM     25  O   UNL     1       3.780   2.790  -7.156  0.00  0.00    -0.462 OA
BRANCH  25  26
ATOM     26  C   UNL     1       4.611   1.751  -7.331  0.00  0.00    +0.304 C 
ATOM     27  O   UNL     1       4.962   1.091  -6.381  0.00  0.00    -0.251 OA
ATOM     28  C   UNL     1       5.107   1.407  -8.712  0.00  0.00    +0.136 C 
ENDBRANCH  25  26
ENDBRANCH  15  25
BRANCH   3  29
ATOM     29  C   UNL     1       0.826  -1.513   1.898  0.00  0.00    +0.074 C 
BRANCH  29  30
ATOM     30  C   UNL     1      -0.098  -1.211   3.080  0.00  0.00    +0.014 C 
BRANCH  30  31
ATOM     31  C   UNL     1      -0.183  -2.440   3.987  0.00  0.00    +0.024 C 
ATOM     32  C   UNL     1      -0.856  -3.587   3.231  0.00  0.00    +0.011 C 
BRANCH  31  33
ATOM     33  C   UNL     1      -1.005  -2.099   5.232  0.00  0.00    +0.235 C 
BRANCH  33  34
ATOM     34  O   UNL     1      -0.987  -3.227   6.147  0.00  0.00    -0.465 OA
BRANCH  34  35
ATOM     35  C   UNL     1      -1.667  -3.089   7.297  0.00  0.00    +0.304 C 
ATOM     36  O   UNL     1      -2.256  -2.060   7.531  0.00  0.00    -0.251 OA
ATOM     37  C   UNL     1      -1.693  -4.216   8.296  0.00  0.00    +0.136 C 
ENDBRANCH  34  35
ENDBRANCH  33  34
ENDBRANCH  31  33
ENDBRANCH  30  31
ENDBRANCH  29  30
ENDBRANCH   3  29
TORSDOF 8
