REMARK  Name = ZINC09349063
REMARK  10 active torsions:
REMARK  status: ('A' for Active; 'I' for Inactive)
REMARK    1  A    between atoms: C_1  and  C_2
REMARK    2  A    between atoms: C_2  and  S_3
REMARK    3  A    between atoms: S_3  and  N_6
REMARK    4  A    between atoms: N_6  and  C_7
REMARK    5  A    between atoms: C_10  and  C_13
REMARK    6  A    between atoms: N_15  and  S_27
REMARK    7  A    between atoms: C_16  and  C_19
REMARK    8  A    between atoms: C_22  and  O_25
REMARK    9  A    between atoms: O_25  and  C_26
REMARK   10  A    between atoms: S_27  and  C_30
REMARK                            x       y       z     vdW  Elec       q    Type
REMARK                         _______ _______ _______ _____ _____    ______ ____
ROOT
ATOM      1  C   UNL     1       4.114   4.112   1.314  0.00  0.00    +0.070 C 
ATOM      2  N   UNL     1       3.900   4.426   0.084  0.00  0.00    -0.167 NA
ATOM      3  N   UNL     1       3.673   3.334  -0.751  0.00  0.00    -0.115 N 
ATOM      4  C   UNL     1       3.748   2.100   0.047  0.00  0.00    +0.154 C 
ATOM      5  C   UNL     1       4.051   2.609   1.471  0.00  0.00    +0.088 C 
ENDROOT
BRANCH   1   9
ATOM      6  C   UNL     1       4.885   6.870   4.449  0.00  0.00    +0.048 A 
ATOM      7  C   UNL     1       4.667   7.333   3.156  0.00  0.00    +0.025 A 
ATOM      8  C   UNL     1       4.417   6.441   2.137  0.00  0.00    +0.011 A 
ATOM      9  C   UNL     1       4.382   5.070   2.403  0.00  0.00    -0.002 A 
ATOM     10  C   UNL     1       4.596   4.609   3.705  0.00  0.00    +0.011 A 
ATOM     11  C   UNL     1       4.851   5.506   4.718  0.00  0.00    +0.025 A 
BRANCH   6  12
ATOM     12  N   UNL     1       5.138   7.777   5.480  0.00  0.00    -0.221 N 
ATOM     13  H   UNL     1       5.776   8.496   5.348  0.00  0.00    +0.173 HD
BRANCH  12  14
ATOM     14  S   UNL     1       4.350   7.625   6.928  0.00  0.00    +0.043 S 
ATOM     15  O   UNL     1       4.617   6.295   7.349  0.00  0.00    -0.155 OA
ATOM     16  O   UNL     1       4.795   8.732   7.701  0.00  0.00    -0.155 OA
BRANCH  14  18
ATOM     17  C   UNL     1       1.769   7.813   7.814  0.00  0.00    +0.030 C 
ATOM     18  C   UNL     1       2.591   7.812   6.524  0.00  0.00    +0.185 C 
ENDBRANCH  14  18
ENDBRANCH  12  14
ENDBRANCH   6  12
ENDBRANCH   1   9
BRANCH   4  19
ATOM     19  C   UNL     1       2.433   1.367   0.014  0.00  0.00    -0.023 A 
ATOM     20  C   UNL     1       1.247   2.077  -0.041  0.00  0.00    +0.009 A 
ATOM     21  C   UNL     1       0.040   1.407  -0.071  0.00  0.00    +0.046 A 
ATOM     22  C   UNL     1       0.017   0.020  -0.046  0.00  0.00    +0.120 A 
ATOM     23  C   UNL     1       1.207  -0.691   0.009  0.00  0.00    +0.046 A 
ATOM     24  C   UNL     1       2.412  -0.016   0.039  0.00  0.00    +0.009 A 
BRANCH  22  25
ATOM     25  O   UNL     1      -1.170  -0.642  -0.075  0.00  0.00    -0.495 OA
ATOM     26  C   UNL     1      -1.117  -2.070  -0.047  0.00  0.00    +0.277 C 
ENDBRANCH  22  25
ENDBRANCH   4  19
BRANCH   3  27
ATOM     27  S   UNL     1       3.369   3.412  -2.377  0.00  0.00    +0.089 S 
ATOM     28  O   UNL     1       4.021   4.580  -2.857  0.00  0.00    -0.149 OA
ATOM     29  O   UNL     1       3.637   2.120  -2.903  0.00  0.00    -0.149 OA
BRANCH  27  30
ATOM     30  C   UNL     1       1.639   3.686  -2.571  0.00  0.00    +0.110 A 
ATOM     31  C   UNL     1       0.776   2.610  -2.674  0.00  0.00    +0.029 A 
ATOM     32  C   UNL     1      -0.581   2.825  -2.821  0.00  0.00    +0.002 A 
ATOM     33  C   UNL     1      -1.075   4.115  -2.875  0.00  0.00    +0.000 A 
ATOM     34  C   UNL     1      -0.212   5.190  -2.776  0.00  0.00    +0.002 A 
ATOM     35  C   UNL     1       1.145   4.976  -2.624  0.00  0.00    +0.029 A 
ENDBRANCH  27  30
ENDBRANCH   3  27
TORSDOF 8
