REMARK  Name = ZINC47752089
REMARK  7 active torsions:
REMARK  status: ('A' for Active; 'I' for Inactive)
REMARK    1  A    between atoms: C_1  and  C_2
REMARK    2  A    between atoms: C_2  and  C_3
REMARK    3  A    between atoms: C_2  and  C_4
REMARK    4  A    between atoms: C_9  and  N_12
REMARK    5  A    between atoms: N_15  and  C_16
REMARK    6  A    between atoms: C_16  and  C_17
REMARK    7  A    between atoms: C_17  and  N_23
REMARK                            x       y       z     vdW  Elec       q    Type
REMARK                         _______ _______ _______ _____ _____    ______ ____
ROOT
ATOM      1  N   UNL     1      -0.103   2.370   5.802  0.00  0.00    -0.296 N 
ATOM      2  C   UNL     1       0.182   2.051   7.080  0.00  0.00    +0.300 C 
ATOM      3  O   UNL     1       0.204   0.885   7.426  0.00  0.00    -0.253 OA
ATOM      4  N   UNL     1       0.444   3.024   7.976  0.00  0.00    -0.301 N 
ATOM      5  H   UNL     1      -0.120   3.300   5.527  0.00  0.00    +0.151 HD
ATOM      6  H   UNL     1       0.426   3.954   7.700  0.00  0.00    +0.150 HD
ENDROOT
BRANCH   1  12
ATOM      7  C   UNL     1      -0.036   0.044   0.938  0.00  0.00    +0.218 C 
ATOM      8  O   UNL     1       0.961  -0.544   0.575  0.00  0.00    -0.275 OA
ATOM      9  N   UNL     1      -0.316   0.149   2.252  0.00  0.00    -0.301 N 
ATOM     10  C   UNL     1      -1.574   0.759   2.703  0.00  0.00    +0.109 C 
ATOM     11  C   UNL     1      -1.251   1.876   3.700  0.00  0.00    +0.041 C 
ATOM     12  C   UNL     1      -0.386   1.312   4.829  0.00  0.00    +0.077 C 
ATOM     13  C   UNL     1       0.929   0.784   4.252  0.00  0.00    +0.041 C 
ATOM     14  C   UNL     1       0.628  -0.350   3.261  0.00  0.00    +0.109 C 
BRANCH   7  16
ATOM     15  C   UNL     1      -0.639   2.146  -0.232  0.00  0.00    +0.017 C 
ATOM     16  C   UNL     1      -0.961   0.658  -0.081  0.00  0.00    +0.069 C 
ATOM     17  C   UNL     1      -0.774  -0.044  -1.428  0.00  0.00    +0.017 C 
ENDBRANCH   7  16
ENDBRANCH   1  12
BRANCH   4  18
ATOM     18  C   UNL     1       0.753   2.678   9.365  0.00  0.00    +0.094 C 
BRANCH  18  19
ATOM     19  C   UNL     1       1.135   3.944  10.133  0.00  0.00    -0.050 C 
ATOM     20  C   UNL     1       1.584   3.568  11.547  0.00  0.00    -0.010 C 
ATOM     21  C   UNL     1       0.441   2.856  12.272  0.00  0.00    -0.001 C 
ATOM     22  C   UNL     1      -0.770   3.788  12.353  0.00  0.00    -0.000 C 
ATOM     23  C   UNL     1      -1.219   4.165  10.940  0.00  0.00    -0.001 C 
ATOM     24  C   UNL     1      -0.076   4.876  10.214  0.00  0.00    -0.010 C 
BRANCH  19  25
ATOM     25  N   UNL     1       2.233   4.628   9.437  0.00  0.00    +0.384 N 
ATOM     26  C   UNL     1       3.380   3.718   9.323  0.00  0.00    -0.078 C 
ATOM     27  C   UNL     1       4.497   4.397   8.527  0.00  0.00    -0.019 C 
ATOM     28  C   UNL     1       4.927   5.676   9.251  0.00  0.00    -0.004 C 
ATOM     29  C   UNL     1       3.708   6.585   9.429  0.00  0.00    -0.019 C 
ATOM     30  C   UNL     1       2.620   5.825  10.192  0.00  0.00    -0.078 C 
ATOM     31  H   UNL     1       1.928   4.897   8.513  0.00  0.00    -0.081 HD
ENDBRANCH  19  25
ENDBRANCH  18  19
ENDBRANCH   4  18
TORSDOF 5
