REMARK  Name = ZINC13728713
REMARK  7 active torsions:
REMARK  status: ('A' for Active; 'I' for Inactive)
REMARK    1  A    between atoms: C_9  and  O_26
REMARK    2  A    between atoms: C_10  and  C_11
REMARK    3  A    between atoms: C_11  and  N_12
REMARK    4  A    between atoms: N_12  and  C_13
REMARK    5  A    between atoms: C_22  and  O_25
REMARK    6  A    between atoms: O_26  and  C_27
REMARK    7  A    between atoms: C_27  and  C_28
REMARK                            x       y       z     vdW  Elec       q    Type
REMARK                         _______ _______ _______ _____ _____    ______ ____
ROOT
ATOM      1  C   UNL     1      -1.235   1.746   0.018  0.00  0.00    +0.001 A 
ATOM      2  C   UNL     1      -0.013   1.076   0.008  0.00  0.00    +0.001 A 
ATOM      3  C   UNL     1       1.163   1.762   0.000  0.00  0.00    +0.009 A 
ATOM      4  C   UNL     1       1.147   3.168   0.008  0.00  0.00    -0.013 A 
ATOM      5  C   UNL     1      -0.096   3.849   0.024  0.00  0.00    -0.017 A 
ATOM      6  C   UNL     1      -1.289   3.106   0.031  0.00  0.00    +0.008 A 
ATOM      7  C   UNL     1      -0.114   5.255   0.031  0.00  0.00    +0.012 A 
ATOM      8  C   UNL     1       1.059   5.944   0.023  0.00  0.00    +0.046 A 
ATOM      9  C   UNL     1       2.286   5.274   0.007  0.00  0.00    +0.123 A 
ATOM     10  C   UNL     1       2.340   3.909   0.000  0.00  0.00    -0.015 A 
ENDROOT
BRANCH  10  11
ATOM     11  C   UNL     1       3.671   3.203  -0.016  0.00  0.00    -0.042 C 
BRANCH  11  12
ATOM     12  N   UNL     1       4.090   2.980  -1.406  0.00  0.00    +0.386 N 
ATOM     13  H   UNL     1       3.341   2.361  -1.920  0.00  0.00    -0.085 HD
ATOM     14  H   UNL     1       4.182   3.948  -1.921  0.00  0.00    -0.085 HD
BRANCH  12  15
ATOM     15  C   UNL     1       5.387   2.292  -1.461  0.00  0.00    -0.065 C 
ATOM     16  C   UNL     1       6.447   3.145  -0.759  0.00  0.00    -0.009 C 
ATOM     17  C   UNL     1       7.797   2.428  -0.816  0.00  0.00    -0.009 C 
ATOM     18  C   UNL     1       7.686   1.073  -0.114  0.00  0.00    +0.007 C 
ATOM     19  C   UNL     1       6.627   0.221  -0.816  0.00  0.00    -0.009 C 
ATOM     20  C   UNL     1       5.276   0.938  -0.759  0.00  0.00    -0.009 C 
ATOM     21  C   UNL     1       7.029   0.007  -2.276  0.00  0.00    +0.038 C 
ATOM     22  C   UNL     1       7.140   1.362  -2.978  0.00  0.00    +0.065 C 
ATOM     23  C   UNL     1       8.200   2.214  -2.277  0.00  0.00    +0.038 C 
ATOM     24  C   UNL     1       5.790   2.078  -2.921  0.00  0.00    +0.022 C 
BRANCH  22  25
ATOM     25  O   UNL     1       7.516   1.162  -4.342  0.00  0.00    -0.389 OA
ATOM     26  H   UNL     1       7.646   2.027  -5.010  0.00  0.00    +0.210 HD
ENDBRANCH  22  25
ENDBRANCH  12  15
ENDBRANCH  11  12
ENDBRANCH  10  11
BRANCH   9  27
ATOM     27  O   UNL     1       3.441   5.991  -0.001  0.00  0.00    -0.487 OA
BRANCH  27  28
ATOM     28  C   UNL     1       3.321   7.415   0.007  0.00  0.00    +0.267 C 
BRANCH  28  29
ATOM     29  C   UNL     1       4.694   8.034  -0.003  0.00  0.00    +0.025 A 
ATOM     30  C   UNL     1       5.817   7.228  -0.013  0.00  0.00    +0.010 A 
ATOM     31  C   UNL     1       7.077   7.796  -0.029  0.00  0.00    +0.001 A 
ATOM     32  C   UNL     1       7.216   9.172  -0.023  0.00  0.00    +0.003 A 
ATOM     33  C   UNL     1       6.095   9.980  -0.008  0.00  0.00    +0.039 A 
ATOM     34  C   UNL     1       4.833   9.412   0.002  0.00  0.00    +0.130 A 
ATOM     35  F   UNL     1       3.736  10.201   0.018  0.00  0.00    -0.205 F 
ENDBRANCH  28  29
ENDBRANCH  27  28
ENDBRANCH   9  27
TORSDOF 7
