REMARK  Name = ZINC06193778
REMARK  9 active torsions:
REMARK  status: ('A' for Active; 'I' for Inactive)
REMARK    1  A    between atoms: C_1  and  C_2
REMARK    2  A    between atoms: C_2  and  N_66
REMARK    3  A    between atoms: C_3  and  C_4
REMARK    4  A    between atoms: C_3  and  N_66
REMARK    5  A    between atoms: C_10  and  C_12
REMARK    6  A    between atoms: C_10  and  C_25
REMARK    7  A    between atoms: C_10  and  N_66
REMARK    8  A    between atoms: C_17  and  C_24
REMARK    9  A    between atoms: N_29  and  C_30
REMARK                            x       y       z     vdW  Elec       q    Type
REMARK                         _______ _______ _______ _____ _____    ______ ____
ROOT
ATOM      1  C   UNL     1       3.483   0.866   0.011  0.00  0.00    +0.039 C 
ENDROOT
BRANCH   1   2
ATOM      2  C   UNL     1       4.039   1.367  -1.297  0.00  0.00    +0.011 A 
ATOM      3  C   UNL     1       4.641   0.503  -2.151  0.00  0.00    +0.017 A 
ATOM      4  C   UNL     1       5.170   1.022  -3.413  0.00  0.00    -0.001 A 
ATOM      5  C   UNL     1       5.800   0.179  -4.335  0.00  0.00    +0.010 A 
ATOM      6  C   UNL     1       6.284   0.694  -5.504  0.00  0.00    +0.004 A 
ATOM      7  C   UNL     1       6.155   2.047  -5.786  0.00  0.00    -0.048 A 
ATOM      8  C   UNL     1       5.537   2.896  -4.894  0.00  0.00    +0.029 A 
ATOM      9  C   UNL     1       5.038   2.394  -3.696  0.00  0.00    +0.049 A 
ATOM     10  N   UNL     1       4.415   3.221  -2.785  0.00  0.00    -0.322 N 
ATOM     11  H   UNL     1       4.325   4.196  -2.986  0.00  0.00    +0.169 HD
ATOM     12  C   UNL     1       3.927   2.734  -1.631  0.00  0.00    +0.251 A 
ATOM     13  O   UNL     1       3.378   3.493  -0.851  0.00  0.00    -0.268 OA
ATOM     14  C   UNL     1       6.695   2.594  -7.082  0.00  0.00    +0.044 C 
ENDBRANCH   1   2
BRANCH   1  15
ATOM     15  C   UNL     1       1.982   0.998   0.003  0.00  0.00    +0.143 A 
ATOM     16  N   UNL     1       1.293   2.104   0.140  0.00  0.00    -0.115 NA
ATOM     17  N   UNL     1       0.042   1.804   0.078  0.00  0.00    -0.023 NA
ATOM     18  N   UNL     1      -0.086   0.535  -0.095  0.00  0.00    -0.044 NA
ATOM     19  N   UNL     1       1.089   0.003  -0.147  0.00  0.00    -0.227 N 
BRANCH  19  20
ATOM     20  C   UNL     1       1.392  -1.419  -0.333  0.00  0.00    +0.111 C 
ATOM     21  C   UNL     1       0.813  -1.893  -1.668  0.00  0.00    +0.027 C 
ATOM     22  C   UNL     1       1.130  -3.377  -1.862  0.00  0.00    +0.002 C 
ATOM     23  C   UNL     1       0.509  -4.185  -0.721  0.00  0.00    +0.000 C 
ATOM     24  C   UNL     1       1.088  -3.711   0.613  0.00  0.00    +0.002 C 
ATOM     25  C   UNL     1       0.771  -2.227   0.808  0.00  0.00    +0.027 C 
ENDBRANCH  19  20
ENDBRANCH   1  15
BRANCH   1  26
ATOM     26  N   UNL     1       4.030   1.686   1.112  0.00  0.00    +0.392 N 
ATOM     27  H   UNL     1       3.736   2.661   0.979  0.00  0.00    -0.080 HD
BRANCH  26  29
ATOM     28  C   UNL     1       5.985   0.181   1.271  0.00  0.00    -0.017 C 
ATOM     29  C   UNL     1       5.507   1.625   1.102  0.00  0.00    -0.080 C 
ENDBRANCH  26  29
BRANCH  26  30
ATOM     30  C   UNL     1       3.513   1.201   2.409  0.00  0.00    -0.042 C 
BRANCH  30  31
ATOM     31  C   UNL     1       3.905   2.181   3.485  0.00  0.00    -0.064 A 
ATOM     32  C   UNL     1       5.090   2.012   4.175  0.00  0.00    +0.002 A 
ATOM     33  C   UNL     1       5.452   2.913   5.159  0.00  0.00    +0.000 A 
ATOM     34  C   UNL     1       4.622   3.977   5.460  0.00  0.00    +0.000 A 
ATOM     35  C   UNL     1       3.433   4.143   4.774  0.00  0.00    +0.000 A 
ATOM     36  C   UNL     1       3.075   3.244   3.787  0.00  0.00    +0.002 A 
ENDBRANCH  30  31
ENDBRANCH  26  30
ENDBRANCH   1  26
TORSDOF 7
