REMARK  Name = ZINC21311596
REMARK  7 active torsions:
REMARK  status: ('A' for Active; 'I' for Inactive)
REMARK    1  A    between atoms: C_1  and  N_2
REMARK    2  A    between atoms: N_2  and  C_3
REMARK    3  A    between atoms: N_2  and  C_10
REMARK    4  A    between atoms: C_3  and  C_4
REMARK    5  A    between atoms: N_6  and  C_7
REMARK    6  A    between atoms: C_10  and  C_11
REMARK    7  A    between atoms: C_24  and  C_26
REMARK                            x       y       z     vdW  Elec       q    Type
REMARK                         _______ _______ _______ _____ _____    ______ ____
ROOT
ATOM      1  C   UNL     1      -0.576   2.045  -3.561  0.00  0.00    +0.204 C 
ATOM      2  O   UNL     1      -1.581   2.703  -3.390  0.00  0.00    -0.277 OA
ATOM      3  N   UNL     1      -0.027   1.960  -4.789  0.00  0.00    -0.259 N 
ATOM      4  C   UNL     1       1.134   1.204  -5.001  0.00  0.00    +0.058 A 
ATOM      5  C   UNL     1       1.090  -0.181  -4.971  0.00  0.00    +0.025 A 
ATOM      6  C   UNL     1       2.241  -0.911  -5.206  0.00  0.00    +0.002 A 
ATOM      7  C   UNL     1       3.434  -0.264  -5.471  0.00  0.00    +0.002 A 
ATOM      8  C   UNL     1       3.488   1.117  -5.495  0.00  0.00    +0.025 A 
ATOM      9  C   UNL     1       2.342   1.855  -5.250  0.00  0.00    +0.055 A 
ATOM     10  N   UNL     1       2.384   3.254  -5.213  0.00  0.00    -0.284 N 
ATOM     11  C   UNL     1       1.471   3.985  -5.890  0.00  0.00    +0.219 C 
ATOM     12  O   UNL     1       1.467   5.193  -5.783  0.00  0.00    -0.275 OA
ATOM     13  C   UNL     1       0.459   3.309  -6.776  0.00  0.00    +0.128 C 
ATOM     14  C   UNL     1      -0.636   2.652  -5.927  0.00  0.00    +0.194 C 
ATOM     15  H   UNL     1       3.163   3.766  -4.629  0.00  0.00    +0.155 HD
ENDROOT
BRANCH  14  16
ATOM     16  C   UNL     1      -1.410   1.644  -6.779  0.00  0.00    +0.409 C 
ATOM     17  F   UNL     1      -2.411   1.050  -6.004  0.00  0.00    -0.169 F 
ATOM     18  F   UNL     1      -1.992   2.303  -7.867  0.00  0.00    -0.169 F 
ATOM     19  F   UNL     1      -0.534   0.658  -7.246  0.00  0.00    -0.169 F 
ENDBRANCH  14  16
BRANCH   1  20
ATOM     20  C   UNL     1       0.059   1.323  -2.401  0.00  0.00    +0.019 C 
BRANCH  20  22
ATOM     21  C   UNL     1      -2.059   0.969  -1.281  0.00  0.00    -0.095 C 
ATOM     22  N   UNL     1      -0.723   1.572  -1.182  0.00  0.00    +0.389 N 
ATOM     23  H   UNL     1      -0.850   2.660  -1.079  0.00  0.00    -0.081 HD
BRANCH  22  24
ATOM     24  C   UNL     1      -0.013   1.086   0.008  0.00  0.00    +0.019 C 
BRANCH  24  25
ATOM     25  C   UNL     1      -0.718   1.572   1.248  0.00  0.00    +0.197 C 
ATOM     26  O   UNL     1      -1.714   2.256   1.150  0.00  0.00    -0.278 OA
ATOM     27  N   UNL     1      -0.242   1.246   2.466  0.00  0.00    -0.314 N 
ATOM     28  H   UNL     1       0.662   0.625   2.555  0.00  0.00    +0.149 HD
BRANCH  27  29
ATOM     29  C   UNL     1      -0.927   1.718   3.671  0.00  0.00    +0.073 C 
ATOM     30  C   UNL     1      -0.061   2.261   4.810  0.00  0.00    +0.024 C 
ATOM     31  C   UNL     1      -0.748   0.901   4.952  0.00  0.00    +0.024 C 
ENDBRANCH  27  29
ENDBRANCH  24  25
ENDBRANCH  22  24
ENDBRANCH  20  22
ENDBRANCH   1  20
TORSDOF 6
