REMARK  Name = ZINC04259181
REMARK  9 active torsions:
REMARK  status: ('A' for Active; 'I' for Inactive)
REMARK    1  A    between atoms: C_1  and  N_59
REMARK    2  A    between atoms: C_2  and  N_59
REMARK    3  A    between atoms: C_3  and  C_4
REMARK    4  A    between atoms: C_3  and  N_59
REMARK    5  A    between atoms: N_6  and  C_7
REMARK    6  A    between atoms: C_22  and  C_23
REMARK    7  A    between atoms: C_22  and  N_61
REMARK    8  A    between atoms: C_26  and  O_29
REMARK    9  A    between atoms: O_29  and  C_30
REMARK                            x       y       z     vdW  Elec       q    Type
REMARK                         _______ _______ _______ _____ _____    ______ ____
ROOT
ATOM      1  C   UNL     1      -1.221  -2.093   0.066  0.00  0.00    +0.099 A 
ATOM      2  C   UNL     1      -0.076  -2.839   0.129  0.00  0.00    +0.030 A 
ATOM      3  C   UNL     1      -0.182  -4.232   0.211  0.00  0.00    +0.023 A 
ATOM      4  C   UNL     1      -1.399  -4.835   0.202  0.00  0.00    +0.023 A 
ATOM      5  N   UNL     1      -2.530  -4.105   0.049  0.00  0.00    -0.310 N 
ATOM      6  C   UNL     1      -2.466  -2.751   0.051  0.00  0.00    +0.273 A 
ATOM      7  O   UNL     1      -3.497  -2.096   0.042  0.00  0.00    -0.266 OA
ATOM      8  C   UNL     1      -3.845  -4.706  -0.182  0.00  0.00    +0.127 C 
ATOM      9  C   UNL     1      -3.899  -6.161   0.254  0.00  0.00    -0.007 C 
ATOM     10  C   UNL     1      -2.677  -6.903  -0.296  0.00  0.00    +0.011 C 
ATOM     11  C   UNL     1      -1.436  -6.334   0.400  0.00  0.00    +0.020 C 
ATOM     12  C   UNL     1      -1.574  -6.598   1.909  0.00  0.00    -0.069 C 
ATOM     13  C   UNL     1      -3.967  -6.284   1.769  0.00  0.00    -0.073 C 
ATOM     14  N   UNL     1      -2.719  -5.794   2.384  0.00  0.00    +0.383 N 
ATOM     15  H   UNL     1      -2.576  -4.814   2.114  0.00  0.00    -0.081 HD
ENDROOT
BRANCH   1  18
ATOM     16  C   UNL     1      -1.707  -0.035  -1.029  0.00  0.00    +0.201 C 
ATOM     17  O   UNL     1      -2.178  -0.654  -1.959  0.00  0.00    -0.278 OA
ATOM     18  N   UNL     1      -1.156  -0.694   0.009  0.00  0.00    -0.283 N 
ATOM     19  H   UNL     1      -0.714  -0.200   0.718  0.00  0.00    +0.155 HD
BRANCH  16  20
ATOM     20  C   UNL     1      -1.736   1.472  -1.035  0.00  0.00    +0.018 C 
BRANCH  20  23
ATOM     21  C   UNL     1      -3.803   1.567  -2.292  0.00  0.00    -0.096 C 
ATOM     22  C   UNL     1      -2.222   3.396  -2.422  0.00  0.00    -0.096 C 
ATOM     23  N   UNL     1      -2.371   1.932  -2.288  0.00  0.00    +0.382 N 
ATOM     24  H   UNL     1      -1.908   1.476  -3.083  0.00  0.00    -0.082 HD
ENDBRANCH  20  23
ENDBRANCH  16  20
ENDBRANCH   1  18
BRANCH  14  25
ATOM     25  C   UNL     1      -2.814  -5.880   3.857  0.00  0.00    -0.043 C 
BRANCH  25  26
ATOM     26  C   UNL     1      -1.454  -5.631   4.455  0.00  0.00    -0.064 A 
ATOM     27  C   UNL     1      -0.601  -6.692   4.697  0.00  0.00    +0.005 A 
ATOM     28  C   UNL     1       0.649  -6.466   5.240  0.00  0.00    +0.046 A 
ATOM     29  C   UNL     1       1.044  -5.173   5.553  0.00  0.00    +0.120 A 
ATOM     30  C   UNL     1       0.185  -4.111   5.314  0.00  0.00    +0.046 A 
ATOM     31  C   UNL     1      -1.062  -4.342   4.765  0.00  0.00    +0.005 A 
BRANCH  29  32
ATOM     32  O   UNL     1       2.271  -4.949   6.093  0.00  0.00    -0.495 OA
ATOM     33  C   UNL     1       3.102  -6.090   6.311  0.00  0.00    +0.277 C 
ENDBRANCH  29  32
ENDBRANCH  25  26
ENDBRANCH  14  25
TORSDOF 6
