REMARK  Name = ZINC07947647
REMARK  3 active torsions:
REMARK  status: ('A' for Active; 'I' for Inactive)
REMARK    1  A    between atoms: C_7  and  C_13
REMARK    2  A    between atoms: N_15  and  C_16
REMARK    3  A    between atoms: C_19  and  C_22
REMARK                            x       y       z     vdW  Elec       q    Type
REMARK                         _______ _______ _______ _____ _____    ______ ____
ROOT
ATOM      1  C   UNL     1       1.826  -4.156  -5.255  0.00  0.00    +0.269 C 
ATOM      2  O   UNL     1       1.494  -3.351  -6.103  0.00  0.00    -0.268 OA
ATOM      3  N   UNL     1       1.698  -3.851  -3.948  0.00  0.00    -0.280 N 
ATOM      4  H   UNL     1       2.036  -4.459  -3.272  0.00  0.00    +0.155 HD
ENDROOT
BRANCH   1  11
ATOM      5  C   UNL     1       2.317  -5.337  -9.415  0.00  0.00    +0.001 A 
ATOM      6  C   UNL     1       2.835  -6.588  -9.722  0.00  0.00    +0.001 A 
ATOM      7  C   UNL     1       3.198  -7.465  -8.722  0.00  0.00    +0.014 A 
ATOM      8  C   UNL     1       3.040  -7.086  -7.393  0.00  0.00    +0.050 A 
ATOM      9  C   UNL     1       2.508  -5.814  -7.080  0.00  0.00    +0.020 A 
ATOM     10  C   UNL     1       2.153  -4.942  -8.104  0.00  0.00    +0.011 A 
ATOM     11  C   UNL     1       2.370  -5.469  -5.656  0.00  0.00    +0.154 A 
ATOM     12  N   UNL     1       2.731  -6.343  -4.748  0.00  0.00    -0.166 NA
ATOM     13  N   UNL     1       3.209  -7.499  -5.012  0.00  0.00    -0.242 N 
ATOM     14  H   UNL     1       3.455  -8.095  -4.247  0.00  0.00    +0.192 HD
ATOM     15  C   UNL     1       3.400  -7.958  -6.266  0.00  0.00    +0.272 A 
ATOM     16  O   UNL     1       3.859  -9.069  -6.460  0.00  0.00    -0.266 OA
ENDBRANCH   1  11
BRANCH   3  17
ATOM     17  C   UNL     1       1.080  -2.658  -3.568  0.00  0.00    +0.034 A 
ATOM     18  C   UNL     1       0.021  -2.156  -4.316  0.00  0.00    +0.024 A 
ATOM     19  C   UNL     1      -0.592  -0.979  -3.942  0.00  0.00    +0.013 A 
ATOM     20  C   UNL     1      -0.147  -0.291  -2.812  0.00  0.00    +0.019 A 
ATOM     21  C   UNL     1       0.920  -0.794  -2.067  0.00  0.00    +0.013 A 
ATOM     22  C   UNL     1       1.525  -1.974  -2.442  0.00  0.00    +0.024 A 
BRANCH  20  23
ATOM     23  C   UNL     1      -0.802   0.972  -2.409  0.00  0.00    +0.164 A 
ATOM     24  N   UNL     1      -0.756   1.536  -1.220  0.00  0.00    -0.129 NA
ATOM     25  N   UNL     1      -1.436   2.628  -1.230  0.00  0.00    -0.134 NA
ATOM     26  C   UNL     1      -1.945   2.825  -2.414  0.00  0.00    +0.134 A 
ATOM     27  N   UNL     1      -1.570   1.778  -3.198  0.00  0.00    -0.311 N 
ATOM     28  C   UNL     1      -1.931   1.567  -4.599  0.00  0.00    +0.125 C 
ATOM     29  C   UNL     1      -2.172   2.922  -5.271  0.00  0.00    +0.022 C 
ATOM     30  C   UNL     1      -3.637   3.324  -5.112  0.00  0.00    +0.002 C 
ATOM     31  C   UNL     1      -3.997   3.471  -3.637  0.00  0.00    +0.008 C 
ATOM     32  C   UNL     1      -2.784   3.994  -2.862  0.00  0.00    +0.076 C 
ENDBRANCH  20  23
ENDBRANCH   3  17
TORSDOF 3
