REMARK  Name = ZINC34826539
REMARK  8 active torsions:
REMARK  status: ('A' for Active; 'I' for Inactive)
REMARK    1  A    between atoms: C_1  and  C_2
REMARK    2  A    between atoms: C_6  and  C_31
REMARK    3  A    between atoms: C_15  and  C_27
REMARK    4  A    between atoms: C_19  and  O_26
REMARK    5  A    between atoms: C_29  and  C_30
REMARK    6  A    between atoms: C_31  and  C_32
REMARK    7  A    between atoms: C_32  and  C_33
REMARK    8  A    between atoms: C_32  and  C_34
REMARK                            x       y       z     vdW  Elec       q    Type
REMARK                         _______ _______ _______ _____ _____    ______ ____
ROOT
ATOM      1  C   UNL     1      -0.535   3.205  -0.452  0.00  0.00    +0.012 C 
ATOM      2  C   UNL     1      -0.335   1.860   0.232  0.00  0.00    +0.020 C 
ATOM      3  C   UNL     1      -1.572   1.075   0.566  0.00  0.00    +0.070 C 
ATOM      4  C   UNL     1      -2.510   0.528  -0.492  0.00  0.00    +0.081 C 
ATOM      5  N   UNL     1      -3.782   0.342   0.251  0.00  0.00    -0.309 N 
ATOM      6  C   UNL     1      -3.778   1.036   1.417  0.00  0.00    +0.259 C 
ATOM      7  O   UNL     1      -4.642   1.003   2.267  0.00  0.00    -0.271 OA
ATOM      8  C   UNL     1      -2.523   1.869   1.475  0.00  0.00    +0.203 C 
ATOM      9  C   UNL     1      -1.870   1.966   2.844  0.00  0.00    +0.088 C 
ATOM     10  C   UNL     1      -2.211   0.759   3.670  0.00  0.00    -0.016 C 
ATOM     11  C   UNL     1      -2.767   0.865   4.850  0.00  0.00    -0.076 C 
ATOM     12  C   UNL     1      -3.102   2.203   5.454  0.00  0.00    +0.030 C 
ATOM     13  C   UNL     1      -4.562   2.556   5.153  0.00  0.00    +0.007 C 
ATOM     14  C   UNL     1      -4.830   4.001   5.573  0.00  0.00    +0.036 C 
ATOM     15  C   UNL     1      -5.142   4.854   4.340  0.00  0.00    +0.138 C 
ATOM     16  C   UNL     1      -4.335   4.364   3.168  0.00  0.00    +0.011 C 
ATOM     17  C   UNL     1      -4.930   3.972   2.046  0.00  0.00    +0.090 C 
ATOM     18  C   UNL     1      -4.164   3.471   0.900  0.00  0.00    +0.333 C 
ATOM     19  O   UNL     1      -4.734   3.313  -0.165  0.00  0.00    -0.246 OA
ATOM     20  O   UNL     1      -2.852   3.174   1.006  0.00  0.00    -0.444 OA
ATOM     21  C   UNL     1      -3.080  -0.389   5.634  0.00  0.00    +0.039 C 
ATOM     22  C   UNL     1      -0.389   2.116   2.677  0.00  0.00    -0.016 C 
ATOM     23  C   UNL     1       0.321   2.079   1.598  0.00  0.00    -0.073 C 
ATOM     24  C   UNL     1       1.815   2.250   1.672  0.00  0.00    +0.039 C 
ATOM     25  H   UNL     1      -4.521  -0.207  -0.064  0.00  0.00    +0.149 HD
ENDROOT
BRANCH  15  26
ATOM     26  O   UNL     1      -6.537   4.775   4.046  0.00  0.00    -0.388 OA
ATOM     27  H   UNL     1      -6.807   5.293   3.275  0.00  0.00    +0.210 HD
ENDBRANCH  15  26
BRANCH   4  28
ATOM     28  C   UNL     1      -2.721   1.412  -1.713  0.00  0.00    +0.025 C 
BRANCH  28  29
ATOM     29  C   UNL     1      -3.525   0.645  -2.765  0.00  0.00    -0.015 C 
ATOM     30  C   UNL     1      -4.947   0.411  -2.250  0.00  0.00    +0.007 C 
ATOM     31  C   UNL     1      -3.579   1.459  -4.059  0.00  0.00    +0.007 C 
ENDBRANCH  28  29
ENDBRANCH   4  28
TORSDOF 3
