REMARK  Name = ZINC12402069
REMARK  5 active torsions:
REMARK  status: ('A' for Active; 'I' for Inactive)
REMARK    1  A    between atoms: C_1  and  C_2
REMARK    2  A    between atoms: C_2  and  C_30
REMARK    3  A    between atoms: C_7  and  C_10
REMARK    4  A    between atoms: C_15  and  O_16
REMARK    5  A    between atoms: N_20  and  C_23
REMARK                            x       y       z     vdW  Elec       q    Type
REMARK                         _______ _______ _______ _____ _____    ______ ____
ROOT
ATOM      1  C   UNL     1      -0.550   1.335  -0.212  0.00  0.00    +0.002 C 
ATOM      2  C   UNL     1      -0.328  -0.175  -0.106  0.00  0.00    +0.045 C 
ATOM      3  C   UNL     1      -1.632  -0.875   0.240  0.00  0.00    +0.086 C 
ATOM      4  C   UNL     1      -1.033  -2.126   0.991  0.00  0.00    +0.077 C 
ATOM      5  C   UNL     1      -0.075  -1.497   1.916  0.00  0.00    -0.023 C 
ATOM      6  N   UNL     1       0.604  -0.483   1.021  0.00  0.00    +0.395 N 
ATOM      7  C   UNL     1      -2.161  -3.023   1.009  0.00  0.00    +0.229 C 
ATOM      8  O   UNL     1      -2.456  -3.820   1.873  0.00  0.00    -0.275 OA
ATOM      9  N   UNL     1      -2.829  -2.781  -0.166  0.00  0.00    -0.210 N 
ATOM     10  C   UNL     1      -2.414  -1.626  -0.791  0.00  0.00    +0.229 C 
ATOM     11  O   UNL     1      -2.628  -1.287  -1.935  0.00  0.00    -0.275 OA
ATOM     12  H   UNL     1       1.466  -0.861   0.658  0.00  0.00    -0.083 HD
ATOM     13  H   UNL     1       0.793   0.357   1.547  0.00  0.00    -0.083 HD
ENDROOT
BRANCH   5  14
ATOM     14  C   UNL     1      -0.794  -0.836   3.064  0.00  0.00    -0.018 A 
ATOM     15  C   UNL     1      -1.009   0.529   3.051  0.00  0.00    +0.020 A 
ATOM     16  C   UNL     1      -1.668   1.137   4.104  0.00  0.00    +0.018 A 
ATOM     17  C   UNL     1      -2.115   0.379   5.172  0.00  0.00    +0.019 A 
ATOM     18  C   UNL     1      -1.903  -0.986   5.189  0.00  0.00    +0.047 A 
ATOM     19  C   UNL     1      -1.246  -1.598   4.131  0.00  0.00    +0.119 A 
ATOM     20 BR   UNL     1      -1.960   3.005   4.084  0.00  0.00    -0.050 Br
BRANCH  19  21
ATOM     21  O   UNL     1      -1.041  -2.941   4.143  0.00  0.00    -0.507 OA
ATOM     22  H   UNL     1      -0.210  -3.208   4.560  0.00  0.00    +0.292 HD
ENDBRANCH  19  21
ENDBRANCH   5  14
BRANCH   9  23
ATOM     23  C   UNL     1      -3.836  -3.614  -0.674  0.00  0.00    +0.045 A 
ATOM     24  C   UNL     1      -4.459  -3.300  -1.875  0.00  0.00    +0.024 A 
ATOM     25  C   UNL     1      -5.450  -4.123  -2.373  0.00  0.00    +0.003 A 
ATOM     26  C   UNL     1      -5.822  -5.258  -1.678  0.00  0.00    +0.020 A 
ATOM     27  C   UNL     1      -5.204  -5.574  -0.481  0.00  0.00    +0.043 A 
ATOM     28  C   UNL     1      -4.207  -4.757   0.020  0.00  0.00    +0.044 A 
ATOM     29 CL   UNL     1      -5.675  -7.001   0.389  0.00  0.00    -0.083 Cl
ENDBRANCH   9  23
BRANCH   2  30
ATOM     30  C   UNL     1       0.226  -0.712  -1.401  0.00  0.00    +0.346 C 
ATOM     31  O   UNL     1       1.316  -1.258  -1.418  0.00  0.00    -0.248 OA
ATOM     32  O   UNL     1      -0.417  -0.601  -2.431  0.00  0.00    -0.248 OA
ENDBRANCH   2  30
TORSDOF 4
