REMARK  Name = ZINC35754172
REMARK  9 active torsions:
REMARK  status: ('A' for Active; 'I' for Inactive)
REMARK    1  A    between atoms: C_7  and  C_11
REMARK    2  A    between atoms: C_11  and  C_12
REMARK    3  A    between atoms: C_12  and  N_13
REMARK    4  A    between atoms: N_13  and  C_14
REMARK    5  A    between atoms: C_14  and  C_15
REMARK    6  A    between atoms: C_22  and  C_24
REMARK    7  A    between atoms: C_24  and  N_25
REMARK    8  A    between atoms: N_25  and  C_26
REMARK    9  A    between atoms: N_31  and  C_32
REMARK                            x       y       z     vdW  Elec       q    Type
REMARK                         _______ _______ _______ _____ _____    ______ ____
ROOT
ATOM      1  N   UNL     1      -1.795  -4.898  -1.516  0.00  0.00    -0.296 N 
ATOM      2  C   UNL     1      -1.115  -6.045  -1.713  0.00  0.00    +0.233 C 
ATOM      3  O   UNL     1       0.093  -6.024  -1.814  0.00  0.00    -0.274 OA
ENDROOT
BRANCH   1   4
ATOM      4  C   UNL     1      -1.087  -3.616  -1.529  0.00  0.00    +0.113 C 
BRANCH   4   5
ATOM      5  C   UNL     1      -0.615  -3.279  -0.114  0.00  0.00    +0.056 C 
BRANCH   5  12
ATOM      6  C   UNL     1      -2.046   1.177   0.155  0.00  0.00    +0.001 A 
ATOM      7  C   UNL     1      -0.998   2.085   0.102  0.00  0.00    +0.002 A 
ATOM      8  C   UNL     1       0.304   1.651  -0.018  0.00  0.00    +0.026 A 
ATOM      9  C   UNL     1       0.573   0.287  -0.087  0.00  0.00    +0.047 A 
ATOM     10  C   UNL     1      -0.492  -0.629  -0.032  0.00  0.00    +0.003 A 
ATOM     11  C   UNL     1      -1.804  -0.167   0.089  0.00  0.00    +0.010 A 
ATOM     12  C   UNL     1       0.113  -1.960  -0.127  0.00  0.00    -0.021 A 
ATOM     13  C   UNL     1       1.440  -1.781  -0.228  0.00  0.00    +0.087 A 
ATOM     14  N   UNL     1       1.733  -0.445  -0.206  0.00  0.00    -0.360 N 
ATOM     15  H   UNL     1       2.626  -0.069  -0.265  0.00  0.00    +0.165 HD
ENDBRANCH   5  12
ENDBRANCH   4   5
ENDBRANCH   1   4
BRANCH   1  16
ATOM     16  C   UNL     1      -3.242  -4.934  -1.289  0.00  0.00    +0.143 C 
BRANCH  16  17
ATOM     17  C   UNL     1      -3.961  -4.682  -2.589  0.00  0.00    -0.030 A 
ATOM     18  C   UNL     1      -4.197  -3.386  -3.008  0.00  0.00    +0.008 A 
ATOM     19  C   UNL     1      -4.855  -3.153  -4.200  0.00  0.00    +0.038 A 
ATOM     20  C   UNL     1      -5.279  -4.219  -4.975  0.00  0.00    +0.123 A 
ATOM     21  C   UNL     1      -5.043  -5.517  -4.555  0.00  0.00    +0.038 A 
ATOM     22  C   UNL     1      -4.379  -5.747  -3.365  0.00  0.00    +0.008 A 
ATOM     23  F   UNL     1      -5.924  -3.993  -6.141  0.00  0.00    -0.205 F 
ENDBRANCH  16  17
ENDBRANCH   1  16
BRANCH   2  24
ATOM     24  C   UNL     1      -1.856  -7.354  -1.807  0.00  0.00    +0.205 C 
BRANCH  24  25
ATOM     25  N   UNL     1      -0.897  -8.447  -1.987  0.00  0.00    -0.274 N 
ATOM     26  C   UNL     1      -0.530  -8.824  -3.228  0.00  0.00    +0.307 C 
ATOM     27  O   UNL     1      -0.924  -8.200  -4.194  0.00  0.00    -0.252 OA
ATOM     28  N   UNL     1       0.273  -9.893  -3.397  0.00  0.00    -0.267 N 
ATOM     29  H   UNL     1       0.535 -10.428  -2.632  0.00  0.00    +0.156 HD
BRANCH  28  30
ATOM     30  C   UNL     1       0.729 -10.230  -4.679  0.00  0.00    +0.070 A 
ATOM     31  C   UNL     1       0.697  -9.289  -5.698  0.00  0.00    +0.029 A 
ATOM     32  C   UNL     1       1.148  -9.624  -6.961  0.00  0.00    +0.040 A 
ATOM     33  C   UNL     1       1.631 -10.897  -7.211  0.00  0.00    +0.126 A 
ATOM     34  C   UNL     1       1.664 -11.839  -6.196  0.00  0.00    +0.078 A 
ATOM     35  C   UNL     1       1.220 -11.507  -4.929  0.00  0.00    +0.147 A 
ATOM     36  F   UNL     1       1.258 -12.424  -3.938  0.00  0.00    -0.203 F 
ATOM     37  F   UNL     1       2.071 -11.221  -8.447  0.00  0.00    -0.205 F 
ENDBRANCH  28  30
BRANCH  25  38
ATOM     38  C   UNL     1      -0.337  -9.129  -0.818  0.00  0.00    +0.078 C 
ATOM     39  C   UNL     1      -1.008  -8.881   0.534  0.00  0.00    +0.024 C 
ATOM     40  C   UNL     1       0.362  -8.268   0.236  0.00  0.00    +0.024 C 
ENDBRANCH  25  38
ENDBRANCH  24  25
ENDBRANCH   2  24
TORSDOF 9
