REMARK  Name = ZINC15996888
REMARK  4 active torsions:
REMARK  status: ('A' for Active; 'I' for Inactive)
REMARK    1  A    between atoms: C_4  and  N_7
REMARK    2  A    between atoms: C_23  and  C_29
REMARK    3  A    between atoms: N_31  and  C_32
REMARK    4  A    between atoms: C_34  and  N_39
REMARK                            x       y       z     vdW  Elec       q    Type
REMARK                         _______ _______ _______ _____ _____    ______ ____
ROOT
ATOM      1  N   UNL     1       3.982   4.388  -1.804  0.00  0.00    -0.210 N 
ATOM      2  C   UNL     1       2.953   4.870  -1.041  0.00  0.00    +0.232 C 
ATOM      3  O   UNL     1       2.727   6.025  -0.752  0.00  0.00    -0.274 OA
ATOM      4  C   UNL     1       2.198   3.700  -0.659  0.00  0.00    +0.113 C 
ATOM      5  C   UNL     1       1.212   3.238   0.333  0.00  0.00    +0.100 C 
ATOM      6  C   UNL     1      -0.104   3.960   0.168  0.00  0.00    -0.021 A 
ATOM      7  C   UNL     1      -0.170   5.334   0.167  0.00  0.00    +0.006 A 
ATOM      8  C   UNL     1      -1.393   5.965   0.013  0.00  0.00    +0.000 A 
ATOM      9  C   UNL     1      -2.550   5.220  -0.138  0.00  0.00    +0.001 A 
ATOM     10  C   UNL     1      -2.495   3.841  -0.136  0.00  0.00    +0.008 A 
ATOM     11  C   UNL     1      -1.266   3.198   0.017  0.00  0.00    -0.019 A 
ATOM     12  C   UNL     1      -1.181   1.728   0.014  0.00  0.00    +0.022 C 
ATOM     13  C   UNL     1      -0.005   1.101   0.007  0.00  0.00    +0.054 C 
ATOM     14  N   UNL     1       1.189   1.771  -0.008  0.00  0.00    -0.383 NA
ATOM     15  C   UNL     1       2.575   1.382  -0.354  0.00  0.00    +0.156 C 
ATOM     16  C   UNL     1       3.385   2.676  -0.424  0.00  0.00    +0.118 C 
ATOM     17  C   UNL     1       4.111   3.026  -1.702  0.00  0.00    +0.232 C 
ATOM     18  O   UNL     1       4.678   2.273  -2.464  0.00  0.00    -0.274 OA
ATOM     19  H   UNL     1       0.676   0.798  -0.034  0.00  0.00    +0.127 HD
ENDROOT
BRANCH   1  23
ATOM     20  C   UNL     1       6.473   6.781  -4.139  0.00  0.00    +0.000 A 
ATOM     21  C   UNL     1       6.675   5.414  -4.093  0.00  0.00    +0.002 A 
ATOM     22  C   UNL     1       5.851   4.618  -3.320  0.00  0.00    +0.024 A 
ATOM     23  C   UNL     1       4.820   5.192  -2.589  0.00  0.00    +0.044 A 
ATOM     24  C   UNL     1       4.616   6.565  -2.642  0.00  0.00    +0.024 A 
ATOM     25  C   UNL     1       5.446   7.356  -3.412  0.00  0.00    +0.002 A 
ENDBRANCH   1  23
BRANCH  15  26
ATOM     26  C   UNL     1       2.598   0.685  -1.690  0.00  0.00    +0.237 C 
ATOM     27  O   UNL     1       1.665   0.808  -2.454  0.00  0.00    -0.273 OA
ATOM     28  N   UNL     1       3.656  -0.076  -2.034  0.00  0.00    -0.283 N 
ATOM     29  H   UNL     1       4.534  -0.129  -1.374  0.00  0.00    +0.155 HD
BRANCH  28  30
ATOM     30  C   UNL     1       3.637  -0.798  -3.233  0.00  0.00    +0.054 A 
ATOM     31  C   UNL     1       3.002  -0.275  -4.351  0.00  0.00    +0.057 A 
ATOM     32  C   UNL     1       2.985  -0.990  -5.533  0.00  0.00    +0.128 A 
ATOM     33  C   UNL     1       3.601  -2.226  -5.604  0.00  0.00    +0.034 A 
ATOM     34  C   UNL     1       4.234  -2.751  -4.493  0.00  0.00    +0.024 A 
ATOM     35  C   UNL     1       4.259  -2.039  -3.309  0.00  0.00    +0.062 A 
ATOM     36 CL   UNL     1       5.060  -2.695  -1.916  0.00  0.00    -0.082 Cl
BRANCH  32  37
ATOM     37  N   UNL     1       2.308  -0.432  -6.725  0.00  0.00    +0.056 N 
ATOM     38  O   UNL     1       1.766   0.657  -6.663  0.00  0.00    -0.126 OA
ATOM     39  O   UNL     1       2.293  -1.062  -7.767  0.00  0.00    -0.126 OA
ENDBRANCH  32  37
ENDBRANCH  28  30
ENDBRANCH  15  26
TORSDOF 4
