REMARK  Name = ZINC20761582
REMARK  6 active torsions:
REMARK  status: ('A' for Active; 'I' for Inactive)
REMARK    1  A    between atoms: C_1  and  C_2
REMARK    2  A    between atoms: C_6  and  N_9
REMARK    3  A    between atoms: C_7  and  C_8
REMARK    4  A    between atoms: C_37  and  C_39
REMARK    5  A    between atoms: C_39  and  C_40
REMARK    6  A    between atoms: C_39  and  C_41
REMARK                            x       y       z     vdW  Elec       q    Type
REMARK                         _______ _______ _______ _____ _____    ______ ____
ROOT
ATOM      1  N   UNL     1       0.296  -2.175   2.585  0.00  0.00    -0.210 N 
ATOM      2  C   UNL     1      -0.845  -2.715   3.028  0.00  0.00    +0.232 C 
ATOM      3  O   UNL     1      -1.949  -2.482   2.584  0.00  0.00    -0.274 OA
ATOM      4  C   UNL     1      -0.544  -3.662   4.167  0.00  0.00    +0.107 C 
ATOM      5  C   UNL     1       1.000  -3.561   4.319  0.00  0.00    +0.121 C 
ATOM      6  C   UNL     1       1.393  -2.586   3.231  0.00  0.00    +0.233 C 
ATOM      7  O   UNL     1       2.525  -2.231   2.985  0.00  0.00    -0.274 OA
ATOM      8  C   UNL     1       1.211  -2.929   5.701  0.00  0.00    +0.118 C 
ATOM      9  C   UNL     1       1.529  -3.964   6.740  0.00  0.00    +0.005 A 
ATOM     10  C   UNL     1       0.857  -5.072   7.209  0.00  0.00    +0.008 A 
ATOM     11  C   UNL     1       1.421  -5.855   8.200  0.00  0.00    +0.000 A 
ATOM     12  C   UNL     1       2.660  -5.524   8.719  0.00  0.00    +0.002 A 
ATOM     13  C   UNL     1       3.335  -4.415   8.253  0.00  0.00    +0.026 A 
ATOM     14  C   UNL     1       2.774  -3.622   7.254  0.00  0.00    +0.057 A 
ATOM     15  N   UNL     1       3.266  -2.465   6.630  0.00  0.00    -0.262 N 
ATOM     16  C   UNL     1       2.393  -1.993   5.695  0.00  0.00    +0.143 A 
ATOM     17  N   UNL     1       2.624  -0.929   4.981  0.00  0.00    -0.231 NA
ATOM     18  C   UNL     1       3.761  -0.206   5.110  0.00  0.00    +0.078 A 
ATOM     19  C   UNL     1       4.003   0.931   4.335  0.00  0.00    +0.028 A 
ATOM     20  C   UNL     1       5.176   1.632   4.502  0.00  0.00    +0.002 A 
ATOM     21  C   UNL     1       6.123   1.224   5.432  0.00  0.00    +0.001 A 
ATOM     22  C   UNL     1       5.907   0.107   6.208  0.00  0.00    +0.015 A 
ATOM     23  C   UNL     1       4.727  -0.618   6.055  0.00  0.00    +0.065 A 
ATOM     24  C   UNL     1       4.441  -1.818   6.852  0.00  0.00    +0.266 A 
ATOM     25  O   UNL     1       5.231  -2.220   7.685  0.00  0.00    -0.267 OA
ATOM     26  N   UNL     1      -0.038  -2.210   6.012  0.00  0.00    -0.296 NA
ATOM     27  C   UNL     1      -1.125  -3.088   5.476  0.00  0.00    +0.070 C 
ATOM     28  H   UNL     1      -0.138  -2.073   7.007  0.00  0.00    +0.123 HD
ENDROOT
BRANCH   1  34
ATOM     29  C   UNL     1       0.174   2.483   1.011  0.00  0.00    +0.044 C 
ATOM     30  C   UNL     1       0.282   1.006   0.735  0.00  0.00    -0.046 A 
ATOM     31  C   UNL     1       0.424   0.554  -0.564  0.00  0.00    +0.004 A 
ATOM     32  C   UNL     1       0.523  -0.801  -0.821  0.00  0.00    +0.002 A 
ATOM     33  C   UNL     1       0.481  -1.708   0.220  0.00  0.00    +0.024 A 
ATOM     34  C   UNL     1       0.339  -1.257   1.526  0.00  0.00    +0.047 A 
ATOM     35  C   UNL     1       0.246   0.104   1.781  0.00  0.00    -0.026 A 
ATOM     36  C   UNL     1       0.098   0.598   3.197  0.00  0.00    +0.046 C 
ENDBRANCH   1  34
BRANCH  27  37
ATOM     37  C   UNL     1      -2.400  -2.293   5.188  0.00  0.00    +0.001 C 
ATOM     38  C   UNL     1      -3.489  -3.241   4.680  0.00  0.00    +0.009 C 
ATOM     39  C   UNL     1      -2.876  -1.610   6.472  0.00  0.00    +0.009 C 
ENDBRANCH  27  37
TORSDOF 2
