REMARK  Name = ZINC06443045
REMARK  10 active torsions:
REMARK  status: ('A' for Active; 'I' for Inactive)
REMARK    1  A    between atoms: C_1  and  C_2
REMARK    2  A    between atoms: C_6  and  N_9
REMARK    3  A    between atoms: C_7  and  C_8
REMARK    4  A    between atoms: C_14  and  C_16
REMARK    5  A    between atoms: C_14  and  C_30
REMARK    6  A    between atoms: C_14  and  N_76
REMARK    7  A    between atoms: C_19  and  C_29
REMARK    8  A    between atoms: C_21  and  C_28
REMARK    9  A    between atoms: N_34  and  C_35
REMARK   10  A    between atoms: C_35  and  C_36
REMARK                            x       y       z     vdW  Elec       q    Type
REMARK                         _______ _______ _______ _____ _____    ______ ____
ROOT
ATOM      1  C   UNL     1       2.883   4.748   1.889  0.00  0.00    +0.039 C 
ENDROOT
BRANCH   1   2
ATOM      2  C   UNL     1       3.715   5.933   1.471  0.00  0.00    +0.011 A 
ATOM      3  C   UNL     1       4.674   5.785   0.524  0.00  0.00    +0.018 A 
ATOM      4  C   UNL     1       5.462   6.957   0.138  0.00  0.00    +0.002 A 
ATOM      5  C   UNL     1       6.463   6.867  -0.835  0.00  0.00    -0.041 A 
ATOM      6  C   UNL     1       7.185   7.977  -1.169  0.00  0.00    +0.007 A 
ATOM      7  C   UNL     1       6.934   9.195  -0.552  0.00  0.00    -0.048 A 
ATOM      8  C   UNL     1       5.953   9.307   0.410  0.00  0.00    +0.029 A 
ATOM      9  C   UNL     1       5.205   8.189   0.767  0.00  0.00    +0.050 A 
ATOM     10  N   UNL     1       4.218   8.272   1.726  0.00  0.00    -0.322 N 
ATOM     11  H   UNL     1       4.043   9.123   2.158  0.00  0.00    +0.169 HD
ATOM     12  C   UNL     1       3.497   7.192   2.071  0.00  0.00    +0.251 A 
ATOM     13  O   UNL     1       2.632   7.302   2.923  0.00  0.00    -0.268 OA
ATOM     14  C   UNL     1       7.742  10.407  -0.937  0.00  0.00    +0.044 C 
ATOM     15  C   UNL     1       6.744   5.550  -1.513  0.00  0.00    +0.044 C 
ENDBRANCH   1   2
BRANCH   1  21
ATOM     16  N   UNL     1       3.642   3.175   5.735  0.00  0.00    -0.333 N 
ATOM     17  C   UNL     1       2.241   3.318   5.314  0.00  0.00    +0.086 C 
ATOM     18  C   UNL     1       2.178   3.421   3.788  0.00  0.00    -0.058 C 
ATOM     19  C   UNL     1       4.380   4.427   3.765  0.00  0.00    -0.058 C 
ATOM     20  C   UNL     1       4.442   4.324   5.291  0.00  0.00    +0.086 C 
ATOM     21  N   UNL     1       2.969   4.593   3.356  0.00  0.00    +0.391 N 
ATOM     22  H   UNL     1       2.588   5.435   3.804  0.00  0.00    -0.080 HD
BRANCH  16  28
ATOM     23  C   UNL     1       4.858   0.368   9.582  0.00  0.00    +0.044 C 
ATOM     24  C   UNL     1       4.319   1.655   9.012  0.00  0.00    -0.046 A 
ATOM     25  C   UNL     1       3.915   2.671   9.859  0.00  0.00    +0.004 A 
ATOM     26  C   UNL     1       3.421   3.853   9.340  0.00  0.00    +0.002 A 
ATOM     27  C   UNL     1       3.334   4.026   7.972  0.00  0.00    +0.023 A 
ATOM     28  C   UNL     1       3.733   3.006   7.119  0.00  0.00    +0.033 A 
ATOM     29  C   UNL     1       4.230   1.819   7.644  0.00  0.00    -0.027 A 
ATOM     30  C   UNL     1       4.670   0.712   6.721  0.00  0.00    +0.046 C 
ENDBRANCH  16  28
ENDBRANCH   1  21
BRANCH   1  31
ATOM     31  C   UNL     1       1.444   4.984   1.506  0.00  0.00    +0.143 A 
ATOM     32  N   UNL     1       0.596   5.785   2.104  0.00  0.00    -0.115 NA
ATOM     33  N   UNL     1      -0.529   5.710   1.482  0.00  0.00    -0.023 NA
ATOM     34  N   UNL     1      -0.419   4.887   0.498  0.00  0.00    -0.044 NA
ATOM     35  N   UNL     1       0.781   4.414   0.483  0.00  0.00    -0.228 N 
BRANCH  35  36
ATOM     36  C   UNL     1       1.322   3.444  -0.472  0.00  0.00    +0.178 C 
BRANCH  36  37
ATOM     37  C   UNL     1       1.103   2.027   0.061  0.00  0.00    +0.140 C 
ATOM     38  C   UNL     1       1.679   0.978  -0.924  0.00  0.00    +0.035 C 
ATOM     39  C   UNL     1       0.844  -0.280  -0.583  0.00  0.00    +0.031 C 
ATOM     40  C   UNL     1      -0.414   0.278   0.111  0.00  0.00    +0.160 C 
ATOM     41  O   UNL     1      -0.305   1.711   0.104  0.00  0.00    -0.375 OA
ENDBRANCH  36  37
ENDBRANCH  35  36
ENDBRANCH   1  31
TORSDOF 6
