REMARK  Name = ZINC35668932
REMARK  5 active torsions:
REMARK  status: ('A' for Active; 'I' for Inactive)
REMARK    1  A    between atoms: C_1  and  O_2
REMARK    2  A    between atoms: O_2  and  C_3
REMARK    3  A    between atoms: C_7  and  C_10
REMARK    4  A    between atoms: C_8  and  O_9
REMARK    5  A    between atoms: C_22  and  O_24
REMARK                            x       y       z     vdW  Elec       q    Type
REMARK                         _______ _______ _______ _____ _____    ______ ____
ROOT
ATOM      1  C   UNL     1       1.329  -4.111  -2.296  0.00  0.00    +0.229 C 
ATOM      2  N   UNL     1       2.466  -4.503  -3.148  0.00  0.00    -0.313 N 
ATOM      3  C   UNL     1       3.698  -4.555  -2.535  0.00  0.00    +0.080 A 
ATOM      4  C   UNL     1       3.831  -4.762  -1.157  0.00  0.00    +0.068 A 
ATOM      5  C   UNL     1       5.192  -4.780  -0.653  0.00  0.00    -0.023 A 
ATOM      6  C   UNL     1       6.143  -4.601  -1.597  0.00  0.00    -0.005 A 
ATOM      7  S   UNL     1       5.246  -4.413  -3.114  0.00  0.00    -0.078 S 
ATOM      8  C   UNL     1       7.625  -4.570  -1.388  0.00  0.00    +0.043 C 
ATOM      9  C   UNL     1       7.898  -4.400   0.113  0.00  0.00    +0.005 C 
ATOM     10  C   UNL     1       7.034  -5.397   0.890  0.00  0.00    +0.005 C 
ATOM     11  C   UNL     1       5.563  -4.984   0.809  0.00  0.00    +0.037 C 
ATOM     12  C   UNL     1       2.585  -4.945  -0.369  0.00  0.00    +0.220 C 
ATOM     13  N   UNL     1       1.454  -4.658  -0.951  0.00  0.00    -0.223 NA
ATOM     14  H   UNL     1       2.353  -4.713  -4.088  0.00  0.00    +0.149 HD
ENDROOT
BRANCH   1  19
ATOM     15  C   UNL     1       1.853  -0.447  -3.093  0.00  0.00    +0.163 A 
ATOM     16  C   UNL     1       1.168   0.158  -2.052  0.00  0.00    +0.065 A 
ATOM     17  C   UNL     1       0.537  -0.617  -1.095  0.00  0.00    +0.036 A 
ATOM     18  C   UNL     1       0.591  -1.997  -1.175  0.00  0.00    +0.042 A 
ATOM     19  C   UNL     1       1.273  -2.607  -2.212  0.00  0.00    +0.055 A 
ATOM     20  C   UNL     1       1.901  -1.835  -3.176  0.00  0.00    +0.166 A 
ATOM     21 BR   UNL     1      -0.272  -3.052   0.137  0.00  0.00    -0.049 Br
ATOM     22 BR   UNL     1      -0.398   0.212   0.324  0.00  0.00    -0.049 Br
BRANCH  15  24
ATOM     23  C   UNL     1       2.381   1.732  -3.885  0.00  0.00    +0.277 C 
ATOM     24  O   UNL     1       2.473   0.314  -4.034  0.00  0.00    -0.491 OA
ENDBRANCH  15  24
BRANCH  20  25
ATOM     25  O   UNL     1       2.569  -2.434  -4.199  0.00  0.00    -0.503 OA
ATOM     26  H   UNL     1       3.501  -2.610  -4.011  0.00  0.00    +0.292 HD
ENDBRANCH  20  25
ENDBRANCH   1  19
BRANCH  12  27
ATOM     27  O   UNL     1       2.624  -5.394   0.907  0.00  0.00    -0.492 OA
ATOM     28  H   UNL     1       1.754  -5.474   1.322  0.00  0.00    +0.294 HD
ENDBRANCH  12  27
TORSDOF 4
