REMARK  Name = ZINC40812219
REMARK  8 active torsions:
REMARK  status: ('A' for Active; 'I' for Inactive)
REMARK    1  A    between atoms: C_1  and  C_2
REMARK    2  A    between atoms: C_6  and  C_7
REMARK    3  A    between atoms: N_9  and  N_10
REMARK    4  A    between atoms: N_10  and  C_11
REMARK    5  A    between atoms: N_10  and  C_17
REMARK    6  A    between atoms: N_27  and  N_28
REMARK    7  A    between atoms: C_29  and  C_31
REMARK    8  A    between atoms: C_34  and  N_37
REMARK                            x       y       z     vdW  Elec       q    Type
REMARK                         _______ _______ _______ _____ _____    ______ ____
ROOT
ATOM      1  C   UNL     1      -1.200   2.292   0.682  0.00  0.00    +0.048 C 
ATOM      2  C   UNL     1      -0.893   0.856   0.346  0.00  0.00    +0.009 A 
ATOM      3  C   UNL     1      -0.897   0.271  -0.926  0.00  0.00    +0.042 A 
ATOM      4  C   UNL     1      -0.562  -1.054  -0.773  0.00  0.00    +0.115 A 
ATOM      5  O   UNL     1      -0.359  -1.279   0.523  0.00  0.00    -0.454 OA
ATOM      6  C   UNL     1      -0.550  -0.136   1.222  0.00  0.00    +0.194 A 
ATOM      7  C   UNL     1      -0.468  -2.016  -1.930  0.00  0.00    +0.075 C 
ATOM      8  C   UNL     1      -1.265  -1.465  -3.115  0.00  0.00    +0.014 C 
ATOM      9  C   UNL     1      -0.829  -0.032  -3.440  0.00  0.00    +0.058 C 
ATOM     10  C   UNL     1      -1.184   0.854  -2.256  0.00  0.00    +0.070 C 
ATOM     11  N   UNL     1      -1.701   2.035  -2.400  0.00  0.00    -0.184 NA
ENDROOT
BRANCH   6  12
ATOM     12  C   UNL     1      -0.414   0.012   2.675  0.00  0.00    +0.296 C 
ATOM     13  O   UNL     1      -0.614   1.093   3.197  0.00  0.00    -0.265 OA
ATOM     14  N   UNL     1      -0.069  -1.048   3.432  0.00  0.00    -0.223 N 
ATOM     15  H   UNL     1       0.091  -1.909   3.015  0.00  0.00    +0.174 HD
BRANCH  14  16
ATOM     16  N   UNL     1       0.061  -0.906   4.819  0.00  0.00    -0.219 N 
BRANCH  16  17
ATOM     17  C   UNL     1      -0.927  -1.411   5.668  0.00  0.00    +0.053 A 
ATOM     18  C   UNL     1      -2.269  -1.244   5.351  0.00  0.00    +0.025 A 
ATOM     19  C   UNL     1      -3.244  -1.744   6.193  0.00  0.00    +0.002 A 
ATOM     20  C   UNL     1      -2.884  -2.410   7.350  0.00  0.00    +0.000 A 
ATOM     21  C   UNL     1      -1.549  -2.578   7.669  0.00  0.00    +0.002 A 
ATOM     22  C   UNL     1      -0.570  -2.086   6.829  0.00  0.00    +0.025 A 
ENDBRANCH  16  17
BRANCH  16  23
ATOM     23  C   UNL     1       1.178  -0.259   5.354  0.00  0.00    +0.053 A 
ATOM     24  C   UNL     1       2.450  -0.571   4.892  0.00  0.00    +0.025 A 
ATOM     25  C   UNL     1       3.552   0.070   5.423  0.00  0.00    +0.002 A 
ATOM     26  C   UNL     1       3.390   1.021   6.414  0.00  0.00    +0.000 A 
ATOM     27  C   UNL     1       2.125   1.333   6.877  0.00  0.00    +0.002 A 
ATOM     28  C   UNL     1       1.018   0.701   6.346  0.00  0.00    +0.025 A 
ENDBRANCH  16  23
ENDBRANCH  14  16
ENDBRANCH   6  12
BRANCH  11  29
ATOM     29  N   UNL     1      -1.952   2.538  -3.684  0.00  0.00    -0.203 N 
ATOM     30  C   UNL     1      -2.490   3.765  -3.834  0.00  0.00    +0.263 C 
ATOM     31  O   UNL     1      -2.757   4.436  -2.856  0.00  0.00    -0.268 OA
ATOM     32  H   UNL     1      -1.739   2.003  -4.464  0.00  0.00    +0.178 HD
BRANCH  30  33
ATOM     33  C   UNL     1      -2.754   4.295  -5.188  0.00  0.00    +0.038 A 
ATOM     34  C   UNL     1      -2.454   3.525  -6.314  0.00  0.00    +0.015 A 
ATOM     35  C   UNL     1      -2.704   4.025  -7.574  0.00  0.00    +0.033 A 
ATOM     36  C   UNL     1      -3.251   5.287  -7.726  0.00  0.00    +0.126 A 
ATOM     37  C   UNL     1      -3.551   6.056  -6.614  0.00  0.00    +0.033 A 
ATOM     38  C   UNL     1      -3.311   5.565  -5.348  0.00  0.00    +0.015 A 
BRANCH  36  39
ATOM     39  N   UNL     1      -3.516   5.818  -9.082  0.00  0.00    +0.056 N 
ATOM     40  O   UNL     1      -3.255   5.149 -10.054  0.00  0.00    -0.126 OA
ATOM     41  O   UNL     1      -3.993   6.920  -9.217  0.00  0.00    -0.126 OA
ENDBRANCH  36  39
ENDBRANCH  30  33
ENDBRANCH  11  29
TORSDOF 7
