REMARK  Name = ZINC09389592
REMARK  16 active torsions:
REMARK  status: ('A' for Active; 'I' for Inactive)
REMARK    1  A    between atoms: C_1  and  C_2
REMARK    2  A    between atoms: C_2  and  C_3
REMARK    3  A    between atoms: C_3  and  N_4
REMARK    4  A    between atoms: N_4  and  C_5
REMARK    5  A    between atoms: N_4  and  S_8
REMARK    6  A    between atoms: C_5  and  C_6
REMARK    7  A    between atoms: C_6  and  C_7
REMARK    8  A    between atoms: S_8  and  C_11
REMARK    9  A    between atoms: C_14  and  C_17
REMARK   10  A    between atoms: C_17  and  N_19
REMARK   11  A    between atoms: N_21  and  C_31
REMARK   12  A    between atoms: C_24  and  C_30
REMARK   13  A    between atoms: C_25  and  C_29
REMARK   14  A    between atoms: C_31  and  C_32
REMARK   15  A    between atoms: C_32  and  O_33
REMARK   16  A    between atoms: O_33  and  C_34
REMARK                            x       y       z     vdW  Elec       q    Type
REMARK                         _______ _______ _______ _____ _____    ______ ____
ROOT
ATOM      1  C   UNL     1       1.716  -2.527  -0.100  0.00  0.00    +0.269 C 
ATOM      2  O   UNL     1       0.497  -2.533  -0.071  0.00  0.00    -0.268 OA
ENDROOT
BRANCH   1   3
ATOM      3  N   UNL     1       2.379  -1.366  -0.079  0.00  0.00    -0.152 NA
ATOM      4  C   UNL     1       1.710  -0.219  -0.026  0.00  0.00    +0.167 A 
ATOM      5  N   UNL     1       2.206   1.047   0.002  0.00  0.00    -0.319 N 
ATOM      6  C   UNL     1       1.346   2.127   0.057  0.00  0.00    +0.058 A 
ATOM      7  C   UNL     1       1.665   3.494   0.093  0.00  0.00    +0.030 A 
ATOM      8  C   UNL     1       0.675   4.446   0.148  0.00  0.00    -0.046 A 
ATOM      9  C   UNL     1      -0.663   4.090   0.169  0.00  0.00    -0.046 A 
ATOM     10  C   UNL     1      -1.006   2.750   0.138  0.00  0.00    +0.020 A 
ATOM     11  C   UNL     1      -0.017   1.797   0.079  0.00  0.00    +0.039 A 
ATOM     12  S   UNL     1      -0.007   0.023   0.022  0.00  0.00    -0.052 S 
ATOM     13  C   UNL     1      -1.733   5.149   0.230  0.00  0.00    +0.044 C 
ATOM     14  C   UNL     1       1.053   5.904   0.187  0.00  0.00    +0.044 C 
BRANCH   5  15
ATOM     15  C   UNL     1       3.655   1.265  -0.026  0.00  0.00    +0.152 C 
BRANCH  15  16
ATOM     16  C   UNL     1       4.351   0.173   0.789  0.00  0.00    +0.181 C 
BRANCH  16  17
ATOM     17  O   UNL     1       5.748   0.461   0.874  0.00  0.00    -0.381 OA
ATOM     18  C   UNL     1       6.495  -0.503   1.619  0.00  0.00    +0.194 C 
ENDBRANCH  16  17
ENDBRANCH  15  16
ENDBRANCH   5  15
ENDBRANCH   1   3
BRANCH   1  22
ATOM     19  C   UNL     1       3.856  -6.195  -0.267  0.00  0.00    +0.106 A 
ATOM     20  C   UNL     1       2.473  -6.205  -0.234  0.00  0.00    +0.029 A 
ATOM     21  C   UNL     1       1.772  -5.018  -0.180  0.00  0.00    +0.015 A 
ATOM     22  C   UNL     1       2.462  -3.805  -0.158  0.00  0.00    +0.039 A 
ATOM     23  C   UNL     1       3.856  -3.801  -0.197  0.00  0.00    +0.015 A 
ATOM     24  C   UNL     1       4.545  -4.995  -0.245  0.00  0.00    +0.029 A 
BRANCH  19  25
ATOM     25  S   UNL     1       4.744  -7.715  -0.336  0.00  0.00    +0.061 S 
ATOM     26  O   UNL     1       6.037  -7.455   0.193  0.00  0.00    -0.153 OA
ATOM     27  O   UNL     1       3.886  -8.711   0.204  0.00  0.00    -0.153 OA
BRANCH  25  28
ATOM     28  N   UNL     1       4.953  -8.088  -1.936  0.00  0.00    -0.177 NA
BRANCH  28  29
ATOM     29  C   UNL     1       6.141  -7.613  -2.649  0.00  0.00    +0.109 C 
BRANCH  29  31
ATOM     30  C   UNL     1       8.456  -8.206  -3.377  0.00  0.00    +0.005 C 
ATOM     31  C   UNL     1       7.215  -8.702  -2.632  0.00  0.00    +0.014 C 
ENDBRANCH  29  31
ENDBRANCH  28  29
BRANCH  28  32
ATOM     32  C   UNL     1       3.950  -8.892  -2.638  0.00  0.00    +0.109 C 
BRANCH  32  33
ATOM     33  C   UNL     1       2.967  -7.967  -3.358  0.00  0.00    +0.014 C 
ATOM     34  C   UNL     1       1.919  -8.807  -4.091  0.00  0.00    +0.005 C 
ENDBRANCH  32  33
ENDBRANCH  28  32
ENDBRANCH  25  28
ENDBRANCH  19  25
ENDBRANCH   1  22
TORSDOF 11
