REMARK  Name = ZINC62914548
REMARK  5 active torsions:
REMARK  status: ('A' for Active; 'I' for Inactive)
REMARK    1  A    between atoms: C_1  and  C_2
REMARK    2  A    between atoms: C_2  and  C_3
REMARK    3  A    between atoms: C_3  and  C_18
REMARK    4  A    between atoms: C_8  and  C_10
REMARK    5  A    between atoms: C_12  and  N_15
REMARK                            x       y       z     vdW  Elec       q    Type
REMARK                         _______ _______ _______ _____ _____    ______ ____
ROOT
ATOM      1  C   UNL     1      -1.433  -0.534   0.013  0.00  0.00    +0.089 C 
ATOM      2  C   UNL     1      -1.437  -2.078  -0.069  0.00  0.00    +0.039 C 
ATOM      3  C   UNL     1      -2.633  -2.370  -1.010  0.00  0.00    +0.109 C 
ATOM      4  N   UNL     1      -2.559  -1.274  -2.004  0.00  0.00    -0.295 N 
ATOM      5  C   UNL     1      -2.186  -0.065  -1.246  0.00  0.00    +0.126 C 
ATOM      6  C   UNL     1      -2.784  -1.363  -3.329  0.00  0.00    +0.265 C 
ATOM      7  O   UNL     1      -2.687  -0.374  -4.032  0.00  0.00    -0.268 OA
ENDROOT
BRANCH   6   8
ATOM      8  C   UNL     1      -3.148  -2.653  -3.926  0.00  0.00    +0.128 A 
ATOM      9  C   UNL     1      -3.401  -2.892  -5.260  0.00  0.00    +0.067 A 
ATOM     10  C   UNL     1      -3.707  -4.251  -5.384  0.00  0.00    +0.146 A 
ATOM     11  C   UNL     1      -3.637  -4.806  -4.150  0.00  0.00    +0.144 A 
ATOM     12  N   UNL     1      -3.293  -3.847  -3.256  0.00  0.00    -0.248 NA
BRANCH  10  13
ATOM     13  N   UNL     1      -4.047  -4.957  -6.639  0.00  0.00    +0.058 N 
ATOM     14  O   UNL     1      -4.078  -4.350  -7.685  0.00  0.00    -0.126 OA
ATOM     15  O   UNL     1      -4.294  -6.140  -6.620  0.00  0.00    -0.126 OA
ENDBRANCH  10  13
ENDBRANCH   6   8
BRANCH   1  16
ATOM     16  C   UNL     1      -2.151  -0.072   1.255  0.00  0.00    +0.364 C 
ATOM     17  O   UNL     1      -2.276   1.120   1.479  0.00  0.00    -0.246 OA
ATOM     18  O   UNL     1      -2.608  -0.890   2.035  0.00  0.00    -0.246 OA
ENDBRANCH   1  16
BRANCH   1  20
ATOM     19  C   UNL     1      -0.019   1.526   0.010  0.00  0.00    +0.005 C 
ATOM     20  C   UNL     1       0.002  -0.004   0.002  0.00  0.00    +0.016 C 
ENDBRANCH   1  20
TORSDOF 4
