REMARK  Name = ZINC02634323
REMARK  5 active torsions:
REMARK  status: ('A' for Active; 'I' for Inactive)
REMARK    1  A    between atoms: C_3  and  N_22
REMARK    2  A    between atoms: C_6  and  C_7
REMARK    3  A    between atoms: C_8  and  C_9
REMARK    4  A    between atoms: C_8  and  C_11
REMARK    5  A    between atoms: N_13  and  C_14
REMARK                            x       y       z     vdW  Elec       q    Type
REMARK                         _______ _______ _______ _____ _____    ______ ____
ROOT
ATOM      1  C   UNL     1      -2.443   8.044  -0.148  0.00  0.00    +0.032 C 
ATOM      2  C   UNL     1      -1.279   7.414   0.190  0.00  0.00    +0.114 C 
ENDROOT
BRANCH   1   8
ATOM      3  C   UNL     1      -3.767   6.003  -0.663  0.00  0.00    +0.010 A 
ATOM      4  C   UNL     1      -4.959   5.312  -0.647  0.00  0.00    +0.033 A 
ATOM      5  C   UNL     1      -6.099   5.900  -0.126  0.00  0.00    +0.126 A 
ATOM      6  C   UNL     1      -6.051   7.184   0.389  0.00  0.00    +0.033 A 
ATOM      7  C   UNL     1      -4.867   7.889   0.386  0.00  0.00    +0.010 A 
ATOM      8  C   UNL     1      -3.709   7.301  -0.140  0.00  0.00    -0.024 A 
BRANCH   5   9
ATOM      9  N   UNL     1      -7.376   5.151  -0.118  0.00  0.00    +0.056 N 
ATOM     10  O   UNL     1      -8.380   5.665   0.339  0.00  0.00    -0.126 OA
ATOM     11  O   UNL     1      -7.421   4.021  -0.570  0.00  0.00    -0.126 OA
ENDBRANCH   5   9
ENDBRANCH   1   8
BRANCH   2  12
ATOM     12  C   UNL     1      -1.319   6.088   0.829  0.00  0.00    +0.259 C 
ATOM     13  O   UNL     1      -2.382   5.614   1.181  0.00  0.00    -0.269 OA
ATOM     14  N   UNL     1      -0.176   5.400   1.024  0.00  0.00    -0.281 N 
ATOM     15  H   UNL     1       0.792   5.860   0.778  0.00  0.00    +0.155 HD
BRANCH  14  16
ATOM     16  C   UNL     1      -0.222   4.100   1.538  0.00  0.00    +0.036 A 
ATOM     17  C   UNL     1      -1.179   3.760   2.485  0.00  0.00    +0.043 A 
ATOM     18  C   UNL     1      -1.222   2.475   2.992  0.00  0.00    +0.044 A 
ATOM     19  C   UNL     1      -0.312   1.527   2.556  0.00  0.00    +0.040 A 
ATOM     20  C   UNL     1       0.646   1.865   1.617  0.00  0.00    +0.044 A 
ATOM     21  C   UNL     1       0.690   3.147   1.103  0.00  0.00    +0.043 A 
ATOM     22 CL   UNL     1       1.789   0.675   1.078  0.00  0.00    -0.083 Cl
ATOM     23 CL   UNL     1      -2.418   2.049   4.176  0.00  0.00    -0.083 Cl
ENDBRANCH  14  16
ENDBRANCH   2  12
BRANCH   2  24
ATOM     24  C   UNL     1      -0.021   8.042  -0.079  0.00  0.00    +0.104 C 
ATOM     25  N   UNL     1       0.978   8.541  -0.291  0.00  0.00    -0.191 NA
ENDBRANCH   2  24
TORSDOF 5
