REMARK  Name = ZINC13042060
REMARK  7 active torsions:
REMARK  status: ('A' for Active; 'I' for Inactive)
REMARK    1  A    between atoms: C_1  and  C_2
REMARK    2  A    between atoms: C_4  and  C_19
REMARK    3  A    between atoms: C_6  and  N_8
REMARK    4  A    between atoms: N_8  and  S_9
REMARK    5  A    between atoms: S_9  and  C_12
REMARK    6  A    between atoms: C_13  and  C_18
REMARK    7  A    between atoms: C_16  and  C_17
REMARK                            x       y       z     vdW  Elec       q    Type
REMARK                         _______ _______ _______ _____ _____    ______ ____
ROOT
ATOM      1  N   UNL     1       2.438   3.635   3.062  0.00  0.00    -0.216 N 
ATOM      2  H   UNL     1       3.135   3.796   2.407  0.00  0.00    +0.174 HD
ENDROOT
BRANCH   1   8
ATOM      3  C   UNL     1      -0.944   6.280   5.454  0.00  0.00    +0.044 C 
ATOM      4  C   UNL     1       0.495   5.920   5.185  0.00  0.00    -0.048 A 
ATOM      5  C   UNL     1       1.508   6.562   5.873  0.00  0.00    +0.006 A 
ATOM      6  C   UNL     1       2.829   6.235   5.629  0.00  0.00    -0.048 A 
ATOM      7  C   UNL     1       3.141   5.264   4.698  0.00  0.00    +0.028 A 
ATOM      8  C   UNL     1       2.126   4.617   4.005  0.00  0.00    +0.049 A 
ATOM      9  C   UNL     1       0.800   4.952   4.248  0.00  0.00    +0.028 A 
ATOM     10  C   UNL     1       3.930   6.937   6.382  0.00  0.00    +0.044 C 
ENDBRANCH   1   8
BRANCH   1  11
ATOM     11  S   UNL     1       1.617   2.196   3.062  0.00  0.00    +0.077 S 
ATOM     12  O   UNL     1       2.212   1.390   2.054  0.00  0.00    -0.150 OA
ATOM     13  O   UNL     1       0.233   2.518   3.062  0.00  0.00    -0.150 OA
BRANCH  11  14
ATOM     14  C   UNL     1       1.951   1.406   4.601  0.00  0.00    +0.173 A 
ATOM     15  C   UNL     1       3.076   0.626   4.953  0.00  0.00    +0.107 A 
ATOM     16  N   UNL     1       2.892   0.252   6.186  0.00  0.00    -0.081 NA
ATOM     17  O   UNL     1       1.852   0.679   6.631  0.00  0.00    -0.358 OA
ATOM     18  C   UNL     1       1.189   1.406   5.721  0.00  0.00    +0.161 A 
ATOM     19  C   UNL     1      -0.140   2.093   5.908  0.00  0.00    +0.091 C 
ATOM     20  C   UNL     1       4.255   0.295   4.076  0.00  0.00    +0.071 C 
ENDBRANCH  11  14
ENDBRANCH   1  11
TORSDOF 3
