REMARK  Name = ZINC59224313
REMARK  6 active torsions:
REMARK  status: ('A' for Active; 'I' for Inactive)
REMARK    1  A    between atoms: C_1  and  C_2
REMARK    2  A    between atoms: C_7  and  N_8
REMARK    3  A    between atoms: C_14  and  C_15
REMARK    4  A    between atoms: C_24  and  O_25
REMARK    5  A    between atoms: O_25  and  C_26
REMARK    6  A    between atoms: C_26  and  C_27
REMARK                            x       y       z     vdW  Elec       q    Type
REMARK                         _______ _______ _______ _____ _____    ______ ____
ROOT
ATOM      1  C   UNL     1      -0.437  -0.744   8.334  0.00  0.00    +0.026 A 
ATOM      2  C   UNL     1      -1.482  -0.714   9.358  0.00  0.00    -0.007 A 
ATOM      3  C   UNL     1      -2.421  -1.745   9.473  0.00  0.00    +0.009 A 
ATOM      4  C   UNL     1      -3.379  -1.679  10.442  0.00  0.00    +0.001 A 
ATOM      5  C   UNL     1      -3.436  -0.599  11.319  0.00  0.00    +0.001 A 
ATOM      6  C   UNL     1      -2.537   0.421  11.233  0.00  0.00    +0.008 A 
ATOM      7  C   UNL     1      -1.537   0.386  10.248  0.00  0.00    -0.017 A 
ATOM      8  C   UNL     1      -0.591   1.421  10.131  0.00  0.00    +0.012 A 
ATOM      9  C   UNL     1       0.374   1.379   9.174  0.00  0.00    +0.047 A 
ATOM     10  C   UNL     1       0.474   0.316   8.278  0.00  0.00    +0.129 A 
ENDROOT
BRANCH   1  17
ATOM     11  N   UNL     1       0.026  -0.037   2.398  0.00  0.00    -0.225 NA
ATOM     12  C   UNL     1      -0.054  -0.702   3.529  0.00  0.00    +0.166 C 
ATOM     13  N   UNL     1      -0.046  -2.066   3.724  0.00  0.00    -0.260 N 
ATOM     14  C   UNL     1      -0.135  -2.573   4.942  0.00  0.00    +0.256 C 
ATOM     15  O   UNL     1      -0.130  -3.776   5.131  0.00  0.00    -0.269 OA
ATOM     16  C   UNL     1      -0.240  -1.619   6.058  0.00  0.00    +0.078 C 
ATOM     17  C   UNL     1      -0.343  -1.861   7.394  0.00  0.00    +0.032 C 
ATOM     18  S   UNL     1      -0.190  -0.058   5.189  0.00  0.00    -0.049 S 
ATOM     19  H   UNL     1       0.025  -2.660   2.960  0.00  0.00    +0.157 HD
BRANCH  11  26
ATOM     20  C   UNL     1       2.063   0.625   0.531  0.00  0.00    +0.046 C 
ATOM     21  C   UNL     1       1.020  -0.427   0.253  0.00  0.00    -0.025 A 
ATOM     22  C   UNL     1       1.033  -1.115  -0.943  0.00  0.00    +0.007 A 
ATOM     23  C   UNL     1       0.076  -2.080  -1.201  0.00  0.00    +0.020 A 
ATOM     24  C   UNL     1      -0.902  -2.363  -0.261  0.00  0.00    +0.043 A 
ATOM     25  C   UNL     1      -0.927  -1.683   0.939  0.00  0.00    +0.048 A 
ATOM     26  C   UNL     1       0.041  -0.711   1.208  0.00  0.00    +0.071 A 
ATOM     27 CL   UNL     1      -2.098  -3.576  -0.595  0.00  0.00    -0.083 Cl
ENDBRANCH  11  26
ENDBRANCH   1  17
BRANCH  10  28
ATOM     28  O   UNL     1       1.457   0.313   7.343  0.00  0.00    -0.487 OA
BRANCH  28  29
ATOM     29  C   UNL     1       2.354   1.425   7.341  0.00  0.00    +0.267 C 
BRANCH  29  30
ATOM     30  C   UNL     1       3.371   1.249   6.242  0.00  0.00    +0.025 A 
ATOM     31  C   UNL     1       3.323   0.132   5.429  0.00  0.00    +0.010 A 
ATOM     32  C   UNL     1       4.255  -0.030   4.421  0.00  0.00    +0.001 A 
ATOM     33  C   UNL     1       5.237   0.924   4.226  0.00  0.00    +0.003 A 
ATOM     34  C   UNL     1       5.287   2.041   5.038  0.00  0.00    +0.039 A 
ATOM     35  C   UNL     1       4.350   2.207   6.044  0.00  0.00    +0.130 A 
ATOM     36  F   UNL     1       4.395   3.301   6.836  0.00  0.00    -0.205 F 
ENDBRANCH  29  30
ENDBRANCH  28  29
ENDBRANCH  10  28
TORSDOF 5
