REMARK  Name = ZINC04201572
REMARK  3 active torsions:
REMARK  status: ('A' for Active; 'I' for Inactive)
REMARK    1  A    between atoms: C_1  and  C_2
REMARK    2  A    between atoms: C_2  and  C_29
REMARK    3  A    between atoms: C_6  and  C_19
REMARK                            x       y       z     vdW  Elec       q    Type
REMARK                         _______ _______ _______ _____ _____    ______ ____
ROOT
ATOM      1  C   UNL     1      -1.996   0.210  -2.145  0.00  0.00    +0.011 C 
ATOM      2  C   UNL     1      -2.386  -0.016  -0.682  0.00  0.00    -0.023 C 
ATOM      3  C   UNL     1      -1.280  -0.799   0.029  0.00  0.00    +0.058 C 
ATOM      4  C   UNL     1       0.002  -0.004   0.002  0.00  0.00    +0.017 C 
ATOM      5  C   UNL     1      -0.016   1.345   0.009  0.00  0.00    +0.024 C 
ATOM      6  C   UNL     1       1.266   2.138   0.001  0.00  0.00    +0.092 C 
ATOM      7  C   UNL     1       2.424   1.294  -0.445  0.00  0.00    +0.067 A 
ATOM      8  C   UNL     1       2.343  -0.066  -0.437  0.00  0.00    +0.113 A 
ATOM      9  N   UNL     1       3.424  -0.812  -0.841  0.00  0.00    -0.295 N 
ATOM     10  H   UNL     1       3.367  -1.911  -0.834  0.00  0.00    +0.172 HD
ATOM     11  C   UNL     1       4.555  -0.206  -1.245  0.00  0.00    +0.328 A 
ATOM     12  O   UNL     1       5.503  -0.881  -1.598  0.00  0.00    -0.247 OA
ATOM     13  N   UNL     1       4.653   1.136  -1.264  0.00  0.00    -0.275 N 
ATOM     14  H   UNL     1       5.585   1.615  -1.599  0.00  0.00    +0.173 HD
ATOM     15  C   UNL     1       3.616   1.904  -0.876  0.00  0.00    +0.260 A 
ATOM     16  O   UNL     1       3.711   3.119  -0.898  0.00  0.00    -0.267 OA
ATOM     17  N   UNL     1       1.189  -0.685  -0.027  0.00  0.00    -0.303 N 
ATOM     18  C   UNL     1      -1.231   2.053   0.019  0.00  0.00    +0.162 C 
ATOM     19  O   UNL     1      -1.213   3.268   0.033  0.00  0.00    -0.292 OA
ATOM     20  C   UNL     1      -2.553   1.335   0.020  0.00  0.00    +0.086 C 
ATOM     21  C   UNL     1      -3.697  -0.801  -0.615  0.00  0.00    +0.011 C 
ATOM     22  H   UNL     1       1.225  -1.741   0.281  0.00  0.00    +0.153 HD
ENDROOT
BRANCH   6  23
ATOM     23  C   UNL     1       1.538   2.651   1.392  0.00  0.00    -0.035 A 
ATOM     24  C   UNL     1       1.689   1.762   2.439  0.00  0.00    +0.007 A 
ATOM     25  C   UNL     1       1.943   2.232   3.714  0.00  0.00    +0.038 A 
ATOM     26  C   UNL     1       2.036   3.594   3.944  0.00  0.00    +0.123 A 
ATOM     27  C   UNL     1       1.879   4.484   2.894  0.00  0.00    +0.038 A 
ATOM     28  C   UNL     1       1.630   4.012   1.620  0.00  0.00    +0.007 A 
ATOM     29  F   UNL     1       2.279   4.055   5.190  0.00  0.00    -0.205 F 
ENDBRANCH   6  23
TORSDOF 1
