REMARK  Name = ZINC44602776
REMARK  11 active torsions:
REMARK  status: ('A' for Active; 'I' for Inactive)
REMARK    1  A    between atoms: C_1  and  C_2
REMARK    2  A    between atoms: C_2  and  C_3
REMARK    3  A    between atoms: C_2  and  N_4
REMARK    4  A    between atoms: N_4  and  C_5
REMARK    5  A    between atoms: C_7  and  C_34
REMARK    6  A    between atoms: C_14  and  O_24
REMARK    7  A    between atoms: C_15  and  O_16
REMARK    8  A    between atoms: O_16  and  C_17
REMARK    9  A    between atoms: C_17  and  C_18
REMARK   10  A    between atoms: O_24  and  C_25
REMARK   11  A    between atoms: C_25  and  C_26
REMARK                            x       y       z     vdW  Elec       q    Type
REMARK                         _______ _______ _______ _____ _____    ______ ____
ROOT
ATOM      1  C   UNL     1      -0.090  -0.222   2.400  0.00  0.00    +0.047 C 
ATOM      2  C   UNL     1       0.742  -0.537   3.652  0.00  0.00    +0.197 C 
ATOM      3  O   UNL     1       1.018  -1.937   3.696  0.00  0.00    -0.481 OA
ATOM      4  C   UNL     1      -0.014  -2.807   3.591  0.00  0.00    +0.177 A 
ATOM      5  C   UNL     1      -1.225  -2.419   2.991  0.00  0.00    +0.061 A 
ATOM      6  C   UNL     1      -2.280  -3.329   2.879  0.00  0.00    +0.019 A 
ATOM      7  C   UNL     1      -2.137  -4.600   3.359  0.00  0.00    +0.050 A 
ATOM      8  C   UNL     1      -0.945  -4.994   3.959  0.00  0.00    +0.166 A 
ATOM      9  C   UNL     1       0.115  -4.101   4.077  0.00  0.00    +0.205 A 
ATOM     10  C   UNL     1      -1.365  -1.042   2.489  0.00  0.00    +0.157 C 
ATOM     11  O   UNL     1      -2.441  -0.585   2.164  0.00  0.00    -0.294 OA
ENDROOT
BRANCH   2  12
ATOM     12  C   UNL     1      -0.030  -0.136   4.883  0.00  0.00    -0.009 A 
ATOM     13  C   UNL     1      -0.520  -1.106   5.737  0.00  0.00    +0.007 A 
ATOM     14  C   UNL     1      -1.228  -0.739   6.866  0.00  0.00    +0.000 A 
ATOM     15  C   UNL     1      -1.446   0.598   7.140  0.00  0.00    +0.000 A 
ATOM     16  C   UNL     1      -0.956   1.568   6.286  0.00  0.00    +0.000 A 
ATOM     17  C   UNL     1      -0.244   1.201   5.160  0.00  0.00    +0.007 A 
ENDBRANCH   2  12
BRANCH   1  18
ATOM     18  N   UNL     1       0.661  -0.594   1.194  0.00  0.00    +0.390 N 
ATOM     19  H   UNL     1       0.811  -1.592   1.185  0.00  0.00    -0.084 HD
ATOM     20  H   UNL     1       1.552  -0.120   1.192  0.00  0.00    -0.084 HD
BRANCH  18  22
ATOM     21  C   UNL     1      -0.223   1.321  -0.051  0.00  0.00    -0.014 C 
ATOM     22  C   UNL     1      -0.103  -0.204   0.001  0.00  0.00    -0.077 C 
ATOM     23  C   UNL     1       0.619  -0.702  -1.253  0.00  0.00    -0.014 C 
ENDBRANCH  18  22
ENDBRANCH   1  18
BRANCH   9  24
ATOM     24  O   UNL     1       1.277  -4.496   4.665  0.00  0.00    -0.480 OA
BRANCH  24  25
ATOM     25  C   UNL     1       1.387  -4.304   6.077  0.00  0.00    +0.265 C 
BRANCH  25  26
ATOM     26  C   UNL     1       2.732  -4.796   6.548  0.00  0.00    -0.010 A 
ATOM     27  C   UNL     1       2.887  -6.112   6.942  0.00  0.00    +0.007 A 
ATOM     28  C   UNL     1       4.120  -6.563   7.374  0.00  0.00    +0.000 A 
ATOM     29  C   UNL     1       5.198  -5.699   7.411  0.00  0.00    +0.000 A 
ATOM     30  C   UNL     1       5.043  -4.383   7.015  0.00  0.00    +0.000 A 
ATOM     31  C   UNL     1       3.811  -3.933   6.579  0.00  0.00    +0.007 A 
ENDBRANCH  25  26
ENDBRANCH  24  25
ENDBRANCH   9  24
BRANCH   8  32
ATOM     32  O   UNL     1      -0.816  -6.259   4.436  0.00  0.00    -0.484 OA
BRANCH  32  33
ATOM     33  C   UNL     1      -1.942  -7.126   4.285  0.00  0.00    +0.264 C 
BRANCH  33  34
ATOM     34  C   UNL     1      -1.616  -8.477   4.868  0.00  0.00    -0.010 A 
ATOM     35  C   UNL     1      -1.044  -9.453   4.073  0.00  0.00    +0.007 A 
ATOM     36  C   UNL     1      -0.745 -10.692   4.607  0.00  0.00    +0.000 A 
ATOM     37  C   UNL     1      -1.018 -10.956   5.936  0.00  0.00    +0.000 A 
ATOM     38  C   UNL     1      -1.589  -9.980   6.731  0.00  0.00    +0.000 A 
ATOM     39  C   UNL     1      -1.884  -8.739   6.198  0.00  0.00    +0.007 A 
ENDBRANCH  33  34
ENDBRANCH  32  33
ENDBRANCH   8  32
TORSDOF 9
