REMARK  Name = ZINC38649830
REMARK  14 active torsions:
REMARK  status: ('A' for Active; 'I' for Inactive)
REMARK    1  A    between atoms: C_1  and  C_2
REMARK    2  A    between atoms: C_6  and  O_9
REMARK    3  A    between atoms: C_7  and  C_8
REMARK    4  A    between atoms: O_9  and  C_10
REMARK    5  A    between atoms: C_10  and  C_11
REMARK    6  A    between atoms: C_11  and  O_13
REMARK    7  A    between atoms: O_13  and  C_14
REMARK    8  A    between atoms: C_21  and  N_37
REMARK    9  A    between atoms: C_22  and  C_35
REMARK   10  A    between atoms: C_23  and  C_25
REMARK   11  A    between atoms: C_28  and  C_31
REMARK   12  A    between atoms: C_31  and  C_32
REMARK   13  A    between atoms: C_31  and  C_33
REMARK   14  A    between atoms: C_31  and  C_34
REMARK                            x       y       z     vdW  Elec       q    Type
REMARK                         _______ _______ _______ _____ _____    ______ ____
ROOT
ATOM      1  C   UNL     1       0.148  -6.694   5.060  0.00  0.00    +0.135 A 
ATOM      2  C   UNL     1       0.100  -5.903   6.199  0.00  0.00    +0.047 A 
ATOM      3  C   UNL     1       0.148  -6.488   7.449  0.00  0.00    +0.012 A 
ATOM      4  C   UNL     1       0.244  -7.863   7.571  0.00  0.00    +0.008 A 
ATOM      5  C   UNL     1       0.293  -8.658   6.437  0.00  0.00    +0.138 A 
ATOM      6  C   UNL     1       0.239  -8.071   5.179  0.00  0.00    +0.093 A 
ATOM      7  O   UNL     1       0.387 -10.007   6.537  0.00  0.00    -0.441 OA
ATOM      8  C   UNL     1       0.816 -10.566   7.681  0.00  0.00    +0.199 C 
ATOM      9  C   UNL     1       0.799  -9.895   8.857  0.00  0.00    +0.098 C 
ATOM     10  C   UNL     1       0.295  -8.482   8.943  0.00  0.00    +0.098 C 
ENDROOT
BRANCH  10  11
ATOM     11  C   UNL     1      -1.087  -8.480   9.543  0.00  0.00    -0.035 A 
ATOM     12  C   UNL     1      -2.115  -9.156   8.912  0.00  0.00    +0.005 A 
ATOM     13  C   UNL     1      -3.383  -9.155   9.463  0.00  0.00    +0.004 A 
ATOM     14  C   UNL     1      -3.624  -8.478  10.643  0.00  0.00    -0.042 A 
ATOM     15  C   UNL     1      -2.596  -7.803  11.274  0.00  0.00    +0.004 A 
ATOM     16  C   UNL     1      -1.327  -7.808  10.727  0.00  0.00    +0.005 A 
BRANCH  14  17
ATOM     17  C   UNL     1      -5.006  -8.476  11.243  0.00  0.00    -0.013 C 
ATOM     18  C   UNL     1      -5.433  -9.913  11.548  0.00  0.00    +0.015 C 
ATOM     19  C   UNL     1      -5.000  -7.660  12.537  0.00  0.00    +0.015 C 
ATOM     20  C   UNL     1      -5.991  -7.851  10.252  0.00  0.00    +0.015 C 
ENDBRANCH  14  17
ENDBRANCH  10  11
BRANCH   8  21
ATOM     21  N   UNL     1       1.285 -11.856   7.657  0.00  0.00    -0.328 N 
ATOM     22  H   UNL     1       1.304 -12.350   6.822  0.00  0.00    +0.145 HD
ATOM     23  H   UNL     1       1.598 -12.273   8.475  0.00  0.00    +0.145 HD
ENDBRANCH   8  21
BRANCH   9  24
ATOM     24  C   UNL     1       1.270 -10.545  10.043  0.00  0.00    +0.101 C 
ATOM     25  N   UNL     1       1.643 -11.061  10.983  0.00  0.00    -0.191 NA
ENDBRANCH   9  24
BRANCH   1  26
ATOM     26  O   UNL     1       0.101  -6.120   3.829  0.00  0.00    -0.423 OA
BRANCH  26  27
ATOM     27  C   UNL     1       1.217  -5.536   3.363  0.00  0.00    +0.350 C 
ATOM     28  O   UNL     1       2.195  -5.453   4.067  0.00  0.00    -0.247 OA
BRANCH  27  29
ATOM     29  C   UNL     1       1.249  -4.983   1.961  0.00  0.00    +0.349 C 
BRANCH  29  30
ATOM     30  O   UNL     1       2.535  -4.417   1.702  0.00  0.00    -0.481 OA
BRANCH  30  36
ATOM     31  C   UNL     1       5.486  -2.134  -1.445  0.00  0.00    +0.044 C 
ATOM     32  C   UNL     1       4.156  -2.750  -1.097  0.00  0.00    -0.044 A 
ATOM     33  C   UNL     1       3.134  -2.760  -2.029  0.00  0.00    +0.004 A 
ATOM     34  C   UNL     1       1.913  -3.325  -1.712  0.00  0.00    +0.004 A 
ATOM     35  C   UNL     1       1.709  -3.881  -0.464  0.00  0.00    +0.046 A 
ATOM     36  C   UNL     1       2.732  -3.872   0.473  0.00  0.00    +0.124 A 
ATOM     37  C   UNL     1       3.960  -3.309   0.151  0.00  0.00    -0.006 A 
ATOM     38  C   UNL     1       5.075  -3.304   1.164  0.00  0.00    +0.048 C 
ENDBRANCH  30  36
ENDBRANCH  29  30
ENDBRANCH  27  29
ENDBRANCH  26  27
ENDBRANCH   1  26
TORSDOF 9
