REMARK  Name = ZINC36500773
REMARK  11 active torsions:
REMARK  status: ('A' for Active; 'I' for Inactive)
REMARK    1  A    between atoms: C_1  and  C_2
REMARK    2  A    between atoms: C_2  and  C_4
REMARK    3  A    between atoms: C_2  and  C_10
REMARK    4  A    between atoms: C_10  and  C_12
REMARK    5  A    between atoms: C_10  and  N_21
REMARK    6  A    between atoms: N_14  and  C_15
REMARK    7  A    between atoms: N_21  and  C_22
REMARK    8  A    between atoms: C_22  and  C_23
REMARK    9  A    between atoms: C_28  and  C_30
REMARK   10  A    between atoms: C_34  and  O_37
REMARK   11  A    between atoms: C_35  and  O_36
REMARK                            x       y       z     vdW  Elec       q    Type
REMARK                         _______ _______ _______ _____ _____    ______ ____
ROOT
ATOM      1  C   UNL     1       1.488   0.533  -0.605  0.00  0.00    +0.170 C 
ENDROOT
BRANCH   1   2
ATOM      2  C   UNL     1       1.338   2.010  -0.344  0.00  0.00    +0.234 C 
ATOM      3  O   UNL     1       0.816   2.722  -1.176  0.00  0.00    -0.274 OA
ATOM      4  N   UNL     1       1.784   2.539   0.812  0.00  0.00    -0.311 N 
ATOM      5  H   UNL     1       2.269   1.985   1.444  0.00  0.00    +0.149 HD
BRANCH   4   6
ATOM      6  C   UNL     1       1.536   3.951   1.115  0.00  0.00    +0.073 C 
ATOM      7  C   UNL     1       2.627   4.809   0.472  0.00  0.00    +0.022 C 
ATOM      8  C   UNL     1       2.369   6.284   0.788  0.00  0.00    +0.002 C 
ATOM      9  C   UNL     1       2.385   6.490   2.304  0.00  0.00    +0.000 C 
ATOM     10  C   UNL     1       1.294   5.632   2.947  0.00  0.00    +0.002 C 
ATOM     11  C   UNL     1       1.552   4.157   2.631  0.00  0.00    +0.022 C 
ENDBRANCH   4   6
ENDBRANCH   1   2
BRANCH   1  12
ATOM     12  N   UNL     1       1.601   0.300  -2.047  0.00  0.00    -0.278 N 
ATOM     13  C   UNL     1       2.582  -0.490  -2.527  0.00  0.00    +0.251 C 
ATOM     14  O   UNL     1       3.292  -1.112  -1.760  0.00  0.00    -0.270 OA
BRANCH  13  15
ATOM     15  C   UNL     1       2.793  -0.602  -3.983  0.00  0.00    +0.082 A 
ATOM     16  C   UNL     1       1.895  -1.328  -4.770  0.00  0.00    +0.017 A 
ATOM     17  C   UNL     1       2.095  -1.429  -6.129  0.00  0.00    +0.005 A 
ATOM     18  C   UNL     1       3.185  -0.814  -6.723  0.00  0.00    +0.049 A 
ATOM     19  C   UNL     1       4.084  -0.092  -5.957  0.00  0.00    +0.159 A 
ATOM     20  C   UNL     1       3.891   0.024  -4.584  0.00  0.00    +0.171 A 
BRANCH  20  21
ATOM     21  O   UNL     1       4.767   0.737  -3.830  0.00  0.00    -0.503 OA
ATOM     22  H   UNL     1       5.505   0.215  -3.486  0.00  0.00    +0.292 HD
ENDBRANCH  20  21
BRANCH  19  23
ATOM     23  O   UNL     1       5.151   0.509  -6.548  0.00  0.00    -0.503 OA
ATOM     24  H   UNL     1       4.980   1.413  -6.844  0.00  0.00    +0.292 HD
ENDBRANCH  19  23
ENDBRANCH  13  15
BRANCH  12  25
ATOM     25  C   UNL     1       0.649   0.927  -2.967  0.00  0.00    +0.183 C 
BRANCH  25  26
ATOM     26  C   UNL     1      -0.747   0.466  -2.636  0.00  0.00    +0.122 A 
ATOM     27  C   UNL     1      -1.627   1.120  -1.857  0.00  0.00    +0.046 A 
ATOM     28  C   UNL     1      -2.802   0.335  -1.818  0.00  0.00    +0.041 A 
ATOM     29  C   UNL     1      -2.570  -0.752  -2.575  0.00  0.00    +0.195 A 
ATOM     30  O   UNL     1      -1.325  -0.665  -3.073  0.00  0.00    -0.466 OA
ENDBRANCH  25  26
ENDBRANCH  12  25
ENDBRANCH   1  12
BRANCH   1  32
ATOM     31  C   UNL     1       0.045   0.172   1.403  0.00  0.00    +0.015 C 
ATOM     32  C   UNL     1       0.264  -0.208  -0.063  0.00  0.00    +0.045 C 
BRANCH  32  33
ATOM     33  C   UNL     1       0.488  -1.694  -0.169  0.00  0.00    -0.042 A 
ATOM     34  C   UNL     1       1.645  -2.256   0.336  0.00  0.00    +0.004 A 
ATOM     35  C   UNL     1       1.851  -3.620   0.238  0.00  0.00    +0.000 A 
ATOM     36  C   UNL     1       0.899  -4.421  -0.364  0.00  0.00    +0.000 A 
ATOM     37  C   UNL     1      -0.259  -3.859  -0.868  0.00  0.00    +0.000 A 
ATOM     38  C   UNL     1      -0.467  -2.496  -0.767  0.00  0.00    +0.004 A 
ENDBRANCH  32  33
ENDBRANCH   1  32
TORSDOF 10
