REMARK  Name = ZINC63873911
REMARK  11 active torsions:
REMARK  status: ('A' for Active; 'I' for Inactive)
REMARK    1  A    between atoms: C_1  and  C_2
REMARK    2  A    between atoms: C_5  and  C_9
REMARK    3  A    between atoms: C_6  and  C_8
REMARK    4  A    between atoms: N_11  and  N_12
REMARK    5  A    between atoms: C_13  and  C_15
REMARK    6  A    between atoms: C_15  and  C_17
REMARK    7  A    between atoms: C_15  and  N_27
REMARK    8  A    between atoms: C_17  and  C_18
REMARK    9  A    between atoms: C_28  and  O_30
REMARK   10  A    between atoms: O_30  and  C_31
REMARK   11  A    between atoms: C_31  and  C_32
REMARK                            x       y       z     vdW  Elec       q    Type
REMARK                         _______ _______ _______ _____ _____    ______ ____
ROOT
ATOM      1  C   UNL     1       3.386  -4.986  -5.666  0.00  0.00    +0.168 C 
ENDROOT
BRANCH   1   3
ATOM      2  N   UNL     1       3.353  -3.572  -3.636  0.00  0.00    -0.233 N 
ATOM      3  C   UNL     1       3.068  -3.700  -4.948  0.00  0.00    +0.250 C 
ATOM      4  O   UNL     1       2.556  -2.780  -5.550  0.00  0.00    -0.272 OA
ATOM      5  H   UNL     1       3.762  -4.308  -3.155  0.00  0.00    +0.173 HD
BRANCH   2   8
ATOM      6  C   UNL     1       3.341  -2.248  -1.658  0.00  0.00    +0.259 C 
ATOM      7  O   UNL     1       3.855  -3.171  -1.053  0.00  0.00    -0.269 OA
ATOM      8  N   UNL     1       3.057  -2.376  -2.969  0.00  0.00    -0.230 N 
ATOM      9  H   UNL     1       2.647  -1.640  -3.450  0.00  0.00    +0.173 HD
BRANCH   6  13
ATOM     10  C   UNL     1       2.182   2.489  -0.516  0.00  0.00    +0.052 C 
ATOM     11  C   UNL     1       1.979   0.985  -0.321  0.00  0.00    +0.174 C 
ATOM     12  C   UNL     1       2.405   0.202  -1.587  0.00  0.00    +0.088 C 
ATOM     13  C   UNL     1       3.042  -1.038  -0.982  0.00  0.00    +0.056 C 
ATOM     14  C   UNL     1       3.267  -0.769   0.315  0.00  0.00    +0.103 C 
ATOM     15  O   UNL     1       2.883   0.471   0.676  0.00  0.00    -0.493 OA
ATOM     16  C   UNL     1       3.883  -1.756   1.273  0.00  0.00    +0.086 C 
ENDBRANCH   6  13
ENDBRANCH   2   8
ENDBRANCH   1   3
BRANCH   1  17
ATOM     17  N   UNL     1       2.985  -4.874  -7.070  0.00  0.00    -0.269 N 
ATOM     18  C   UNL     1       3.624  -5.593  -8.014  0.00  0.00    +0.401 C 
ATOM     19  O   UNL     1       4.535  -6.334  -7.699  0.00  0.00    -0.226 OA
ATOM     20  H   UNL     1       2.258  -4.282  -7.321  0.00  0.00    +0.153 HD
BRANCH  18  21
ATOM     21  O   UNL     1       3.255  -5.489  -9.304  0.00  0.00    -0.446 OA
BRANCH  21  22
ATOM     22  C   UNL     1       3.977  -6.280 -10.251  0.00  0.00    +0.269 C 
BRANCH  22  23
ATOM     23  C   UNL     1       3.427  -6.035 -11.632  0.00  0.00    -0.010 A 
ATOM     24  C   UNL     1       2.391  -6.814 -12.112  0.00  0.00    +0.007 A 
ATOM     25  C   UNL     1       1.887  -6.589 -13.380  0.00  0.00    +0.000 A 
ATOM     26  C   UNL     1       2.420  -5.586 -14.167  0.00  0.00    +0.000 A 
ATOM     27  C   UNL     1       3.456  -4.807 -13.687  0.00  0.00    +0.000 A 
ATOM     28  C   UNL     1       3.957  -5.029 -12.418  0.00  0.00    +0.007 A 
ENDBRANCH  22  23
ENDBRANCH  21  22
ENDBRANCH  18  21
ENDBRANCH   1  17
BRANCH   1  29
ATOM     29  C   UNL     1       2.625  -6.139  -5.008  0.00  0.00    +0.065 C 
BRANCH  29  30
ATOM     30  C   UNL     1       1.143  -5.900  -5.137  0.00  0.00    -0.039 C 
ATOM     31  C   UNL     1       0.324  -6.375  -6.104  0.00  0.00    -0.001 A 
ATOM     32  C   UNL     1       0.560  -7.221  -7.279  0.00  0.00    +0.010 A 
ATOM     33  C   UNL     1      -0.483  -7.534  -8.082  0.00  0.00    +0.001 A 
ATOM     34  C   UNL     1      -1.780  -7.072  -7.819  0.00  0.00    +0.002 A 
ATOM     35  C   UNL     1      -2.075  -6.290  -6.759  0.00  0.00    +0.026 A 
ATOM     36  C   UNL     1      -1.054  -5.899  -5.848  0.00  0.00    +0.043 A 
ATOM     37  N   UNL     1      -1.087  -5.160  -4.766  0.00  0.00    -0.380 N 
ATOM     38  C   UNL     1       0.269  -5.088  -4.208  0.00  0.00    +0.144 C 
ATOM     39  H   UNL     1      -1.875  -4.736  -4.394  0.00  0.00    +0.160 HD
ENDBRANCH  29  30
ENDBRANCH   1  29
TORSDOF 9
