REMARK  Name = ZINC58016904
REMARK  9 active torsions:
REMARK  status: ('A' for Active; 'I' for Inactive)
REMARK    1  A    between atoms: C_4  and  C_7
REMARK    2  A    between atoms: C_7  and  C_9
REMARK    3  A    between atoms: C_7  and  N_30
REMARK    4  A    between atoms: C_9  and  N_10
REMARK    5  A    between atoms: C_11  and  C_13
REMARK    6  A    between atoms: C_17  and  C_19
REMARK    7  A    between atoms: C_19  and  O_20
REMARK    8  A    between atoms: O_20  and  C_21
REMARK    9  A    between atoms: C_26  and  C_27
REMARK                            x       y       z     vdW  Elec       q    Type
REMARK                         _______ _______ _______ _____ _____    ______ ____
ROOT
ATOM      1  C   UNL     1       6.993  -3.362   2.400  0.00  0.00    +0.037 A 
ATOM      2  C   UNL     1       7.556  -3.708   1.170  0.00  0.00    +0.013 A 
ATOM      3  C   UNL     1       8.635  -4.566   1.125  0.00  0.00    +0.001 A 
ATOM      4  C   UNL     1       9.160  -5.084   2.296  0.00  0.00    +0.007 A 
ATOM      5  C   UNL     1       8.607  -4.745   3.518  0.00  0.00    -0.010 A 
ATOM      6  C   UNL     1       7.531  -3.884   3.577  0.00  0.00    +0.020 A 
ENDROOT
BRANCH   1   8
ATOM      7  N   UNL     1       5.320  -1.941   1.316  0.00  0.00    -0.313 N 
ATOM      8  C   UNL     1       5.837  -2.443   2.455  0.00  0.00    +0.244 C 
ATOM      9  O   UNL     1       5.352  -2.139   3.527  0.00  0.00    -0.270 OA
ATOM     10  H   UNL     1       5.707  -2.183   0.460  0.00  0.00    +0.149 HD
BRANCH   7  11
ATOM     11  C   UNL     1       4.174  -1.030   1.370  0.00  0.00    +0.094 C 
BRANCH  11  12
ATOM     12  C   UNL     1       3.870  -0.508  -0.035  0.00  0.00    -0.020 C 
BRANCH  12  16
ATOM     13  C   UNL     1       7.127   1.896  -1.399  0.00  0.00    +0.000 A 
ATOM     14  C   UNL     1       7.011   0.586  -1.822  0.00  0.00    +0.000 A 
ATOM     15  C   UNL     1       5.957  -0.193  -1.381  0.00  0.00    +0.002 A 
ATOM     16  C   UNL     1       5.019   0.340  -0.516  0.00  0.00    -0.059 A 
ATOM     17  C   UNL     1       5.136   1.651  -0.092  0.00  0.00    +0.002 A 
ATOM     18  C   UNL     1       6.189   2.429  -0.535  0.00  0.00    +0.000 A 
ENDBRANCH  12  16
BRANCH  12  19
ATOM     19  N   UNL     1       2.645   0.302  -0.003  0.00  0.00    +0.385 N 
ATOM     20  C   UNL     1       2.327   0.805  -1.363  0.00  0.00    -0.078 C 
ATOM     21  C   UNL     1       0.811   1.116  -1.282  0.00  0.00    -0.020 C 
ATOM     22  C   UNL     1       0.271  -0.028  -0.394  0.00  0.00    -0.020 C 
ATOM     23  C   UNL     1       1.492  -0.534   0.397  0.00  0.00    -0.078 C 
ATOM     24  H   UNL     1       2.754   1.073   0.638  0.00  0.00    -0.081 HD
ENDBRANCH  12  19
ENDBRANCH  11  12
ENDBRANCH   7  11
ENDBRANCH   1   8
BRANCH   5  25
ATOM     25  C   UNL     1       9.184  -5.315   4.788  0.00  0.00    +0.264 C 
BRANCH  25  26
ATOM     26  O   UNL     1      10.207  -4.445   5.279  0.00  0.00    -0.487 OA
BRANCH  26  27
ATOM     27  C   UNL     1      10.833  -4.814   6.424  0.00  0.00    +0.133 A 
ATOM     28  C   UNL     1      10.478  -5.993   7.063  0.00  0.00    +0.046 A 
ATOM     29  C   UNL     1      11.115  -6.368   8.229  0.00  0.00    +0.004 A 
ATOM     30  C   UNL     1      12.113  -5.572   8.769  0.00  0.00    +0.001 A 
ATOM     31  C   UNL     1      12.479  -4.398   8.147  0.00  0.00    +0.017 A 
ATOM     32  C   UNL     1      11.845  -4.010   6.963  0.00  0.00    +0.078 A 
BRANCH  32  33
ATOM     33  C   UNL     1      12.236  -2.757   6.289  0.00  0.00    +0.245 C 
ATOM     34  O   UNL     1      11.679  -2.420   5.263  0.00  0.00    -0.270 OA
ATOM     35  N   UNL     1      13.211  -1.986   6.812  0.00  0.00    -0.325 N 
ATOM     36  H   UNL     1      13.655  -2.255   7.631  0.00  0.00    +0.145 HD
ATOM     37  H   UNL     1      13.468  -1.163   6.369  0.00  0.00    +0.145 HD
ENDBRANCH  32  33
ENDBRANCH  26  27
ENDBRANCH  25  26
ENDBRANCH   5  25
TORSDOF 9
