REMARK  Name = ZINC33635056
REMARK  12 active torsions:
REMARK  status: ('A' for Active; 'I' for Inactive)
REMARK    1  A    between atoms: C_1  and  C_2
REMARK    2  A    between atoms: N_8  and  C_9
REMARK    3  A    between atoms: C_9  and  C_10
REMARK    4  A    between atoms: C_10  and  C_11
REMARK    5  A    between atoms: C_11  and  N_12
REMARK    6  A    between atoms: C_13  and  C_15
REMARK    7  A    between atoms: C_18  and  C_20
REMARK    8  A    between atoms: C_20  and  N_21
REMARK    9  A    between atoms: C_24  and  C_32
REMARK   10  A    between atoms: C_32  and  C_33
REMARK   11  A    between atoms: C_32  and  C_34
REMARK   12  A    between atoms: C_32  and  C_35
REMARK                            x       y       z     vdW  Elec       q    Type
REMARK                         _______ _______ _______ _____ _____    ______ ____
ROOT
ATOM      1  C   UNL     1      -1.236   1.058   8.538  0.00  0.00    +0.133 A 
ATOM      2  C   UNL     1      -1.633   1.282   9.832  0.00  0.00    +0.080 A 
ATOM      3  S   UNL     1      -0.241   0.746  10.719  0.00  0.00    -0.078 S 
ATOM      4  C   UNL     1       0.745   0.276   9.373  0.00  0.00    +0.097 A 
ATOM      5  N   UNL     1      -0.021   0.541   8.347  0.00  0.00    -0.238 NA
ENDROOT
BRANCH   1   7
ATOM      6  N   UNL     1      -1.704   1.142   6.142  0.00  0.00    -0.310 N 
ATOM      7  C   UNL     1      -2.120   1.372   7.403  0.00  0.00    +0.263 C 
ATOM      8  O   UNL     1      -3.225   1.838   7.604  0.00  0.00    -0.269 OA
ATOM      9  H   UNL     1      -0.704   0.720   5.960  0.00  0.00    +0.149 HD
BRANCH   6  10
ATOM     10  C   UNL     1      -2.583   1.454   5.012  0.00  0.00    +0.103 C 
BRANCH  10  11
ATOM     11  C   UNL     1      -1.876   1.101   3.703  0.00  0.00    +0.000 C 
BRANCH  11  12
ATOM     12  C   UNL     1      -2.794   1.427   2.523  0.00  0.00    -0.077 C 
BRANCH  12  19
ATOM     13  C   UNL     1      -4.306   1.101   0.172  0.00  0.00    -0.013 C 
ATOM     14  C   UNL     1      -2.861   1.601   0.109  0.00  0.00    -0.072 C 
ATOM     15  C   UNL     1      -2.206   1.108  -1.183  0.00  0.00    -0.016 C 
ATOM     16  C   UNL     1      -0.755   1.594  -1.231  0.00  0.00    -0.003 C 
ATOM     17  C   UNL     1      -0.013   1.086   0.008  0.00  0.00    -0.019 C 
ATOM     18  C   UNL     1      -0.731   1.580   1.266  0.00  0.00    -0.078 C 
ATOM     19  N   UNL     1      -2.115   1.088   1.265  0.00  0.00    +0.381 N 
ATOM     20  H   UNL     1      -2.082  -0.008   1.182  0.00  0.00    -0.081 HD
ENDBRANCH  12  19
ENDBRANCH  11  12
ENDBRANCH  10  11
ENDBRANCH   6  10
ENDBRANCH   1   7
BRANCH   4  21
ATOM     21  C   UNL     1       2.138  -0.300   9.383  0.00  0.00    +0.176 C 
BRANCH  21  22
ATOM     22  N   UNL     1       3.117   0.789   9.327  0.00  0.00    -0.259 N 
ATOM     23  C   UNL     1       3.605   1.368  10.507  0.00  0.00    +0.079 A 
ATOM     24  C   UNL     1       3.433   0.739  11.729  0.00  0.00    +0.031 A 
ATOM     25  C   UNL     1       3.921   1.328  12.881  0.00  0.00    -0.040 A 
ATOM     26  C   UNL     1       4.580   2.542  12.816  0.00  0.00    +0.008 A 
ATOM     27  C   UNL     1       4.755   3.176  11.598  0.00  0.00    +0.048 A 
ATOM     28  C   UNL     1       4.269   2.592  10.441  0.00  0.00    +0.143 A 
ATOM     29  O   UNL     1       4.434   3.199   9.236  0.00  0.00    -0.481 OA
ATOM     30  C   UNL     1       4.599   2.344   8.102  0.00  0.00    +0.325 C 
ATOM     31  C   UNL     1       3.568   1.246   8.139  0.00  0.00    +0.258 C 
ATOM     32  O   UNL     1       3.141   0.776   7.105  0.00  0.00    -0.271 OA
BRANCH  25  33
ATOM     33  C   UNL     1       3.735   0.645  14.211  0.00  0.00    -0.013 C 
ATOM     34  C   UNL     1       4.362   1.499  15.315  0.00  0.00    +0.015 C 
ATOM     35  C   UNL     1       2.241   0.469  14.489  0.00  0.00    +0.015 C 
ATOM     36  C   UNL     1       4.413  -0.726  14.179  0.00  0.00    +0.015 C 
ENDBRANCH  25  33
ENDBRANCH  21  22
ENDBRANCH   4  21
TORSDOF 8
