REMARK  Name = ZINC40319490
REMARK  3 active torsions:
REMARK  status: ('A' for Active; 'I' for Inactive)
REMARK    1  A    between atoms: C_6  and  C_19
REMARK    2  A    between atoms: C_11  and  C_13
REMARK    3  A    between atoms: C_14  and  N_18
REMARK                            x       y       z     vdW  Elec       q    Type
REMARK                         _______ _______ _______ _____ _____    ______ ____
ROOT
ATOM      1  C   UNL     1      -0.397   1.792  -1.252  0.00  0.00    +0.013 A 
ATOM      2  C   UNL     1       0.392   2.684  -1.894  0.00  0.00    +0.046 A 
ATOM      3  S   UNL     1       1.694   1.636  -2.525  0.00  0.00    -0.101 S 
ATOM      4  C   UNL     1       1.089   0.094  -1.891  0.00  0.00    -0.004 A 
ATOM      5  C   UNL     1      -0.052   0.441  -1.237  0.00  0.00    -0.017 A 
ATOM      6  C   UNL     1      -0.884  -0.627  -0.528  0.00  0.00    +0.110 C 
ATOM      7  N   UNL     1      -0.403  -1.941  -0.976  0.00  0.00    -0.289 N 
ATOM      8  C   UNL     1       1.045  -2.201  -1.001  0.00  0.00    +0.114 C 
ATOM      9  C   UNL     1       1.685  -1.268  -2.040  0.00  0.00    +0.062 C 
ATOM     10  C   UNL     1      -1.275  -2.894  -1.357  0.00  0.00    +0.256 C 
ATOM     11  O   UNL     1      -2.459  -2.629  -1.465  0.00  0.00    -0.269 OA
ENDROOT
BRANCH  10  12
ATOM     12  C   UNL     1      -0.816  -4.204  -1.633  0.00  0.00    +0.095 A 
ATOM     13  C   UNL     1      -1.186  -5.067  -2.665  0.00  0.00    +0.044 A 
ATOM     14  C   UNL     1      -0.552  -6.295  -2.667  0.00  0.00    +0.031 A 
ATOM     15  C   UNL     1       0.353  -6.569  -1.699  0.00  0.00    +0.048 A 
ATOM     16  S   UNL     1       0.391  -5.180  -0.756  0.00  0.00    -0.090 S 
BRANCH  13  17
ATOM     17  N   UNL     1      -2.128  -4.715  -3.627  0.00  0.00    -0.357 N 
ATOM     18  H   UNL     1      -2.553  -3.843  -3.594  0.00  0.00    +0.142 HD
ATOM     19  H   UNL     1      -2.361  -5.341  -4.331  0.00  0.00    +0.142 HD
ENDBRANCH  13  17
ENDBRANCH  10  12
BRANCH   6  20
ATOM     20  C   UNL     1      -2.360  -0.462  -0.894  0.00  0.00    +0.014 C 
ATOM     21  C   UNL     1      -2.701   0.491  -2.042  0.00  0.00    +0.006 C 
ATOM     22  C   UNL     1      -3.015   0.888  -0.598  0.00  0.00    +0.006 C 
ENDBRANCH   6  20
TORSDOF 3
