REMARK  Name = ZINC11052750
REMARK  7 active torsions:
REMARK  status: ('A' for Active; 'I' for Inactive)
REMARK    1  A    between atoms: C_9  and  C_10
REMARK    2  A    between atoms: C_17  and  C_20
REMARK    3  A    between atoms: C_20  and  O_22
REMARK    4  A    between atoms: O_22  and  C_23
REMARK    5  A    between atoms: C_23  and  C_24
REMARK    6  A    between atoms: N_26  and  C_27
REMARK    7  A    between atoms: C_28  and  C_32
REMARK                            x       y       z     vdW  Elec       q    Type
REMARK                         _______ _______ _______ _____ _____    ______ ____
ROOT
ATOM      1  C   UNL     1      -9.620  -2.809  -2.676  0.00  0.00    +0.053 A 
ATOM      2  C   UNL     1      -8.512  -2.039  -2.515  0.00  0.00    +0.049 A 
ATOM      3  C   UNL     1      -8.400  -1.186  -1.400  0.00  0.00    +0.142 A 
ATOM      4  N   UNL     1      -9.354  -1.126  -0.501  0.00  0.00    -0.148 NA
ATOM      5  N   UNL     1     -10.508  -1.900  -0.639  0.00  0.00    -0.187 N 
ATOM      6  C   UNL     1     -10.647  -2.741  -1.715  0.00  0.00    +0.178 A 
ATOM      7  N   UNL     1     -11.819  -3.342  -1.584  0.00  0.00    -0.128 NA
ATOM      8  N   UNL     1     -12.392  -2.924  -0.509  0.00  0.00    -0.123 NA
ATOM      9  C   UNL     1     -11.630  -2.046   0.097  0.00  0.00    +0.258 A 
ATOM     10  N   UNL     1      -7.261  -0.402  -1.246  0.00  0.00    -0.314 N 
ATOM     11  C   UNL     1      -7.343   0.411  -0.026  0.00  0.00    +0.107 C 
ATOM     12  C   UNL     1      -6.146   1.363   0.035  0.00  0.00    +0.033 C 
ATOM     13  C   UNL     1      -4.850   0.548   0.028  0.00  0.00    +0.101 C 
ATOM     14  C   UNL     1      -4.812  -0.327  -1.228  0.00  0.00    +0.033 C 
ATOM     15  C   UNL     1      -6.048  -1.229  -1.254  0.00  0.00    +0.107 C 
ENDROOT
BRANCH   9  16
ATOM     16  C   UNL     1     -11.950  -1.329   1.382  0.00  0.00    +0.454 C 
ATOM     17  F   UNL     1     -13.015  -1.972   2.023  0.00  0.00    -0.163 F 
ATOM     18  F   UNL     1     -10.827  -1.343   2.216  0.00  0.00    -0.163 F 
ATOM     19  F   UNL     1     -12.306  -0.005   1.102  0.00  0.00    -0.163 F 
ENDBRANCH   9  16
BRANCH  13  20
ATOM     20  C   UNL     1      -3.667   1.482   0.028  0.00  0.00    +0.311 C 
ATOM     21  O   UNL     1      -3.842   2.678   0.035  0.00  0.00    -0.251 OA
BRANCH  20  22
ATOM     22  O   UNL     1      -2.420   0.986   0.019  0.00  0.00    -0.455 OA
BRANCH  22  23
ATOM     23  C   UNL     1      -1.330   1.944   0.019  0.00  0.00    +0.328 C 
BRANCH  23  24
ATOM     24  C   UNL     1      -0.014   1.209   0.009  0.00  0.00    +0.255 C 
ATOM     25  O   UNL     1       0.002  -0.004   0.002  0.00  0.00    -0.272 OA
ATOM     26  N   UNL     1       1.143   1.898   0.001  0.00  0.00    -0.277 N 
ATOM     27  H   UNL     1       1.130   2.868   0.007  0.00  0.00    +0.155 HD
BRANCH  26  28
ATOM     28  C   UNL     1       2.354   1.221  -0.014  0.00  0.00    +0.084 A 
ATOM     29  C   UNL     1       3.639   1.750  -0.029  0.00  0.00    +0.065 A 
ATOM     30  C   UNL     1       4.730   0.805  -0.039  0.00  0.00    +0.022 A 
ATOM     31  C   UNL     1       4.410  -0.501  -0.044  0.00  0.00    +0.048 A 
ATOM     32  S   UNL     1       2.630  -0.488  -0.026  0.00  0.00    -0.081 S 
BRANCH  29  33
ATOM     33  C   UNL     1       3.875   3.198  -0.031  0.00  0.00    +0.244 C 
ATOM     34  O   UNL     1       2.932   3.968  -0.019  0.00  0.00    -0.270 OA
ATOM     35  N   UNL     1       5.135   3.675  -0.045  0.00  0.00    -0.325 N 
ATOM     36  H   UNL     1       5.886   3.061  -0.055  0.00  0.00    +0.145 HD
ATOM     37  H   UNL     1       5.291   4.632  -0.047  0.00  0.00    +0.145 HD
ENDBRANCH  29  33
ENDBRANCH  26  28
ENDBRANCH  23  24
ENDBRANCH  22  23
ENDBRANCH  20  22
ENDBRANCH  13  20
TORSDOF 7
