REMARK  Name = ZINC20074820
REMARK  4 active torsions:
REMARK  status: ('A' for Active; 'I' for Inactive)
REMARK    1  A    between atoms: C_1  and  C_2
REMARK    2  A    between atoms: C_2  and  C_3
REMARK    3  A    between atoms: C_2  and  C_4
REMARK    4  A    between atoms: C_4  and  C_5
REMARK                            x       y       z     vdW  Elec       q    Type
REMARK                         _______ _______ _______ _____ _____    ______ ____
ROOT
ATOM      1  C   UNL     1      -0.030  -0.130   2.478  0.00  0.00    +0.177 A 
ATOM      2  N   UNL     1       0.100   0.989   3.177  0.00  0.00    -0.111 NA
ATOM      3  N   UNL     1      -0.736   0.935   4.157  0.00  0.00    -0.021 NA
ATOM      4  N   UNL     1      -1.383  -0.176   4.097  0.00  0.00    -0.021 NA
ATOM      5  N   UNL     1      -0.973  -0.846   3.074  0.00  0.00    -0.111 NA
ENDROOT
BRANCH   1   6
ATOM      6  C   UNL     1       0.742  -0.511   1.242  0.00  0.00    +0.083 C 
BRANCH   6   8
ATOM      7  C   UNL     1      -0.019   1.526   0.010  0.00  0.00    +0.007 C 
ATOM      8  C   UNL     1       0.002  -0.004   0.002  0.00  0.00    -0.010 C 
ATOM      9  C   UNL     1       0.718  -0.497  -1.257  0.00  0.00    +0.007 C 
ENDBRANCH   6   8
ENDBRANCH   1   6
TORSDOF 2
