REMARK  Name = ZINC65462508
REMARK  8 active torsions:
REMARK  status: ('A' for Active; 'I' for Inactive)
REMARK    1  A    between atoms: C_1  and  C_2
REMARK    2  A    between atoms: C_4  and  C_14
REMARK    3  A    between atoms: C_17  and  O_22
REMARK    4  A    between atoms: C_18  and  C_20
REMARK    5  A    between atoms: C_20  and  O_21
REMARK    6  A    between atoms: O_22  and  C_23
REMARK    7  A    between atoms: C_23  and  C_24
REMARK    8  A    between atoms: C_23  and  C_25
REMARK                            x       y       z     vdW  Elec       q    Type
REMARK                         _______ _______ _______ _____ _____    ______ ____
ROOT
ATOM      1  C   UNL     1      -3.398   0.926   0.748  0.00  0.00    -0.039 A 
ATOM      2  C   UNL     1      -2.648   1.683   1.629  0.00  0.00    +0.008 A 
ATOM      3  C   UNL     1      -2.718   3.062   1.590  0.00  0.00    +0.046 A 
ATOM      4  C   UNL     1      -3.541   3.687   0.664  0.00  0.00    +0.126 A 
ATOM      5  C   UNL     1      -4.292   2.925  -0.219  0.00  0.00    +0.020 A 
ATOM      6  C   UNL     1      -4.215   1.546  -0.179  0.00  0.00    +0.013 A 
ENDROOT
BRANCH   1  10
ATOM      7  C   UNL     1      -5.868   0.886   2.095  0.00  0.00    +0.067 C 
ATOM      8  C   UNL     1      -5.648  -0.595   1.919  0.00  0.00    +0.064 C 
ATOM      9  C   UNL     1      -4.547  -1.141   1.455  0.00  0.00    +0.004 C 
ATOM     10  C   UNL     1      -3.320  -0.579   0.794  0.00  0.00    +0.059 C 
ATOM     11  C   UNL     1      -3.306  -1.154  -0.632  0.00  0.00    +0.108 C 
ATOM     12  C   UNL     1      -3.809  -2.560  -0.672  0.00  0.00    +0.216 C 
ATOM     13  O   UNL     1      -3.514  -3.203  -1.657  0.00  0.00    -0.276 OA
ATOM     14  N   UNL     1      -4.543  -3.196   0.243  0.00  0.00    -0.289 N 
ATOM     15  C   UNL     1      -4.777  -2.643   1.571  0.00  0.00    +0.243 C 
ATOM     16  N   UNL     1      -6.167  -2.715   2.017  0.00  0.00    -0.160 NA
ATOM     17  N   UNL     1      -6.557  -1.557   2.223  0.00  0.00    -0.157 NA
ATOM     18  H   UNL     1      -4.934  -4.054   0.017  0.00  0.00    +0.151 HD
ENDBRANCH   1  10
BRANCH   5  19
ATOM     19  C   UNL     1      -5.187   3.601  -1.225  0.00  0.00    +0.194 C 
BRANCH  19  20
ATOM     20  O   UNL     1      -5.850   2.611  -2.014  0.00  0.00    -0.390 OA
ATOM     21  H   UNL     1      -6.444   2.975  -2.684  0.00  0.00    +0.210 HD
ENDBRANCH  19  20
ENDBRANCH   5  19
BRANCH   4  22
ATOM     22  O   UNL     1      -3.612   5.044   0.624  0.00  0.00    -0.489 OA
BRANCH  22  23
ATOM     23  C   UNL     1      -2.728   5.766   1.484  0.00  0.00    +0.167 C 
ATOM     24  C   UNL     1      -2.510   7.173   0.925  0.00  0.00    +0.051 C 
ATOM     25  C   UNL     1      -3.343   5.862   2.882  0.00  0.00    +0.051 C 
ENDBRANCH  22  23
ENDBRANCH   4  22
TORSDOF 5
