REMARK  Name = ZINC40998636
REMARK  4 active torsions:
REMARK  status: ('A' for Active; 'I' for Inactive)
REMARK    1  A    between atoms: C_1  and  C_2
REMARK    2  A    between atoms: C_2  and  C_4
REMARK    3  A    between atoms: C_2  and  N_12
REMARK    4  A    between atoms: N_12  and  C_13
REMARK                            x       y       z     vdW  Elec       q    Type
REMARK                         _______ _______ _______ _____ _____    ______ ____
ROOT
ATOM      1  N   UNL     1       0.767  -0.484  -1.152  0.00  0.00    -0.333 N 
ATOM      2  H   UNL     1       0.315  -0.674  -1.988  0.00  0.00    +0.147 HD
ENDROOT
BRANCH   1   3
ATOM      3  C   UNL     1       2.159  -0.668  -1.046  0.00  0.00    +0.097 A 
ATOM      4  C   UNL     1       2.913  -0.447   0.061  0.00  0.00    +0.130 A 
ATOM      5  N   UNL     1       4.201  -0.744  -0.255  0.00  0.00    -0.281 N 
ATOM      6  H   UNL     1       4.964  -0.681   0.341  0.00  0.00    +0.188 HD
ATOM      7  N   UNL     1       4.232  -1.158  -1.592  0.00  0.00    -0.147 NA
ATOM      8  C   UNL     1       3.012  -1.119  -2.064  0.00  0.00    +0.256 A 
ATOM      9  N   UNL     1       2.602  -1.485  -3.438  0.00  0.00    +0.079 N 
ATOM     10  O   UNL     1       1.440  -1.405  -3.764  0.00  0.00    -0.124 OA
ATOM     11  O   UNL     1       3.429  -1.863  -4.235  0.00  0.00    -0.124 OA
ENDBRANCH   1   3
BRANCH   1  13
ATOM     12  C   UNL     1       0.009   1.526   0.019  0.00  0.00    +0.033 C 
ATOM     13  C   UNL     1       0.002  -0.004   0.002  0.00  0.00    +0.099 C 
BRANCH  13  14
ATOM     14  C   UNL     1      -1.418  -0.498  -0.096  0.00  0.00    -0.009 A 
ATOM     15  C   UNL     1      -1.972  -0.767  -1.334  0.00  0.00    +0.008 A 
ATOM     16  C   UNL     1      -3.275  -1.220  -1.425  0.00  0.00    +0.020 A 
ATOM     17  C   UNL     1      -4.025  -1.406  -0.277  0.00  0.00    +0.042 A 
ATOM     18  C   UNL     1      -3.471  -1.138   0.962  0.00  0.00    +0.040 A 
ATOM     19  C   UNL     1      -2.165  -0.689   1.052  0.00  0.00    +0.047 A 
ATOM     20 CL   UNL     1      -1.467  -0.358   2.607  0.00  0.00    -0.083 Cl
ATOM     21 CL   UNL     1      -5.661  -1.975  -0.392  0.00  0.00    -0.083 Cl
ENDBRANCH  13  14
ENDBRANCH   1  13
TORSDOF 3
