REMARK  Name = ZINC25002010
REMARK  7 active torsions:
REMARK  status: ('A' for Active; 'I' for Inactive)
REMARK    1  A    between atoms: C_1  and  C_2
REMARK    2  A    between atoms: C_2  and  C_3
REMARK    3  A    between atoms: C_3  and  C_5
REMARK    4  A    between atoms: C_3  and  N_6
REMARK    5  A    between atoms: C_7  and  C_9
REMARK    6  A    between atoms: C_14  and  N_15
REMARK    7  A    between atoms: C_16  and  C_18
REMARK                            x       y       z     vdW  Elec       q    Type
REMARK                         _______ _______ _______ _____ _____    ______ ____
ROOT
ATOM      1  N   UNL     1       2.393   5.244   2.962  0.00  0.00    -0.284 N 
ATOM      2  C   UNL     1       3.594   5.845   3.082  0.00  0.00    +0.225 C 
ATOM      3  O   UNL     1       3.725   7.006   2.757  0.00  0.00    -0.275 OA
ATOM      4  H   UNL     1       2.254   4.217   3.331  0.00  0.00    +0.155 HD
ENDROOT
BRANCH   2   5
ATOM      5  C   UNL     1       4.772   5.075   3.619  0.00  0.00    +0.116 C 
ATOM      6  C   UNL     1       4.461   4.588   5.035  0.00  0.00    +0.113 C 
ATOM      7  C   UNL     1       4.462   5.752   5.989  0.00  0.00    +0.218 C 
ATOM      8  O   UNL     1       3.681   5.766   6.917  0.00  0.00    -0.275 OA
ATOM      9  N   UNL     1       5.318   6.777   5.824  0.00  0.00    -0.285 N 
ATOM     10  C   UNL     1       6.213   6.787   4.750  0.00  0.00    +0.037 A 
ATOM     11  C   UNL     1       5.984   5.970   3.650  0.00  0.00    -0.014 A 
ATOM     12  C   UNL     1       6.867   5.979   2.588  0.00  0.00    +0.006 A 
ATOM     13  C   UNL     1       7.978   6.802   2.620  0.00  0.00    +0.000 A 
ATOM     14  C   UNL     1       8.209   7.617   3.713  0.00  0.00    +0.002 A 
ATOM     15  C   UNL     1       7.329   7.611   4.779  0.00  0.00    +0.023 A 
ATOM     16  H   UNL     1       5.317   7.614   6.537  0.00  0.00    +0.155 HD
ENDBRANCH   2   5
BRANCH   1  22
ATOM     17  C   UNL     1       0.489   5.261   1.464  0.00  0.00    +0.058 A 
ATOM     18  C   UNL     1      -0.571   5.954   0.876  0.00  0.00    +0.015 A 
ATOM     19  C   UNL     1      -0.790   7.276   1.196  0.00  0.00    +0.001 A 
ATOM     20  C   UNL     1       0.042   7.926   2.093  0.00  0.00    +0.002 A 
ATOM     21  C   UNL     1       1.097   7.256   2.679  0.00  0.00    +0.024 A 
ATOM     22  C   UNL     1       1.330   5.922   2.372  0.00  0.00    +0.046 A 
BRANCH  17  24
ATOM     23  N   UNL     1      -0.088   3.211   0.262  0.00  0.00    -0.309 N 
ATOM     24  C   UNL     1       0.726   3.844   1.129  0.00  0.00    +0.246 C 
ATOM     25  O   UNL     1       1.657   3.247   1.636  0.00  0.00    -0.270 OA
ATOM     26  H   UNL     1      -0.930   3.751  -0.196  0.00  0.00    +0.149 HD
BRANCH  23  27
ATOM     27  C   UNL     1       0.148   1.804  -0.070  0.00  0.00    +0.070 C 
ATOM     28  C   UNL     1       1.177   1.712  -1.198  0.00  0.00    +0.028 C 
BRANCH  27  30
ATOM     29  C   UNL     1      -2.153   1.140   0.643  0.00  0.00    +0.005 C 
ATOM     30  C   UNL     1      -1.164   1.160  -0.524  0.00  0.00    +0.018 C 
ENDBRANCH  27  30
ENDBRANCH  23  27
ENDBRANCH  17  24
ENDBRANCH   1  22
TORSDOF 5
