REMARK  Name = ZINC63626156
REMARK  10 active torsions:
REMARK  status: ('A' for Active; 'I' for Inactive)
REMARK    1  A    between atoms: C_1  and  C_2
REMARK    2  A    between atoms: C_2  and  N_3
REMARK    3  A    between atoms: C_6  and  C_24
REMARK    4  A    between atoms: N_8  and  C_11
REMARK    5  A    between atoms: C_11  and  C_12
REMARK    6  A    between atoms: C_12  and  C_13
REMARK    7  A    between atoms: C_16  and  O_22
REMARK    8  A    between atoms: O_22  and  C_23
REMARK    9  A    between atoms: C_24  and  C_25
REMARK   10  A    between atoms: N_27  and  C_28
REMARK                            x       y       z     vdW  Elec       q    Type
REMARK                         _______ _______ _______ _____ _____    ______ ____
ROOT
ATOM      1  N   UNL     1       0.895  -0.615  -1.071  0.00  0.00    -0.252 N 
ATOM      2  C   UNL     1       0.147  -0.832  -2.171  0.00  0.00    +0.242 C 
ATOM      3  O   UNL     1      -1.059  -0.751  -2.264  0.00  0.00    -0.273 OA
ATOM      4  C   UNL     1       1.128  -1.196  -3.268  0.00  0.00    +0.170 C 
ATOM      5  N   UNL     1       2.437  -1.137  -2.596  0.00  0.00    -0.300 N 
ATOM      6  C   UNL     1       2.199  -0.785  -1.319  0.00  0.00    +0.142 C 
ATOM      7  S   UNL     1       3.426  -0.582  -0.143  0.00  0.00    -0.018 S 
ENDROOT
BRANCH   1   9
ATOM      8  C   UNL     1       0.272   1.292   0.328  0.00  0.00    +0.025 C 
ATOM      9  C   UNL     1       0.348  -0.233   0.233  0.00  0.00    +0.112 C 
ENDBRANCH   1   9
BRANCH   5  10
ATOM     10  C   UNL     1       3.744  -1.404  -3.200  0.00  0.00    +0.112 C 
BRANCH  10  11
ATOM     11  C   UNL     1       4.374  -0.087  -3.658  0.00  0.00    +0.052 C 
BRANCH  11  12
ATOM     12  C   UNL     1       5.719  -0.362  -4.280  0.00  0.00    -0.040 C 
ATOM     13  C   UNL     1       5.988  -0.524  -5.595  0.00  0.00    +0.002 A 
ATOM     14  C   UNL     1       5.145  -0.495  -6.795  0.00  0.00    +0.055 A 
ATOM     15  C   UNL     1       5.707  -0.697  -8.011  0.00  0.00    +0.121 A 
ATOM     16  C   UNL     1       7.083  -0.936  -8.171  0.00  0.00    +0.047 A 
ATOM     17  C   UNL     1       7.940  -0.982  -7.128  0.00  0.00    +0.029 A 
ATOM     18  C   UNL     1       7.438  -0.776  -5.765  0.00  0.00    +0.043 A 
ATOM     19  N   UNL     1       8.040  -0.769  -4.602  0.00  0.00    -0.380 N 
ATOM     20  C   UNL     1       7.041  -0.506  -3.560  0.00  0.00    +0.144 C 
ATOM     21  H   UNL     1       8.988  -0.911  -4.455  0.00  0.00    +0.160 HD
BRANCH  15  22
ATOM     22  O   UNL     1       4.914  -0.668  -9.114  0.00  0.00    -0.495 OA
ATOM     23  C   UNL     1       5.548  -0.886 -10.376  0.00  0.00    +0.277 C 
ENDBRANCH  15  22
ENDBRANCH  11  12
ENDBRANCH  10  11
ENDBRANCH   5  10
BRANCH   4  24
ATOM     24  C   UNL     1       0.851  -2.607  -3.791  0.00  0.00    +0.128 C 
BRANCH  24  25
ATOM     25  C   UNL     1      -0.482  -2.631  -4.492  0.00  0.00    +0.219 C 
ATOM     26  O   UNL     1      -1.088  -1.596  -4.678  0.00  0.00    -0.275 OA
ATOM     27  N   UNL     1      -1.002  -3.800  -4.915  0.00  0.00    -0.285 N 
ATOM     28  H   UNL     1      -0.488  -4.619  -4.827  0.00  0.00    +0.155 HD
BRANCH  27  29
ATOM     29  C   UNL     1      -2.282  -3.835  -5.478  0.00  0.00    +0.033 A 
ATOM     30  C   UNL     1      -3.113  -4.925  -5.252  0.00  0.00    +0.023 A 
ATOM     31  C   UNL     1      -4.376  -4.956  -5.809  0.00  0.00    +0.002 A 
ATOM     32  C   UNL     1      -4.814  -3.904  -6.592  0.00  0.00    +0.000 A 
ATOM     33  C   UNL     1      -3.989  -2.817  -6.820  0.00  0.00    +0.002 A 
ATOM     34  C   UNL     1      -2.727  -2.777  -6.260  0.00  0.00    +0.023 A 
ENDBRANCH  27  29
ENDBRANCH  24  25
ENDBRANCH   4  24
TORSDOF 8
