REMARK  Name = ZINC14250341
REMARK  7 active torsions:
REMARK  status: ('A' for Active; 'I' for Inactive)
REMARK    1  A    between atoms: C_1  and  S_2
REMARK    2  A    between atoms: S_2  and  N_5
REMARK    3  A    between atoms: N_5  and  C_6
REMARK    4  A    between atoms: C_6  and  C_12
REMARK    5  A    between atoms: C_12  and  N_13
REMARK    6  A    between atoms: C_14  and  C_16
REMARK    7  A    between atoms: C_19  and  C_21
REMARK                            x       y       z     vdW  Elec       q    Type
REMARK                         _______ _______ _______ _____ _____    ______ ____
ROOT
ATOM      1  N   UNL     1       4.304  -1.366   0.266  0.00  0.00    -0.307 N 
ATOM      2  C   UNL     1       3.592  -0.287   0.649  0.00  0.00    +0.279 C 
ATOM      3  O   UNL     1       4.167   0.723   1.012  0.00  0.00    -0.267 OA
ATOM      4  H   UNL     1       3.846  -2.171  -0.022  0.00  0.00    +0.149 HD
ENDROOT
BRANCH   2   5
ATOM      5  C   UNL     1       2.128  -0.330   0.630  0.00  0.00    +0.190 A 
ATOM      6  C   UNL     1       1.284   0.696   0.995  0.00  0.00    +0.055 A 
ATOM      7  C   UNL     1      -0.022   0.224   0.824  0.00  0.00    +0.051 A 
ATOM      8  C   UNL     1       0.072  -1.059   0.365  0.00  0.00    +0.137 A 
ATOM      9  O   UNL     1       1.371  -1.382   0.253  0.00  0.00    -0.450 OA
BRANCH   8  10
ATOM     10  C   UNL     1      -1.066  -1.944   0.046  0.00  0.00    +0.037 A 
ATOM     11  C   UNL     1      -1.110  -2.617  -1.177  0.00  0.00    +0.033 A 
ATOM     12  C   UNL     1      -2.177  -3.443  -1.469  0.00  0.00    +0.042 A 
ATOM     13  C   UNL     1      -3.202  -3.605  -0.552  0.00  0.00    +0.021 A 
ATOM     14  C   UNL     1      -3.165  -2.943   0.662  0.00  0.00    +0.022 A 
ATOM     15  C   UNL     1      -2.101  -2.117   0.969  0.00  0.00    +0.052 A 
ATOM     16 CL   UNL     1      -2.053  -1.292   2.495  0.00  0.00    -0.083 Cl
ATOM     17 CL   UNL     1      -2.234  -4.279  -2.989  0.00  0.00    -0.084 Cl
ENDBRANCH   8  10
ENDBRANCH   2   5
BRANCH   1  18
ATOM     18  C   UNL     1       5.768  -1.323   0.285  0.00  0.00    +0.128 C 
BRANCH  18  19
ATOM     19  C   UNL     1       6.323  -2.706  -0.060  0.00  0.00    +0.055 C 
ATOM     20  C   UNL     1       5.893  -3.710   1.011  0.00  0.00    +0.025 C 
ATOM     21  C   UNL     1       6.448  -5.093   0.666  0.00  0.00    +0.002 C 
ATOM     22  C   UNL     1       7.976  -5.030   0.611  0.00  0.00    +0.000 C 
ATOM     23  C   UNL     1       8.407  -4.026  -0.460  0.00  0.00    +0.002 C 
ATOM     24  C   UNL     1       7.851  -2.642  -0.115  0.00  0.00    +0.025 C 
BRANCH  19  25
ATOM     25  N   UNL     1       5.805  -3.129  -1.363  0.00  0.00    -0.187 NA
ATOM     26  H   UNL     1       5.525  -4.047  -1.499  0.00  0.00    +0.148 HD
BRANCH  25  28
ATOM     27  C   UNL     1       7.404  -1.494  -2.896  0.00  0.00    +0.214 C 
ATOM     28  S   UNL     1       5.698  -2.039  -2.605  0.00  0.00    +0.027 S 
ATOM     29  O   UNL     1       5.231  -2.796  -3.713  0.00  0.00    -0.158 OA
ATOM     30  O   UNL     1       4.925  -0.968  -2.082  0.00  0.00    -0.158 OA
ENDBRANCH  25  28
ENDBRANCH  19  25
ENDBRANCH  18  19
ENDBRANCH   1  18
TORSDOF 6
