REMARK  Name = ZINC37643657
REMARK  7 active torsions:
REMARK  status: ('A' for Active; 'I' for Inactive)
REMARK    1  A    between atoms: C_1  and  C_2
REMARK    2  A    between atoms: C_2  and  N_3
REMARK    3  A    between atoms: C_6  and  C_9
REMARK    4  A    between atoms: C_9  and  N_10
REMARK    5  A    between atoms: N_10  and  S_11
REMARK    6  A    between atoms: S_11  and  C_14
REMARK    7  A    between atoms: C_15  and  N_22
REMARK                            x       y       z     vdW  Elec       q    Type
REMARK                         _______ _______ _______ _____ _____    ______ ____
ROOT
ATOM      1  S   UNL     1       0.156  -6.495  -5.146  0.00  0.00    +0.061 S 
ATOM      2  O   UNL     1       0.269  -6.849  -6.518  0.00  0.00    -0.153 OA
ATOM      3  O   UNL     1       0.631  -7.333  -4.101  0.00  0.00    -0.153 OA
ENDROOT
BRANCH   1   4
ATOM      4  C   UNL     1      -1.558  -6.226  -4.836  0.00  0.00    +0.140 A 
ATOM      5  C   UNL     1      -2.070  -6.412  -3.558  0.00  0.00    +0.053 A 
ATOM      6  C   UNL     1      -3.421  -6.198  -3.317  0.00  0.00    +0.040 A 
ATOM      7  C   UNL     1      -4.252  -5.803  -4.348  0.00  0.00    +0.021 A 
ATOM      8  C   UNL     1      -3.739  -5.619  -5.620  0.00  0.00    +0.032 A 
ATOM      9  C   UNL     1      -2.392  -5.825  -5.862  0.00  0.00    +0.047 A 
ATOM     10 BR   UNL     1      -1.694  -5.566  -7.600  0.00  0.00    -0.048 Br
ATOM     11 BR   UNL     1      -6.091  -5.512  -4.021  0.00  0.00    -0.050 Br
BRANCH   5  12
ATOM     12  N   UNL     1      -1.228  -6.812  -2.518  0.00  0.00    -0.356 N 
ATOM     13  H   UNL     1      -0.278  -6.622  -2.562  0.00  0.00    +0.142 HD
ATOM     14  H   UNL     1      -1.594  -7.280  -1.751  0.00  0.00    +0.142 HD
ENDBRANCH   5  12
ENDBRANCH   1   4
BRANCH   1  15
ATOM     15  N   UNL     1       0.920  -5.037  -4.968  0.00  0.00    -0.190 NA
ATOM     16  H   UNL     1       1.344  -4.615  -5.732  0.00  0.00    +0.148 HD
BRANCH  15  17
ATOM     17  C   UNL     1       0.956  -4.384  -3.658  0.00  0.00    +0.107 C 
BRANCH  17  21
ATOM     18  N   UNL     1       2.336  -1.169  -2.572  0.00  0.00    +0.380 N 
ATOM     19  C   UNL     1       1.464  -0.888  -3.742  0.00  0.00    -0.079 C 
ATOM     20  C   UNL     1       1.589  -2.145  -4.630  0.00  0.00    -0.016 C 
ATOM     21  C   UNL     1       2.011  -3.275  -3.669  0.00  0.00    -0.014 C 
ATOM     22  C   UNL     1       2.105  -2.607  -2.281  0.00  0.00    -0.074 C 
ATOM     23  H   UNL     1       3.304  -1.007  -2.805  0.00  0.00    -0.082 HD
BRANCH  18  25
ATOM     24  C   UNL     1       2.301   1.119  -1.700  0.00  0.00    -0.017 C 
ATOM     25  C   UNL     1       1.939  -0.342  -1.425  0.00  0.00    -0.082 C 
ENDBRANCH  18  25
ENDBRANCH  17  21
ENDBRANCH  15  17
ENDBRANCH   1  15
TORSDOF 6
