REMARK  Name = ZINC09354470
REMARK  17 active torsions:
REMARK  status: ('A' for Active; 'I' for Inactive)
REMARK    1  A    between atoms: C_1  and  C_2
REMARK    2  A    between atoms: C_2  and  C_3
REMARK    3  A    between atoms: C_3  and  C_4
REMARK    4  A    between atoms: C_4  and  O_5
REMARK    5  A    between atoms: O_5  and  C_6
REMARK    6  A    between atoms: C_9  and  C_12
REMARK    7  A    between atoms: C_15  and  C_16
REMARK    8  A    between atoms: C_15  and  O_27
REMARK    9  A    between atoms: C_23  and  C_26
REMARK   10  A    between atoms: N_32  and  C_33
REMARK   11  A    between atoms: C_33  and  C_34
REMARK   12  A    between atoms: C_34  and  C_35
REMARK   13  A    between atoms: C_35  and  N_78
REMARK   14  A    between atoms: C_36  and  C_37
REMARK   15  A    between atoms: C_36  and  N_78
REMARK   16  A    between atoms: C_38  and  C_39
REMARK   17  A    between atoms: C_38  and  N_78
REMARK                            x       y       z     vdW  Elec       q    Type
REMARK                         _______ _______ _______ _____ _____    ______ ____
ROOT
ATOM      1  C   UNL     1       6.086  -0.850  -0.656  0.00  0.00    +0.144 C 
ATOM      2  C   UNL     1       4.718  -0.227  -0.498  0.00  0.00    +0.071 C 
ATOM      3  C   UNL     1       3.500  -0.878  -0.541  0.00  0.00    +0.133 C 
ATOM      4  C   UNL     1       4.934   1.145  -0.306  0.00  0.00    +0.249 C 
ATOM      5  O   UNL     1       4.070   1.988  -0.144  0.00  0.00    -0.282 OA
ATOM      6  C   UNL     1       6.401   1.393  -0.331  0.00  0.00    +0.288 C 
ATOM      7  O   UNL     1       6.926   2.478  -0.191  0.00  0.00    -0.266 OA
ATOM      8  N   UNL     1       7.059   0.240  -0.536  0.00  0.00    -0.284 N 
ENDROOT
BRANCH   3   9
ATOM      9  C   UNL     1       2.256  -0.127  -0.313  0.00  0.00    +0.017 A 
ATOM     10  C   UNL     1       1.217  -0.179  -1.250  0.00  0.00    +0.015 A 
ATOM     11  C   UNL     1       0.058   0.526  -1.036  0.00  0.00    +0.046 A 
ATOM     12  C   UNL     1      -0.097   1.302   0.116  0.00  0.00    +0.124 A 
ATOM     13  C   UNL     1       0.937   1.344   1.049  0.00  0.00    -0.002 A 
ATOM     14  C   UNL     1       2.101   0.647   0.845  0.00  0.00    +0.019 A 
ATOM     15  C   UNL     1       0.472   2.235   2.185  0.00  0.00    +0.083 C 
ATOM     16  C   UNL     1      -1.050   2.323   1.920  0.00  0.00    +0.175 C 
ATOM     17  O   UNL     1      -1.142   2.079   0.506  0.00  0.00    -0.488 OA
ATOM     18  C   UNL     1      -1.580   3.716   2.265  0.00  0.00    +0.052 C 
ENDBRANCH   3   9
BRANCH   1  22
ATOM     19  C   UNL     1       6.420  -2.695  -4.496  0.00  0.00    +0.121 A 
ATOM     20  C   UNL     1       6.181  -3.470  -3.371  0.00  0.00    +0.046 A 
ATOM     21  C   UNL     1       6.074  -2.872  -2.131  0.00  0.00    +0.009 A 
ATOM     22  C   UNL     1       6.204  -1.500  -2.010  0.00  0.00    -0.022 A 
ATOM     23  C   UNL     1       6.437  -0.724  -3.131  0.00  0.00    +0.009 A 
ATOM     24  C   UNL     1       6.551  -1.319  -4.372  0.00  0.00    +0.046 A 
BRANCH  19  25
ATOM     25  O   UNL     1       6.526  -3.281  -5.717  0.00  0.00    -0.492 OA
BRANCH  25  26
ATOM     26  C   UNL     1       6.773  -2.421  -6.831  0.00  0.00    +0.229 C 
BRANCH  26  27
ATOM     27  C   UNL     1       6.860  -3.255  -8.111  0.00  0.00    +0.041 C 
BRANCH  27  29
ATOM     28  C   UNL     1       7.210  -3.168 -10.583  0.00  0.00    +0.004 C 
ATOM     29  C   UNL     1       7.123  -2.333  -9.303  0.00  0.00    -0.000 C 
ENDBRANCH  27  29
ENDBRANCH  26  27
ENDBRANCH  25  26
ENDBRANCH  19  25
ENDBRANCH   1  22
BRANCH   3  30
ATOM     30  O   UNL     1       3.451  -2.203  -0.793  0.00  0.00    -0.506 OA
ATOM     31  H   UNL     1       2.499  -2.509  -0.788  0.00  0.00    +0.292 HD
ENDBRANCH   3  30
BRANCH   8  32
ATOM     32  C   UNL     1       8.514   0.095  -0.626  0.00  0.00    +0.107 C 
BRANCH  32  33
ATOM     33  C   UNL     1       8.954   0.261  -2.082  0.00  0.00    +0.000 C 
BRANCH  33  34
ATOM     34  C   UNL     1      10.474   0.110  -2.175  0.00  0.00    -0.077 C 
BRANCH  34  35
ATOM     35  N   UNL     1      10.885   0.294  -3.583  0.00  0.00    +0.379 N 
ATOM     36  H   UNL     1      10.485   1.171  -3.936  0.00  0.00    -0.082 HD
BRANCH  35  37
ATOM     37  C   UNL     1      12.359   0.367  -3.673  0.00  0.00    -0.082 C 
ATOM     38  C   UNL     1      12.808   1.760  -3.229  0.00  0.00    -0.017 C 
ENDBRANCH  35  37
BRANCH  35  39
ATOM     39  C   UNL     1      10.384  -0.827  -4.406  0.00  0.00    -0.082 C 
ATOM     40  C   UNL     1      10.499  -0.442  -5.883  0.00  0.00    -0.017 C 
ENDBRANCH  35  39
ENDBRANCH  34  35
ENDBRANCH  33  34
ENDBRANCH  32  33
ENDBRANCH   8  32
TORSDOF 13
