REMARK  Name = ZINC01421589
REMARK  8 active torsions:
REMARK  status: ('A' for Active; 'I' for Inactive)
REMARK    1  A    between atoms: C_1  and  C_2
REMARK    2  A    between atoms: C_6  and  N_8
REMARK    3  A    between atoms: N_8  and  S_9
REMARK    4  A    between atoms: S_9  and  C_12
REMARK    5  A    between atoms: C_15  and  N_18
REMARK    6  A    between atoms: N_18  and  C_19
REMARK    7  A    between atoms: C_21  and  C_33
REMARK    8  A    between atoms: N_23  and  C_26
REMARK                            x       y       z     vdW  Elec       q    Type
REMARK                         _______ _______ _______ _____ _____    ______ ____
ROOT
ATOM      1  C   UNL     1       2.376  -2.071   2.318  0.00  0.00    +0.109 A 
ATOM      2  C   UNL     1       3.040  -1.884   1.119  0.00  0.00    +0.030 A 
ATOM      3  C   UNL     1       4.389  -1.591   1.114  0.00  0.00    +0.025 A 
ATOM      4  C   UNL     1       5.080  -1.485   2.314  0.00  0.00    +0.031 A 
ATOM      5  C   UNL     1       4.410  -1.673   3.517  0.00  0.00    +0.025 A 
ATOM      6  C   UNL     1       3.060  -1.960   3.515  0.00  0.00    +0.030 A 
ENDROOT
BRANCH   1   7
ATOM      7  S   UNL     1       0.654  -2.445   2.320  0.00  0.00    +0.072 S 
ATOM      8  O   UNL     1       0.384  -3.106   3.549  0.00  0.00    -0.150 OA
ATOM      9  O   UNL     1       0.364  -3.033   1.059  0.00  0.00    -0.150 OA
BRANCH   7  10
ATOM     10  N   UNL     1      -0.160  -1.004   2.369  0.00  0.00    -0.216 N 
ATOM     11  H   UNL     1      -0.701  -0.778   3.142  0.00  0.00    +0.174 HD
BRANCH  10  17
ATOM     12  C   UNL     1       0.453   3.588   0.729  0.00  0.00    +0.044 C 
ATOM     13  C   UNL     1       0.231   2.120   0.473  0.00  0.00    -0.049 A 
ATOM     14  C   UNL     1       0.120   1.654  -0.824  0.00  0.00    +0.003 A 
ATOM     15  C   UNL     1      -0.085   0.307  -1.063  0.00  0.00    +0.002 A 
ATOM     16  C   UNL     1      -0.178  -0.577  -0.006  0.00  0.00    +0.024 A 
ATOM     17  C   UNL     1      -0.066  -0.112   1.298  0.00  0.00    +0.048 A 
ATOM     18  C   UNL     1       0.144   1.241   1.534  0.00  0.00    +0.027 A 
ENDBRANCH  10  17
ENDBRANCH   7  10
ENDBRANCH   1   7
BRANCH   4  19
ATOM     19  N   UNL     1       6.446  -1.189   2.313  0.00  0.00    -0.320 N 
ATOM     20  H   UNL     1       6.913  -1.058   1.472  0.00  0.00    +0.152 HD
BRANCH  19  21
ATOM     21  C   UNL     1       7.116  -1.086   3.480  0.00  0.00    +0.087 C 
ATOM     22  C   UNL     1       8.490  -0.913   3.477  0.00  0.00    +0.075 C 
ATOM     23  C   UNL     1       9.396  -0.957   2.320  0.00  0.00    +0.070 C 
ATOM     24  N   UNL     1      10.600  -0.746   2.756  0.00  0.00    -0.176 NA
ATOM     25  N   UNL     1      10.612  -0.554   4.137  0.00  0.00    -0.156 N 
ATOM     26  C   UNL     1       9.359  -0.639   4.628  0.00  0.00    +0.273 C 
ATOM     27  O   UNL     1       9.017  -0.515   5.792  0.00  0.00    -0.268 OA
ATOM     28  C   UNL     1       8.998  -1.204   0.887  0.00  0.00    +0.068 C 
BRANCH  25  29
ATOM     29  C   UNL     1      11.758  -0.305   4.902  0.00  0.00    +0.062 A 
ATOM     30  C   UNL     1      11.654  -0.136   6.277  0.00  0.00    +0.025 A 
ATOM     31  C   UNL     1      12.786   0.109   7.029  0.00  0.00    +0.003 A 
ATOM     32  C   UNL     1      14.023   0.187   6.416  0.00  0.00    +0.020 A 
ATOM     33  C   UNL     1      14.130   0.020   5.046  0.00  0.00    +0.043 A 
ATOM     34  C   UNL     1      13.002  -0.233   4.289  0.00  0.00    +0.045 A 
ATOM     35 CL   UNL     1      15.685   0.120   4.280  0.00  0.00    -0.083 Cl
ENDBRANCH  25  29
ENDBRANCH  19  21
ENDBRANCH   4  19
TORSDOF 6
