REMARK  Name = ZINC59858881
REMARK  7 active torsions:
REMARK  status: ('A' for Active; 'I' for Inactive)
REMARK    1  A    between atoms: C_1  and  C_2
REMARK    2  A    between atoms: C_3  and  N_15
REMARK    3  A    between atoms: C_4  and  C_14
REMARK    4  A    between atoms: N_5  and  C_7
REMARK    5  A    between atoms: C_7  and  C_8
REMARK    6  A    between atoms: C_16  and  C_17
REMARK    7  A    between atoms: C_26  and  O_27
REMARK                            x       y       z     vdW  Elec       q    Type
REMARK                         _______ _______ _______ _____ _____    ______ ____
ROOT
ATOM      1  N   UNL     1      -0.005  -0.401  -2.449  0.00  0.00    -0.251 NA
ATOM      2  C   UNL     1       1.119  -0.183  -3.075  0.00  0.00    +0.123 C 
ENDROOT
BRANCH   2   3
ATOM      3  C   UNL     1       1.105   0.271  -4.469  0.00  0.00    +0.042 A 
ATOM      4  C   UNL     1       2.356   0.515  -5.189  0.00  0.00    -0.006 A 
ATOM      5  C   UNL     1       3.599   0.324  -4.576  0.00  0.00    +0.010 A 
ATOM      6  C   UNL     1       4.742   0.561  -5.280  0.00  0.00    +0.016 A 
ATOM      7  C   UNL     1       4.689   0.992  -6.604  0.00  0.00    +0.018 A 
ATOM      8  C   UNL     1       3.494   1.188  -7.231  0.00  0.00    +0.023 A 
ATOM      9  C   UNL     1       2.297   0.952  -6.534  0.00  0.00    -0.016 A 
ATOM     10  C   UNL     1       1.046   1.142  -7.148  0.00  0.00    +0.012 A 
ATOM     11  C   UNL     1      -0.106   0.912  -6.466  0.00  0.00    +0.046 A 
ATOM     12  C   UNL     1      -0.102   0.476  -5.142  0.00  0.00    +0.126 A 
ATOM     13 BR   UNL     1       6.297   1.311  -7.546  0.00  0.00    -0.050 Br
BRANCH  12  14
ATOM     14  O   UNL     1      -1.277   0.253  -4.501  0.00  0.00    -0.506 OA
ATOM     15  H   UNL     1      -1.627   1.028  -4.042  0.00  0.00    +0.292 HD
ENDBRANCH  12  14
ENDBRANCH   2   3
BRANCH   1  18
ATOM     16  C   UNL     1      -0.018   1.503   0.010  0.00  0.00    +0.070 C 
ATOM     17  C   UNL     1       0.002  -0.004   0.002  0.00  0.00    +0.085 A 
ATOM     18  C   UNL     1       0.008  -0.826  -1.145  0.00  0.00    +0.107 A 
ATOM     19  C   UNL     1       0.028  -2.133  -0.713  0.00  0.00    +0.062 A 
ATOM     20  N   UNL     1       0.034  -2.111   0.637  0.00  0.00    -0.262 N 
ATOM     21  N   UNL     1       0.023  -0.776   1.056  0.00  0.00    -0.174 NA
ATOM     22  C   UNL     1       0.041  -3.362  -1.585  0.00  0.00    +0.067 C 
BRANCH  20  23
ATOM     23  C   UNL     1       0.054  -3.285   1.514  0.00  0.00    +0.179 C 
BRANCH  23  24
ATOM     24  C   UNL     1       1.482  -3.668   1.808  0.00  0.00    -0.026 A 
ATOM     25  C   UNL     1       2.143  -4.556   0.980  0.00  0.00    +0.005 A 
ATOM     26  C   UNL     1       3.452  -4.908   1.250  0.00  0.00    +0.000 A 
ATOM     27  C   UNL     1       4.100  -4.372   2.347  0.00  0.00    +0.000 A 
ATOM     28  C   UNL     1       3.439  -3.483   3.174  0.00  0.00    +0.000 A 
ATOM     29  C   UNL     1       2.131  -3.128   2.901  0.00  0.00    +0.005 A 
ENDBRANCH  23  24
ENDBRANCH  20  23
ENDBRANCH   1  18
TORSDOF 5
