REMARK  Name = ZINC43823121
REMARK  9 active torsions:
REMARK  status: ('A' for Active; 'I' for Inactive)
REMARK    1  A    between atoms: C_1  and  C_2
REMARK    2  A    between atoms: C_5  and  C_8
REMARK    3  A    between atoms: C_8  and  S_9
REMARK    4  A    between atoms: S_9  and  C_10
REMARK    5  A    between atoms: C_10  and  C_11
REMARK    6  A    between atoms: C_11  and  N_12
REMARK    7  A    between atoms: N_15  and  N_16
REMARK    8  A    between atoms: C_17  and  C_19
REMARK    9  A    between atoms: C_19  and  C_20
REMARK                            x       y       z     vdW  Elec       q    Type
REMARK                         _______ _______ _______ _____ _____    ______ ____
ROOT
ATOM      1  N   UNL     1       2.902  -8.753  -0.062  0.00  0.00    -0.297 N 
ATOM      2  C   UNL     1       4.010  -9.521  -0.072  0.00  0.00    +0.316 C 
ATOM      3  O   UNL     1       5.109  -9.002  -0.075  0.00  0.00    -0.251 OA
ATOM      4  N   UNL     1       3.899 -10.864  -0.079  0.00  0.00    -0.218 N 
ATOM      5  H   UNL     1       2.025  -9.167  -0.059  0.00  0.00    +0.150 HD
ATOM      6  H   UNL     1       4.696 -11.416  -0.086  0.00  0.00    +0.174 HD
ENDROOT
BRANCH   4   7
ATOM      7  N   UNL     1       2.632 -11.462  -0.075  0.00  0.00    -0.233 N 
ATOM      8  C   UNL     1       2.521 -12.805  -0.082  0.00  0.00    +0.234 C 
ATOM      9  O   UNL     1       3.517 -13.496  -0.091  0.00  0.00    -0.274 OA
ATOM     10  H   UNL     1       1.835 -10.909  -0.067  0.00  0.00    +0.173 HD
BRANCH   8  11
ATOM     11  C   UNL     1       1.158 -13.448  -0.077  0.00  0.00    +0.134 C 
BRANCH  11  12
ATOM     12  C   UNL     1       1.310 -14.948  -0.086  0.00  0.00    -0.014 A 
ATOM     13  C   UNL     1       1.297 -15.745  -1.166  0.00  0.00    +0.087 A 
ATOM     14  N   UNL     1       1.463 -17.049  -0.785  0.00  0.00    -0.360 N 
ATOM     15  H   UNL     1       1.488 -17.807  -1.390  0.00  0.00    +0.165 HD
ATOM     16  C   UNL     1       1.591 -17.124   0.584  0.00  0.00    +0.047 A 
ATOM     17  C   UNL     1       1.507 -15.810   1.081  0.00  0.00    +0.003 A 
ATOM     18  C   UNL     1       1.610 -15.577   2.453  0.00  0.00    +0.010 A 
ATOM     19  C   UNL     1       1.796 -16.628   3.308  0.00  0.00    +0.001 A 
ATOM     20  C   UNL     1       1.884 -17.925   2.822  0.00  0.00    +0.002 A 
ATOM     21  C   UNL     1       1.775 -18.178   1.472  0.00  0.00    +0.026 A 
ENDBRANCH  11  12
ENDBRANCH   8  11
ENDBRANCH   4   7
BRANCH   1  22
ATOM     22  C   UNL     1       3.023  -7.293  -0.054  0.00  0.00    +0.116 C 
BRANCH  22  23
ATOM     23  C   UNL     1       1.628  -6.666  -0.043  0.00  0.00    +0.088 C 
BRANCH  23  24
ATOM     24  S   UNL     1       1.777  -4.858  -0.034  0.00  0.00    -0.155 S 
BRANCH  24  25
ATOM     25  C   UNL     1       0.059  -4.275  -0.021  0.00  0.00    +0.104 C 
BRANCH  25  30
ATOM     26  C   UNL     1      -0.018   1.503   0.010  0.00  0.00    +0.044 C 
ATOM     27  C   UNL     1       0.002  -0.004   0.002  0.00  0.00    -0.050 A 
ATOM     28  C   UNL     1       0.006  -0.689  -1.199  0.00  0.00    +0.003 A 
ATOM     29  C   UNL     1       0.025  -2.071  -1.206  0.00  0.00    +0.005 A 
ATOM     30  C   UNL     1       0.040  -2.768  -0.013  0.00  0.00    -0.038 A 
ATOM     31  C   UNL     1       0.037  -2.084   1.188  0.00  0.00    +0.005 A 
ATOM     32  C   UNL     1       0.023  -0.702   1.195  0.00  0.00    +0.003 A 
ENDBRANCH  25  30
ENDBRANCH  24  25
ENDBRANCH  23  24
ENDBRANCH  22  23
ENDBRANCH   1  22
TORSDOF 8
