REMARK  Name = ZINC09492188
REMARK  11 active torsions:
REMARK  status: ('A' for Active; 'I' for Inactive)
REMARK    1  A    between atoms: C_1  and  N_55
REMARK    2  A    between atoms: C_2  and  N_55
REMARK    3  A    between atoms: C_3  and  C_5
REMARK    4  A    between atoms: C_3  and  C_27
REMARK    5  A    between atoms: C_3  and  N_55
REMARK    6  A    between atoms: C_5  and  N_57
REMARK    7  A    between atoms: C_6  and  C_8
REMARK    8  A    between atoms: C_6  and  C_14
REMARK    9  A    between atoms: C_6  and  N_57
REMARK   10  A    between atoms: N_16  and  C_17
REMARK   11  A    between atoms: C_20  and  N_24
REMARK                            x       y       z     vdW  Elec       q    Type
REMARK                         _______ _______ _______ _____ _____    ______ ____
ROOT
ATOM      1  C   UNL     1       0.472   5.104  -0.159  0.00  0.00    +0.047 C 
ENDROOT
BRANCH   1   2
ATOM      2  C   UNL     1      -0.358   5.774  -1.224  0.00  0.00    -0.053 A 
ATOM      3  C   UNL     1      -0.069   5.565  -2.559  0.00  0.00    +0.002 A 
ATOM      4  C   UNL     1      -0.833   6.175  -3.536  0.00  0.00    +0.000 A 
ATOM      5  C   UNL     1      -1.881   7.003  -3.177  0.00  0.00    +0.000 A 
ATOM      6  C   UNL     1      -2.166   7.217  -1.841  0.00  0.00    +0.000 A 
ATOM      7  C   UNL     1      -1.405   6.603  -0.865  0.00  0.00    +0.002 A 
ENDBRANCH   1   2
BRANCH   1   8
ATOM      8  C   UNL     1       1.756   5.869   0.032  0.00  0.00    +0.207 C 
ATOM      9  O   UNL     1       2.822   5.321  -0.157  0.00  0.00    -0.277 OA
ATOM     10  N   UNL     1       1.721   7.162   0.412  0.00  0.00    -0.285 N 
ATOM     11  H   UNL     1       0.875   7.576   0.644  0.00  0.00    +0.155 HD
BRANCH  10  12
ATOM     12  C   UNL     1       2.905   7.906   0.471  0.00  0.00    +0.052 A 
ATOM     13  C   UNL     1       4.002   7.531  -0.292  0.00  0.00    +0.027 A 
ATOM     14  C   UNL     1       5.169   8.267  -0.231  0.00  0.00    +0.034 A 
ATOM     15  C   UNL     1       5.246   9.378   0.589  0.00  0.00    +0.128 A 
ATOM     16  C   UNL     1       4.155   9.756   1.351  0.00  0.00    +0.054 A 
ATOM     17  C   UNL     1       2.983   9.026   1.290  0.00  0.00    +0.064 A 
ATOM     18 CL   UNL     1       1.611   9.504   2.241  0.00  0.00    -0.082 Cl
BRANCH  15  19
ATOM     19  N   UNL     1       6.498  10.165   0.652  0.00  0.00    +0.056 N 
ATOM     20  O   UNL     1       7.460   9.834  -0.018  0.00  0.00    -0.126 OA
ATOM     21  O   UNL     1       6.567  11.143   1.374  0.00  0.00    -0.126 OA
ENDBRANCH  15  19
ENDBRANCH  10  12
ENDBRANCH   1   8
BRANCH   1  22
ATOM     22  N   UNL     1       0.787   3.725  -0.575  0.00  0.00    +0.389 N 
ATOM     23  H   UNL     1       0.919   3.700  -1.593  0.00  0.00    -0.084 HD
ATOM     24  H   UNL     1       1.650   3.420  -0.111  0.00  0.00    -0.084 HD
BRANCH  22  25
ATOM     25  C   UNL     1      -0.313   2.814  -0.206  0.00  0.00    -0.092 C 
BRANCH  25  26
ATOM     26  C   UNL     1       0.041   1.394  -0.649  0.00  0.00    -0.056 C 
BRANCH  26  27
ATOM     27  C   UNL     1      -1.142   0.488  -0.427  0.00  0.00    -0.063 A 
ATOM     28  C   UNL     1      -1.480   0.095   0.855  0.00  0.00    +0.002 A 
ATOM     29  C   UNL     1      -2.568  -0.733   1.059  0.00  0.00    +0.000 A 
ATOM     30  C   UNL     1      -3.313  -1.174  -0.018  0.00  0.00    +0.000 A 
ATOM     31  C   UNL     1      -2.972  -0.785  -1.300  0.00  0.00    +0.000 A 
ATOM     32  C   UNL     1      -1.887   0.046  -1.504  0.00  0.00    +0.002 A 
ENDBRANCH  26  27
BRANCH  26  35
ATOM     33  C   UNL     1       1.454  -0.509  -0.151  0.00  0.00    -0.096 C 
ATOM     34  C   UNL     1       2.378   1.729  -0.108  0.00  0.00    -0.096 C 
ATOM     35  N   UNL     1       1.178   0.909   0.162  0.00  0.00    +0.379 N 
ATOM     36  H   UNL     1       0.936   0.990   1.157  0.00  0.00    -0.082 HD
ENDBRANCH  26  35
ENDBRANCH  25  26
ENDBRANCH  22  25
ENDBRANCH   1  22
TORSDOF 9
