REMARK  Name = ZINC35708634
REMARK  10 active torsions:
REMARK  status: ('A' for Active; 'I' for Inactive)
REMARK    1  A    between atoms: C_1  and  C_2
REMARK    2  A    between atoms: C_5  and  C_9
REMARK    3  A    between atoms: C_7  and  C_8
REMARK    4  A    between atoms: C_11  and  C_22
REMARK    5  A    between atoms: N_12  and  C_14
REMARK    6  A    between atoms: N_24  and  C_25
REMARK    7  A    between atoms: C_25  and  C_27
REMARK    8  A    between atoms: C_25  and  C_28
REMARK    9  A    between atoms: C_28  and  C_29
REMARK   10  A    between atoms: C_29  and  C_30
REMARK                            x       y       z     vdW  Elec       q    Type
REMARK                         _______ _______ _______ _____ _____    ______ ____
ROOT
ATOM      1  C   UNL     1       0.289  -4.272   0.363  0.00  0.00    +0.094 A 
ATOM      2  C   UNL     1       0.643  -4.980  -0.800  0.00  0.00    +0.063 A 
ATOM      3  C   UNL     1       0.691  -6.308  -0.418  0.00  0.00    +0.130 A 
ATOM      4  N   UNL     1       0.374  -6.340   0.913  0.00  0.00    -0.227 N 
ATOM      5  N   UNL     1       0.153  -5.148   1.337  0.00  0.00    -0.166 NA
ENDROOT
BRANCH   1  10
ATOM      6  C   UNL     1      -0.415   1.428   0.792  0.00  0.00    +0.044 C 
ATOM      7  C   UNL     1      -0.231  -0.063   0.680  0.00  0.00    -0.047 A 
ATOM      8  C   UNL     1       0.013  -0.636  -0.555  0.00  0.00    +0.004 A 
ATOM      9  C   UNL     1       0.182  -2.002  -0.664  0.00  0.00    +0.010 A 
ATOM     10  C   UNL     1       0.108  -2.803   0.474  0.00  0.00    +0.002 A 
ATOM     11  C   UNL     1      -0.137  -2.220   1.715  0.00  0.00    +0.013 A 
ATOM     12  C   UNL     1      -0.300  -0.853   1.813  0.00  0.00    -0.047 A 
ATOM     13  C   UNL     1      -0.559  -0.221   3.156  0.00  0.00    +0.044 C 
ENDBRANCH   1  10
BRANCH   4  14
ATOM     14  C   UNL     1       0.308  -7.498   1.697  0.00  0.00    +0.068 A 
ATOM     15  C   UNL     1      -0.329  -8.632   1.209  0.00  0.00    +0.029 A 
ATOM     16  C   UNL     1      -0.393  -9.774   1.983  0.00  0.00    +0.023 A 
ATOM     17  C   UNL     1       0.175  -9.789   3.245  0.00  0.00    +0.059 A 
ATOM     18  C   UNL     1       0.811  -8.660   3.734  0.00  0.00    +0.061 A 
ATOM     19  C   UNL     1       0.882  -7.516   2.961  0.00  0.00    +0.049 A 
ATOM     20 CL   UNL     1       1.522  -8.682   5.318  0.00  0.00    -0.082 Cl
ATOM     21 CL   UNL     1       0.092 -11.226   4.216  0.00  0.00    -0.082 Cl
ENDBRANCH   4  14
BRANCH   3  22
ATOM     22  C   UNL     1       1.017  -7.459  -1.274  0.00  0.00    +0.263 C 
ATOM     23  O   UNL     1       1.134  -8.567  -0.785  0.00  0.00    -0.269 OA
ATOM     24  N   UNL     1       1.186  -7.287  -2.600  0.00  0.00    -0.307 N 
ATOM     25  H   UNL     1       1.165  -6.394  -2.980  0.00  0.00    +0.149 HD
BRANCH  24  26
ATOM     26  C   UNL     1       1.402  -8.447  -3.468  0.00  0.00    +0.071 C 
ATOM     27  C   UNL     1       0.053  -9.079  -3.819  0.00  0.00    +0.028 C 
BRANCH  26  28
ATOM     28  C   UNL     1       2.104  -8.000  -4.752  0.00  0.00    +0.026 C 
BRANCH  28  29
ATOM     29  C   UNL     1       3.502  -7.478  -4.412  0.00  0.00    +0.037 C 
BRANCH  29  30
ATOM     30  C   UNL     1       4.149  -6.930  -5.658  0.00  0.00    -0.047 A 
ATOM     31  C   UNL     1       4.819  -7.778  -6.519  0.00  0.00    +0.003 A 
ATOM     32  C   UNL     1       5.413  -7.276  -7.662  0.00  0.00    +0.000 A 
ATOM     33  C   UNL     1       5.337  -5.925  -7.943  0.00  0.00    +0.000 A 
ATOM     34  C   UNL     1       4.667  -5.076  -7.082  0.00  0.00    +0.000 A 
ATOM     35  C   UNL     1       4.069  -5.579  -5.942  0.00  0.00    +0.003 A 
ENDBRANCH  29  30
ENDBRANCH  28  29
ENDBRANCH  26  28
ENDBRANCH  24  26
ENDBRANCH   3  22
TORSDOF 7
