REMARK  Name = ZINC19075180
REMARK  8 active torsions:
REMARK  status: ('A' for Active; 'I' for Inactive)
REMARK    1  A    between atoms: C_1  and  C_2
REMARK    2  A    between atoms: C_2  and  C_23
REMARK    3  A    between atoms: C_4  and  N_11
REMARK    4  A    between atoms: C_7  and  C_9
REMARK    5  A    between atoms: C_7  and  C_10
REMARK    6  A    between atoms: N_14  and  C_15
REMARK    7  A    between atoms: C_23  and  N_24
REMARK    8  A    between atoms: N_27  and  C_28
REMARK                            x       y       z     vdW  Elec       q    Type
REMARK                         _______ _______ _______ _____ _____    ______ ____
ROOT
ATOM      1  C   UNL     1      -0.035   1.616  -0.163  0.00  0.00    +0.013 C 
ATOM      2  C   UNL     1       0.141   0.097  -0.097  0.00  0.00    -0.014 C 
ATOM      3  C   UNL     1      -1.218  -0.590  -0.176  0.00  0.00    +0.030 C 
ATOM      4  C   UNL     1      -1.996  -0.404   1.125  0.00  0.00    +0.076 C 
ATOM      5  C   UNL     1      -1.211  -1.048   2.265  0.00  0.00    +0.028 C 
ATOM      6  C   UNL     1       0.148  -0.378   2.433  0.00  0.00    -0.033 C 
ATOM      7  C   UNL     1       0.929  -0.309   1.134  0.00  0.00    +0.014 C 
ATOM      8  C   UNL     1       0.965  -1.222   3.437  0.00  0.00    +0.011 C 
ATOM      9  C   UNL     1      -0.027   1.015   3.046  0.00  0.00    +0.011 C 
ENDROOT
BRANCH   4  10
ATOM     10  N   UNL     1      -3.300  -1.068   1.004  0.00  0.00    -0.296 N 
ATOM     11  C   UNL     1      -4.340  -0.654   1.755  0.00  0.00    +0.304 C 
ATOM     12  O   UNL     1      -4.198   0.269   2.533  0.00  0.00    -0.253 OA
ATOM     13  N   UNL     1      -5.537  -1.264   1.644  0.00  0.00    -0.269 N 
ATOM     14  H   UNL     1      -3.414  -1.805   0.383  0.00  0.00    +0.151 HD
ATOM     15  H   UNL     1      -5.669  -1.955   0.977  0.00  0.00    +0.156 HD
BRANCH  13  16
ATOM     16  C   UNL     1      -6.590  -0.900   2.493  0.00  0.00    +0.038 A 
ATOM     17  C   UNL     1      -7.482  -1.862   2.945  0.00  0.00    +0.026 A 
ATOM     18  C   UNL     1      -8.520  -1.502   3.783  0.00  0.00    +0.043 A 
ATOM     19  C   UNL     1      -8.672  -0.182   4.171  0.00  0.00    +0.159 A 
ATOM     20  C   UNL     1      -7.782   0.781   3.721  0.00  0.00    +0.160 A 
ATOM     21  C   UNL     1      -6.738   0.423   2.887  0.00  0.00    +0.064 A 
ATOM     22  F   UNL     1      -7.931   2.069   4.101  0.00  0.00    -0.202 F 
ATOM     23  F   UNL     1      -9.688   0.168   4.990  0.00  0.00    -0.202 F 
ENDBRANCH  13  16
ENDBRANCH   4  10
BRANCH   2  24
ATOM     24  C   UNL     1       0.952  -0.326  -1.342  0.00  0.00    +0.112 C 
BRANCH  24  25
ATOM     25  N   UNL     1       0.220   0.055  -2.553  0.00  0.00    -0.299 N 
ATOM     26  C   UNL     1       0.739  -0.216  -3.767  0.00  0.00    +0.304 C 
ATOM     27  O   UNL     1       1.815  -0.776  -3.857  0.00  0.00    -0.253 OA
ATOM     28  N   UNL     1       0.067   0.135  -4.881  0.00  0.00    -0.269 N 
ATOM     29  H   UNL     1      -0.637   0.502  -2.481  0.00  0.00    +0.150 HD
ATOM     30  H   UNL     1      -0.754   0.647  -4.811  0.00  0.00    +0.156 HD
BRANCH  28  31
ATOM     31  C   UNL     1       0.552  -0.241  -6.140  0.00  0.00    +0.038 A 
ATOM     32  C   UNL     1       0.366   0.593  -7.234  0.00  0.00    +0.026 A 
ATOM     33  C   UNL     1       0.846   0.222  -8.475  0.00  0.00    +0.043 A 
ATOM     34  C   UNL     1       1.512  -0.982  -8.630  0.00  0.00    +0.159 A 
ATOM     35  C   UNL     1       1.700  -1.817  -7.539  0.00  0.00    +0.160 A 
ATOM     36  C   UNL     1       1.225  -1.446  -6.294  0.00  0.00    +0.064 A 
ATOM     37  F   UNL     1       2.350  -2.992  -7.691  0.00  0.00    -0.202 F 
ATOM     38  F   UNL     1       1.980  -1.343  -9.845  0.00  0.00    -0.202 F 
ENDBRANCH  28  31
ENDBRANCH  24  25
ENDBRANCH   2  24
TORSDOF 5
