REMARK  Name = ZINC40947231
REMARK  8 active torsions:
REMARK  status: ('A' for Active; 'I' for Inactive)
REMARK    1  A    between atoms: C_3  and  O_20
REMARK    2  A    between atoms: C_6  and  C_7
REMARK    3  A    between atoms: N_8  and  N_9
REMARK    4  A    between atoms: C_10  and  C_12
REMARK    5  A    between atoms: C_12  and  S_13
REMARK    6  A    between atoms: S_13  and  C_14
REMARK    7  A    between atoms: O_20  and  C_21
REMARK    8  A    between atoms: C_21  and  C_22
REMARK                            x       y       z     vdW  Elec       q    Type
REMARK                         _______ _______ _______ _____ _____    ______ ____
ROOT
ATOM      1  C   UNL     1      -0.017   1.393   0.010  0.00  0.00    +0.013 A 
ATOM      2  C   UNL     1       1.168   2.096   0.002  0.00  0.00    +0.046 A 
ATOM      3  C   UNL     1       2.380   1.418  -0.013  0.00  0.00    +0.121 A 
ATOM      4  C   UNL     1       2.404   0.029  -0.021  0.00  0.00    +0.046 A 
ATOM      5  C   UNL     1       1.224  -0.682  -0.014  0.00  0.00    +0.013 A 
ATOM      6  C   UNL     1       0.002  -0.004   0.002  0.00  0.00    -0.005 A 
ENDROOT
BRANCH   6   7
ATOM      7  C   UNL     1      -1.263  -0.761   0.011  0.00  0.00    +0.138 C 
ATOM      8  N   UNL     1      -1.243  -2.058   0.003  0.00  0.00    -0.188 NA
BRANCH   8   9
ATOM      9  N   UNL     1      -2.446  -2.777   0.011  0.00  0.00    -0.206 N 
ATOM     10  C   UNL     1      -2.425  -4.125   0.004  0.00  0.00    +0.242 C 
ATOM     11  O   UNL     1      -1.365  -4.715  -0.010  0.00  0.00    -0.273 OA
ATOM     12  H   UNL     1      -3.293  -2.305   0.022  0.00  0.00    +0.177 HD
BRANCH  10  13
ATOM     13  C   UNL     1      -3.718  -4.898   0.013  0.00  0.00    +0.173 C 
BRANCH  13  14
ATOM     14  S   UNL     1      -3.360  -6.677  -0.000  0.00  0.00    -0.088 S 
BRANCH  14  15
ATOM     15  C   UNL     1      -4.951  -7.433   0.011  0.00  0.00    +0.160 A 
ATOM     16  N   UNL     1      -6.144  -6.870   0.020  0.00  0.00    -0.133 NA
ATOM     17  N   UNL     1      -7.272  -7.657   0.028  0.00  0.00    -0.125 NA
ATOM     18  C   UNL     1      -7.156  -8.970   0.027  0.00  0.00    +0.180 A 
ATOM     19  S   UNL     1      -5.381  -9.166   0.006  0.00  0.00    -0.025 S 
ATOM     20  N   UNL     1      -8.150  -9.942   0.033  0.00  0.00    -0.336 N 
ATOM     21  H   UNL     1      -9.084  -9.681   0.040  0.00  0.00    +0.144 HD
ATOM     22  H   UNL     1      -7.909 -10.882   0.032  0.00  0.00    +0.144 HD
ENDBRANCH  14  15
ENDBRANCH  13  14
ENDBRANCH  10  13
ENDBRANCH   8   9
ENDBRANCH   6   7
BRANCH   3  23
ATOM     23  O   UNL     1       3.546   2.115  -0.022  0.00  0.00    -0.487 OA
BRANCH  23  24
ATOM     24  C   UNL     1       4.756   1.356  -0.038  0.00  0.00    +0.266 C 
BRANCH  24  25
ATOM     25  C   UNL     1       5.937   2.292  -0.045  0.00  0.00    +0.008 A 
ATOM     26  C   UNL     1       5.735   3.659  -0.030  0.00  0.00    +0.010 A 
ATOM     27  C   UNL     1       6.817   4.519  -0.037  0.00  0.00    +0.020 A 
ATOM     28  C   UNL     1       8.104   4.010  -0.058  0.00  0.00    +0.042 A 
ATOM     29  C   UNL     1       8.307   2.642  -0.072  0.00  0.00    +0.040 A 
ATOM     30  C   UNL     1       7.223   1.783  -0.061  0.00  0.00    +0.049 A 
ATOM     31 CL   UNL     1       7.477   0.065  -0.072  0.00  0.00    -0.083 Cl
ATOM     32 CL   UNL     1       9.464   5.090  -0.067  0.00  0.00    -0.083 Cl
ENDBRANCH  24  25
ENDBRANCH  23  24
ENDBRANCH   3  23
TORSDOF 8
