REMARK  Name = ZINC39359623
REMARK  8 active torsions:
REMARK  status: ('A' for Active; 'I' for Inactive)
REMARK    1  A    between atoms: C_1  and  C_2
REMARK    2  A    between atoms: C_2  and  O_3
REMARK    3  A    between atoms: O_3  and  C_4
REMARK    4  A    between atoms: C_4  and  C_6
REMARK    5  A    between atoms: C_8  and  N_17
REMARK    6  A    between atoms: C_19  and  C_30
REMARK    7  A    between atoms: C_23  and  O_28
REMARK    8  A    between atoms: O_28  and  C_29
REMARK                            x       y       z     vdW  Elec       q    Type
REMARK                         _______ _______ _______ _____ _____    ______ ____
ROOT
ATOM      1  N   UNL     1      -2.609  -1.859   2.427  0.00  0.00    -0.342 N 
ATOM      2  C   UNL     1      -2.724  -0.833   3.227  0.00  0.00    +0.207 A 
ATOM      3  C   UNL     1      -1.753  -0.606   4.320  0.00  0.00    +0.078 A 
ATOM      4  C   UNL     1      -1.571   0.690   4.741  0.00  0.00    +0.028 A 
ATOM      5  C   UNL     1      -2.353   1.735   4.073  0.00  0.00    +0.022 A 
ATOM      6  C   UNL     1      -2.038   3.087   4.250  0.00  0.00    +0.057 A 
ATOM      7  C   UNL     1      -2.788   4.052   3.607  0.00  0.00    +0.121 A 
ATOM      8  C   UNL     1      -3.850   3.684   2.787  0.00  0.00    +0.049 A 
ATOM      9  C   UNL     1      -4.169   2.354   2.606  0.00  0.00    +0.050 A 
ATOM     10  C   UNL     1      -3.429   1.370   3.244  0.00  0.00    +0.138 A 
ATOM     11  O   UNL     1      -3.734   0.062   3.076  0.00  0.00    -0.439 OA
ATOM     12  H   UNL     1      -1.881  -2.489   2.547  0.00  0.00    +0.164 HD
ENDROOT
BRANCH   3  13
ATOM     13  C   UNL     1      -1.012  -1.724   4.933  0.00  0.00    +0.144 A 
ATOM     14  N   UNL     1      -0.102  -1.603   5.950  0.00  0.00    -0.338 N 
ATOM     15  H   UNL     1       0.166  -0.780   6.389  0.00  0.00    +0.167 HD
ATOM     16  C   UNL     1       0.363  -2.872   6.235  0.00  0.00    +0.066 A 
ATOM     17  C   UNL     1       1.278  -3.381   7.146  0.00  0.00    +0.028 A 
ATOM     18  C   UNL     1       1.528  -4.737   7.180  0.00  0.00    +0.002 A 
ATOM     19  C   UNL     1       0.872  -5.595   6.309  0.00  0.00    +0.002 A 
ATOM     20  C   UNL     1      -0.032  -5.114   5.405  0.00  0.00    +0.030 A 
ATOM     21  C   UNL     1      -0.302  -3.742   5.353  0.00  0.00    +0.089 A 
ATOM     22  N   UNL     1      -1.128  -2.985   4.590  0.00  0.00    -0.228 NA
ENDBRANCH   3  13
BRANCH   1  24
ATOM     23  C   UNL     1      -2.881  -2.427   0.017  0.00  0.00    +0.157 C 
ATOM     24  C   UNL     1      -3.579  -2.058   1.347  0.00  0.00    +0.162 C 
ATOM     25  S   UNL     1      -4.553  -3.603   1.589  0.00  0.00    -0.104 S 
ATOM     26  C   UNL     1      -3.579  -4.685   0.569  0.00  0.00    -0.012 C 
ATOM     27  C   UNL     1      -2.776  -3.921  -0.159  0.00  0.00    -0.044 C 
ATOM     28  C   UNL     1      -1.784  -4.538  -1.143  0.00  0.00    +0.032 C 
ATOM     29  C   UNL     1      -1.579  -6.010  -0.791  0.00  0.00    +0.005 C 
ATOM     30  C   UNL     1      -2.941  -6.706  -0.692  0.00  0.00    +0.005 C 
ATOM     31  C   UNL     1      -3.662  -6.186   0.551  0.00  0.00    +0.042 C 
BRANCH  23  32
ATOM     32  C   UNL     1      -1.496  -1.832   0.006  0.00  0.00    +0.317 C 
ATOM     33  O   UNL     1      -0.578  -2.429   0.517  0.00  0.00    -0.250 OA
BRANCH  32  34
ATOM     34  O   UNL     1      -1.283  -0.638  -0.569  0.00  0.00    -0.464 OA
BRANCH  34  36
ATOM     35  C   UNL     1       0.101   1.226  -1.241  0.00  0.00    +0.048 C 
ATOM     36  C   UNL     1       0.054  -0.135  -0.542  0.00  0.00    +0.229 C 
ENDBRANCH  34  36
ENDBRANCH  32  34
ENDBRANCH  23  32
ENDBRANCH   1  24
BRANCH   7  37
ATOM     37  O   UNL     1      -2.487   5.367   3.777  0.00  0.00    -0.495 OA
ATOM     38  C   UNL     1      -3.302   6.314   3.083  0.00  0.00    +0.277 C 
ENDBRANCH   7  37
TORSDOF 6
