REMARK  Name = ZINC15813731
REMARK  8 active torsions:
REMARK  status: ('A' for Active; 'I' for Inactive)
REMARK    1  A    between atoms: C_1  and  C_2
REMARK    2  A    between atoms: C_2  and  C_4
REMARK    3  A    between atoms: C_2  and  S_15
REMARK    4  A    between atoms: N_6  and  C_7
REMARK    5  A    between atoms: C_8  and  C_12
REMARK    6  A    between atoms: S_15  and  C_16
REMARK    7  A    between atoms: C_19  and  C_28
REMARK    8  A    between atoms: N_20  and  C_21
REMARK                            x       y       z     vdW  Elec       q    Type
REMARK                         _______ _______ _______ _____ _____    ______ ____
ROOT
ATOM      1  C   UNL     1      -2.492   5.867  -0.709  0.00  0.00    +0.197 A 
ATOM      2  N   UNL     1      -1.376   6.472  -0.367  0.00  0.00    -0.122 NA
ATOM      3  N   UNL     1      -1.550   7.745  -0.348  0.00  0.00    -0.128 NA
ATOM      4  C   UNL     1      -2.791   8.033  -0.667  0.00  0.00    +0.169 A 
ATOM      5  N   UNL     1      -3.434   6.838  -0.909  0.00  0.00    -0.270 N 
ENDROOT
BRANCH   5   6
ATOM      6  C   UNL     1      -4.773   6.657  -1.282  0.00  0.00    +0.051 A 
ATOM      7  C   UNL     1      -5.210   7.076  -2.532  0.00  0.00    +0.029 A 
ATOM      8  C   UNL     1      -6.528   6.891  -2.899  0.00  0.00    +0.040 A 
ATOM      9  C   UNL     1      -7.417   6.298  -2.018  0.00  0.00    +0.124 A 
ATOM     10  C   UNL     1      -6.985   5.884  -0.770  0.00  0.00    +0.040 A 
ATOM     11  C   UNL     1      -5.666   6.062  -0.400  0.00  0.00    +0.029 A 
ATOM     12  F   UNL     1      -8.707   6.122  -2.378  0.00  0.00    -0.205 F 
ENDBRANCH   5   6
BRANCH   4  13
ATOM     13  C   UNL     1      -3.386   9.383  -0.751  0.00  0.00    +0.020 A 
ATOM     14  C   UNL     1      -2.563  10.507  -0.842  0.00  0.00    +0.011 A 
ATOM     15  C   UNL     1      -3.124  11.765  -0.925  0.00  0.00    +0.001 A 
ATOM     16  C   UNL     1      -4.500  11.914  -0.908  0.00  0.00    +0.000 A 
ATOM     17  C   UNL     1      -5.321  10.804  -0.813  0.00  0.00    +0.001 A 
ATOM     18  C   UNL     1      -4.772   9.541  -0.735  0.00  0.00    +0.011 A 
ENDBRANCH   4  13
BRANCH   1  19
ATOM     19  S   UNL     1      -2.731   4.129  -0.872  0.00  0.00    -0.073 S 
BRANCH  19  21
ATOM     20  C   UNL     1      -0.760   3.882   1.004  0.00  0.00    +0.029 C 
ATOM     21  C   UNL     1      -1.070   3.542  -0.456  0.00  0.00    +0.137 C 
BRANCH  21  22
ATOM     22  C   UNL     1      -1.002   2.049  -0.650  0.00  0.00    +0.231 C 
ATOM     23  O   UNL     1      -2.021   1.393  -0.673  0.00  0.00    -0.274 OA
ATOM     24  N   UNL     1       0.193   1.443  -0.798  0.00  0.00    -0.278 N 
ATOM     25  H   UNL     1       1.008   1.968  -0.783  0.00  0.00    +0.155 HD
BRANCH  24  26
ATOM     26  C   UNL     1       0.256   0.070  -0.976  0.00  0.00    +0.084 A 
ATOM     27  C   UNL     1       1.381  -0.727  -1.155  0.00  0.00    +0.065 A 
ATOM     28  C   UNL     1       1.155  -2.143  -1.315  0.00  0.00    +0.022 A 
ATOM     29  C   UNL     1      -0.121  -2.568  -1.287  0.00  0.00    +0.048 A 
ATOM     30  S   UNL     1      -1.048  -1.068  -1.038  0.00  0.00    -0.081 S 
BRANCH  27  31
ATOM     31  C   UNL     1       2.732  -0.157  -1.177  0.00  0.00    +0.244 C 
ATOM     32  O   UNL     1       2.888   1.042  -1.037  0.00  0.00    -0.270 OA
ATOM     33  N   UNL     1       3.800  -0.960  -1.353  0.00  0.00    -0.325 N 
ATOM     34  H   UNL     1       3.675  -1.915  -1.465  0.00  0.00    +0.145 HD
ATOM     35  H   UNL     1       4.693  -0.583  -1.368  0.00  0.00    +0.145 HD
ENDBRANCH  27  31
ENDBRANCH  24  26
ENDBRANCH  21  22
ENDBRANCH  19  21
ENDBRANCH   1  19
TORSDOF 7
