REMARK  Name = ZINC40826079
REMARK  7 active torsions:
REMARK  status: ('A' for Active; 'I' for Inactive)
REMARK    1  A    between atoms: C_1  and  C_2
REMARK    2  A    between atoms: C_7  and  N_8
REMARK    3  A    between atoms: C_9  and  C_11
REMARK    4  A    between atoms: C_12  and  C_32
REMARK    5  A    between atoms: N_20  and  N_21
REMARK    6  A    between atoms: N_21  and  S_22
REMARK    7  A    between atoms: S_22  and  C_25
REMARK                            x       y       z     vdW  Elec       q    Type
REMARK                         _______ _______ _______ _____ _____    ______ ____
ROOT
ATOM      1  C   UNL     1      -0.165   0.033   4.847  0.00  0.00    +0.193 A 
ATOM      2  C   UNL     1      -0.248  -0.534   6.088  0.00  0.00    +0.009 A 
ATOM      3  C   UNL     1      -0.336   0.525   6.998  0.00  0.00    +0.042 A 
ATOM      4  C   UNL     1      -0.303   1.694   6.276  0.00  0.00    +0.115 A 
ATOM      5  O   UNL     1      -0.193   1.378   4.987  0.00  0.00    -0.454 OA
ATOM      6  C   UNL     1      -0.381   3.057   6.916  0.00  0.00    +0.075 C 
ATOM      7  C   UNL     1      -0.998   2.929   8.312  0.00  0.00    +0.014 C 
ATOM      8  C   UNL     1      -0.250   1.879   9.139  0.00  0.00    +0.058 C 
ATOM      9  C   UNL     1      -0.443   0.523   8.476  0.00  0.00    +0.071 C 
ATOM     10  N   UNL     1      -0.685  -0.555   9.154  0.00  0.00    -0.170 NA
ATOM     11  C   UNL     1      -0.248  -2.006   6.412  0.00  0.00    +0.048 C 
ENDROOT
BRANCH   1  13
ATOM     12  N   UNL     1       0.025  -0.015   2.417  0.00  0.00    -0.279 N 
ATOM     13  C   UNL     1      -0.056  -0.694   3.578  0.00  0.00    +0.284 C 
ATOM     14  O   UNL     1      -0.040  -1.911   3.573  0.00  0.00    -0.266 OA
ATOM     15  H   UNL     1       0.078   0.954   2.424  0.00  0.00    +0.155 HD
BRANCH  12  22
ATOM     16  C   UNL     1      -1.267   1.182   0.182  0.00  0.00    +0.046 C 
ATOM     17  C   UNL     1      -0.585  -0.158   0.085  0.00  0.00    -0.028 A 
ATOM     18  C   UNL     1      -0.571  -0.841  -1.116  0.00  0.00    +0.025 A 
ATOM     19  C   UNL     1       0.055  -2.072  -1.206  0.00  0.00    +0.041 A 
ATOM     20  C   UNL     1       0.667  -2.622  -0.094  0.00  0.00    +0.022 A 
ATOM     21  C   UNL     1       0.655  -1.945   1.109  0.00  0.00    +0.025 A 
ATOM     22  C   UNL     1       0.033  -0.706   1.201  0.00  0.00    +0.037 A 
ATOM     23 CL   UNL     1       0.071  -2.927  -2.717  0.00  0.00    -0.084 Cl
ENDBRANCH  12  22
ENDBRANCH   1  13
BRANCH  10  24
ATOM     24  N   UNL     1      -0.777  -0.499  10.551  0.00  0.00    -0.136 N 
ATOM     25  H   UNL     1      -0.659   0.347  11.010  0.00  0.00    +0.197 HD
BRANCH  24  26
ATOM     26  S   UNL     1      -1.086  -1.876  11.417  0.00  0.00    +0.086 S 
ATOM     27  O   UNL     1      -0.975  -1.526  12.789  0.00  0.00    -0.149 OA
ATOM     28  O   UNL     1      -2.268  -2.444  10.868  0.00  0.00    -0.149 OA
BRANCH  26  29
ATOM     29  C   UNL     1       0.221  -3.008  11.078  0.00  0.00    +0.110 A 
ATOM     30  C   UNL     1       0.114  -3.890  10.019  0.00  0.00    +0.031 A 
ATOM     31  C   UNL     1       1.138  -4.778   9.752  0.00  0.00    +0.040 A 
ATOM     32  C   UNL     1       2.272  -4.785  10.547  0.00  0.00    +0.124 A 
ATOM     33  C   UNL     1       2.378  -3.902  11.608  0.00  0.00    +0.040 A 
ATOM     34  C   UNL     1       1.354  -3.011  11.870  0.00  0.00    +0.031 A 
ATOM     35  F   UNL     1       3.274  -5.653  10.288  0.00  0.00    -0.205 F 
ENDBRANCH  26  29
ENDBRANCH  24  26
ENDBRANCH  10  24
TORSDOF 5
