REMARK  Name = ZINC60358553
REMARK  8 active torsions:
REMARK  status: ('A' for Active; 'I' for Inactive)
REMARK    1  A    between atoms: C_4  and  O_29
REMARK    2  A    between atoms: C_5  and  C_7
REMARK    3  A    between atoms: C_7  and  C_8
REMARK    4  A    between atoms: N_13  and  C_16
REMARK    5  A    between atoms: C_16  and  C_17
REMARK    6  A    between atoms: C_17  and  C_18
REMARK    7  A    between atoms: C_18  and  C_19
REMARK    8  A    between atoms: C_21  and  C_24
REMARK                            x       y       z     vdW  Elec       q    Type
REMARK                         _______ _______ _______ _____ _____    ______ ____
ROOT
ATOM      1  C   UNL     1       1.372  -2.695   1.389  0.00  0.00    +0.220 C 
ATOM      2  O   UNL     1       1.451  -1.911   2.311  0.00  0.00    -0.275 OA
ATOM      3  N   UNL     1       1.413  -4.021   1.627  0.00  0.00    -0.305 N 
ATOM      4  C   UNL     1       1.325  -4.990   0.524  0.00  0.00    +0.089 C 
ATOM      5  C   UNL     1       2.477  -5.990   0.662  0.00  0.00    -0.060 C 
ATOM      6  N   UNL     1       2.444  -6.592   2.001  0.00  0.00    +0.382 N 
ATOM      7  C   UNL     1       2.690  -5.562   3.018  0.00  0.00    -0.060 C 
ATOM      8  C   UNL     1       1.554  -4.540   2.996  0.00  0.00    +0.089 C 
ATOM      9  H   UNL     1       1.539  -7.009   2.159  0.00  0.00    -0.082 HD
ENDROOT
BRANCH   1  10
ATOM     10  C   UNL     1       1.227  -2.187  -0.022  0.00  0.00    +0.134 C 
BRANCH  10  15
ATOM     11  C   UNL     1      -0.017   1.378   0.010  0.00  0.00    +0.001 A 
ATOM     12  C   UNL     1       1.170   2.088   0.002  0.00  0.00    +0.004 A 
ATOM     13  C   UNL     1       2.377   1.417  -0.013  0.00  0.00    +0.046 A 
ATOM     14  C   UNL     1       2.399   0.030  -0.021  0.00  0.00    +0.120 A 
ATOM     15  C   UNL     1       1.207  -0.680  -0.013  0.00  0.00    +0.003 A 
ATOM     16  C   UNL     1       0.002  -0.004   0.002  0.00  0.00    +0.008 A 
BRANCH  14  17
ATOM     17  O   UNL     1       3.586  -0.632  -0.037  0.00  0.00    -0.506 OA
ATOM     18  H   UNL     1       3.938  -0.829   0.842  0.00  0.00    +0.292 HD
ENDBRANCH  14  17
ENDBRANCH  10  15
ENDBRANCH   1  10
BRANCH   6  19
ATOM     19  C   UNL     1       3.480  -7.629   2.096  0.00  0.00    -0.078 C 
BRANCH  19  20
ATOM     20  C   UNL     1       3.366  -8.342   3.445  0.00  0.00    -0.009 C 
BRANCH  20  21
ATOM     21  C   UNL     1       4.445  -9.422   3.544  0.00  0.00    +0.097 C 
BRANCH  21  22
ATOM     22  C   UNL     1       4.332 -10.124   4.873  0.00  0.00    +0.228 A 
ATOM     23  N   UNL     1       3.616 -11.184   5.114  0.00  0.00    -0.191 NA
ATOM     24  C   UNL     1       3.747 -11.544   6.405  0.00  0.00    +0.209 A 
ATOM     25  N   UNL     1       4.561 -10.700   6.995  0.00  0.00    -0.056 NA
ATOM     26  O   UNL     1       4.958  -9.766   6.002  0.00  0.00    -0.338 OA
BRANCH  24  27
ATOM     27  C   UNL     1       3.085 -12.697   7.050  0.00  0.00    +0.060 A 
ATOM     28  C   UNL     1       3.164 -13.122   8.350  0.00  0.00    +0.019 A 
ATOM     29  C   UNL     1       2.450 -14.236   8.727  0.00  0.00    +0.008 A 
ATOM     30  C   UNL     1       1.690 -14.880   7.803  0.00  0.00    +0.046 A 
ATOM     31  S   UNL     1       1.969 -13.896   6.339  0.00  0.00    -0.093 S 
ENDBRANCH  24  27
ENDBRANCH  21  22
ENDBRANCH  20  21
ENDBRANCH  19  20
ENDBRANCH   6  19
TORSDOF 8
