REMARK  Name = ZINC08936716
REMARK  7 active torsions:
REMARK  status: ('A' for Active; 'I' for Inactive)
REMARK    1  A    between atoms: C_1  and  C_2
REMARK    2  A    between atoms: C_2  and  C_20
REMARK    3  A    between atoms: N_5  and  C_9
REMARK    4  A    between atoms: C_9  and  C_10
REMARK    5  A    between atoms: N_12  and  C_13
REMARK    6  A    between atoms: C_23  and  O_26
REMARK    7  A    between atoms: O_26  and  C_27
REMARK                            x       y       z     vdW  Elec       q    Type
REMARK                         _______ _______ _______ _____ _____    ______ ____
ROOT
ATOM      1  C   UNL     1      -0.693   2.032   1.286  0.00  0.00    +0.047 C 
ATOM      2  C   UNL     1      -0.021   1.509   0.015  0.00  0.00    +0.135 C 
ATOM      3  C   UNL     1       0.004  -0.007   0.010  0.00  0.00    +0.251 C 
ATOM      4  O   UNL     1      -0.950  -0.755   0.024  0.00  0.00    -0.272 OA
ATOM      5  N   UNL     1       1.307  -0.350  -0.012  0.00  0.00    -0.215 N 
ATOM      6  C   UNL     1       2.101   0.727  -0.021  0.00  0.00    +0.310 C 
ATOM      7  O   UNL     1       3.315   0.671  -0.042  0.00  0.00    -0.252 OA
ATOM      8  N   UNL     1       1.405   1.878  -0.006  0.00  0.00    -0.281 N 
ATOM      9  H   UNL     1       1.771   2.777  -0.010  0.00  0.00    +0.152 HD
ENDROOT
BRANCH   2  10
ATOM     10  C   UNL     1      -0.723   2.032  -1.211  0.00  0.00    -0.015 A 
ATOM     11  C   UNL     1      -1.726   1.286  -1.803  0.00  0.00    +0.010 A 
ATOM     12  C   UNL     1      -2.375   1.766  -2.924  0.00  0.00    +0.046 A 
ATOM     13  C   UNL     1      -2.011   2.992  -3.463  0.00  0.00    +0.127 A 
ATOM     14  C   UNL     1      -1.001   3.735  -2.871  0.00  0.00    +0.046 A 
ATOM     15  C   UNL     1      -0.359   3.254  -1.746  0.00  0.00    +0.010 A 
BRANCH  13  16
ATOM     16  O   UNL     1      -2.644   3.463  -4.570  0.00  0.00    -0.434 OA
BRANCH  16  17
ATOM     17  C   UNL     1      -3.675   2.644  -5.126  0.00  0.00    +0.541 C 
ATOM     18  F   UNL     1      -3.137   1.407  -5.498  0.00  0.00    -0.166 F 
ATOM     19  F   UNL     1      -4.680   2.449  -4.173  0.00  0.00    -0.166 F 
ENDBRANCH  16  17
ENDBRANCH  13  16
ENDBRANCH   2  10
BRANCH   5  20
ATOM     20  C   UNL     1       1.794  -1.732  -0.025  0.00  0.00    +0.214 C 
BRANCH  20  21
ATOM     21  C   UNL     1       1.938  -2.200  -1.450  0.00  0.00    +0.235 C 
ATOM     22  O   UNL     1       1.662  -1.453  -2.365  0.00  0.00    -0.274 OA
ATOM     23  N   UNL     1       2.375  -3.449  -1.708  0.00  0.00    -0.284 N 
ATOM     24  H   UNL     1       2.660  -4.023  -0.980  0.00  0.00    +0.155 HD
BRANCH  23  25
ATOM     25  C   UNL     1       2.417  -3.917  -3.026  0.00  0.00    +0.033 A 
ATOM     26  C   UNL     1       2.150  -5.252  -3.299  0.00  0.00    +0.024 A 
ATOM     27  C   UNL     1       2.187  -5.710  -4.602  0.00  0.00    +0.017 A 
ATOM     28  C   UNL     1       2.501  -4.843  -5.633  0.00  0.00    +0.018 A 
ATOM     29  C   UNL     1       2.774  -3.513  -5.363  0.00  0.00    +0.017 A 
ATOM     30  C   UNL     1       2.733  -3.048  -4.063  0.00  0.00    +0.024 A 
ATOM     31 BR   UNL     1       2.558  -5.475  -7.414  0.00  0.00    -0.050 Br
ENDBRANCH  23  25
ENDBRANCH  20  21
ENDBRANCH   5  20
TORSDOF 6
