REMARK  Name = ZINC18457935
REMARK  8 active torsions:
REMARK  status: ('A' for Active; 'I' for Inactive)
REMARK    1  A    between atoms: C_1  and  C_2
REMARK    2  A    between atoms: C_5  and  N_9
REMARK    3  A    between atoms: C_6  and  C_8
REMARK    4  A    between atoms: C_10  and  C_12
REMARK    5  A    between atoms: C_12  and  C_14
REMARK    6  A    between atoms: C_12  and  S_15
REMARK    7  A    between atoms: S_15  and  C_16
REMARK    8  A    between atoms: C_19  and  C_22
REMARK                            x       y       z     vdW  Elec       q    Type
REMARK                         _______ _______ _______ _____ _____    ______ ____
ROOT
ATOM      1  C   UNL     1       4.104  -1.194  -0.056  0.00  0.00    +0.137 C 
ATOM      2  C   UNL     1       3.577  -1.785  -1.365  0.00  0.00    +0.029 C 
ENDROOT
BRANCH   1   4
ATOM      3  N   UNL     1       6.003  -2.685   0.479  0.00  0.00    -0.284 N 
ATOM      4  C   UNL     1       5.579  -1.475   0.064  0.00  0.00    +0.230 C 
ATOM      5  O   UNL     1       6.386  -0.612  -0.212  0.00  0.00    -0.274 OA
ATOM      6  H   UNL     1       5.361  -3.349   0.776  0.00  0.00    +0.155 HD
BRANCH   3  11
ATOM      7  C   UNL     1      11.545  -3.901   0.484  0.00  0.00    +0.044 C 
ATOM      8  C   UNL     1      10.073  -3.578   0.483  0.00  0.00    -0.050 A 
ATOM      9  C   UNL     1       9.579  -2.611  -0.374  0.00  0.00    +0.005 A 
ATOM     10  C   UNL     1       8.231  -2.313  -0.378  0.00  0.00    +0.024 A 
ATOM     11  C   UNL     1       7.370  -2.985   0.480  0.00  0.00    +0.036 A 
ATOM     12  C   UNL     1       7.870  -3.951   1.343  0.00  0.00    -0.029 A 
ATOM     13  C   UNL     1       9.219  -4.249   1.338  0.00  0.00    +0.008 A 
ATOM     14  C   UNL     1       6.940  -4.678   2.281  0.00  0.00    +0.045 C 
ENDBRANCH   3  11
ENDBRANCH   1   4
BRANCH   1  15
ATOM     15  S   UNL     1       3.828   0.595  -0.047  0.00  0.00    -0.075 S 
BRANCH  15  16
ATOM     16  C   UNL     1       2.066   0.632  -0.044  0.00  0.00    +0.167 A 
ATOM     17  N   UNL     1       1.296   1.755  -0.036  0.00  0.00    -0.333 N 
ATOM     18  H   UNL     1       1.621   2.701  -0.031  0.00  0.00    +0.168 HD
ATOM     19  C   UNL     1      -0.024   1.338  -0.036  0.00  0.00    +0.067 A 
ATOM     20  C   UNL     1      -0.002  -0.021  -0.043  0.00  0.00    +0.139 A 
ATOM     21  N   UNL     1       1.277  -0.418  -0.048  0.00  0.00    -0.230 NA
BRANCH  19  22
ATOM     22  C   UNL     1      -1.223   2.201  -0.034  0.00  0.00    +0.000 A 
ATOM     23  C   UNL     1      -1.087   3.591  -0.021  0.00  0.00    +0.013 A 
ATOM     24  C   UNL     1      -2.209   4.391  -0.024  0.00  0.00    +0.039 A 
ATOM     25  C   UNL     1      -3.472   3.820  -0.031  0.00  0.00    +0.123 A 
ATOM     26  C   UNL     1      -3.613   2.441  -0.038  0.00  0.00    +0.039 A 
ATOM     27  C   UNL     1      -2.498   1.631  -0.040  0.00  0.00    +0.013 A 
ATOM     28  F   UNL     1      -4.568   4.609  -0.029  0.00  0.00    -0.205 F 
ENDBRANCH  19  22
ENDBRANCH  15  16
ENDBRANCH   1  15
TORSDOF 5
