REMARK  Name = ZINC07735428
REMARK  8 active torsions:
REMARK  status: ('A' for Active; 'I' for Inactive)
REMARK    1  A    between atoms: C_1  and  C_2
REMARK    2  A    between atoms: C_3  and  C_29
REMARK    3  A    between atoms: C_9  and  C_12
REMARK    4  A    between atoms: C_12  and  O_14
REMARK    5  A    between atoms: O_14  and  C_15
REMARK    6  A    between atoms: C_15  and  C_17
REMARK    7  A    between atoms: C_15  and  C_18
REMARK    8  A    between atoms: N_20  and  C_21
REMARK                            x       y       z     vdW  Elec       q    Type
REMARK                         _______ _______ _______ _____ _____    ______ ____
ROOT
ATOM      1  O   UNL     1      -3.432  -2.485  -0.307  0.00  0.00    -0.449 OA
ENDROOT
BRANCH   1   2
ATOM      2  C   UNL     1      -4.311  -3.231  -1.004  0.00  0.00    +0.340 C 
ATOM      3  O   UNL     1      -5.284  -2.709  -1.510  0.00  0.00    -0.245 OA
BRANCH   2  12
ATOM      4  C   UNL     1      -6.788  -7.785  -3.452  0.00  0.00    +0.046 C 
ATOM      5  C   UNL     1      -5.504  -7.908  -2.674  0.00  0.00    -0.022 A 
ATOM      6  C   UNL     1      -4.804  -9.033  -2.458  0.00  0.00    +0.017 A 
ATOM      7  N   UNL     1      -3.693  -8.756  -1.709  0.00  0.00    -0.358 N 
ATOM      8  H   UNL     1      -3.035  -9.410  -1.426  0.00  0.00    +0.166 HD
ATOM      9  C   UNL     1      -3.647  -7.415  -1.415  0.00  0.00    +0.047 A 
ATOM     10  C   UNL     1      -4.780  -6.821  -2.007  0.00  0.00    +0.004 A 
ATOM     11  C   UNL     1      -5.000  -5.453  -1.874  0.00  0.00    +0.025 A 
ATOM     12  C   UNL     1      -4.091  -4.682  -1.153  0.00  0.00    +0.060 A 
ATOM     13  C   UNL     1      -2.965  -5.284  -0.574  0.00  0.00    +0.017 A 
ATOM     14  C   UNL     1      -2.750  -6.624  -0.699  0.00  0.00    +0.027 A 
ATOM     15  C   UNL     1      -5.186 -10.399  -2.966  0.00  0.00    +0.063 C 
ENDBRANCH   2  12
ENDBRANCH   1   2
BRANCH   1  16
ATOM     16  C   UNL     1      -3.711  -1.064  -0.202  0.00  0.00    +0.259 C 
ATOM     17  C   UNL     1      -4.564  -0.803   1.041  0.00  0.00    +0.062 C 
BRANCH  16  18
ATOM     18  C   UNL     1      -2.414  -0.304  -0.090  0.00  0.00    +0.258 C 
ATOM     19  O   UNL     1      -1.359  -0.901  -0.099  0.00  0.00    -0.271 OA
ATOM     20  N   UNL     1      -2.428   1.039   0.019  0.00  0.00    -0.281 N 
ATOM     21  H   UNL     1      -3.272   1.512   0.091  0.00  0.00    +0.155 HD
BRANCH  20  22
ATOM     22  C   UNL     1      -1.224   1.753   0.029  0.00  0.00    +0.052 A 
ATOM     23  C   UNL     1      -0.096   1.206   0.626  0.00  0.00    +0.026 A 
ATOM     24  C   UNL     1       1.093   1.910   0.628  0.00  0.00    +0.022 A 
ATOM     25  C   UNL     1       1.159   3.162   0.042  0.00  0.00    +0.042 A 
ATOM     26  C   UNL     1       0.036   3.712  -0.549  0.00  0.00    +0.041 A 
ATOM     27  C   UNL     1      -1.156   3.013  -0.554  0.00  0.00    +0.064 A 
ATOM     28 CL   UNL     1      -2.566   3.704  -1.295  0.00  0.00    -0.082 Cl
ATOM     29 CL   UNL     1       2.655   4.043   0.047  0.00  0.00    -0.083 Cl
ENDBRANCH  20  22
ENDBRANCH  16  18
ENDBRANCH   1  16
TORSDOF 5
