REMARK  Name = ZINC04597900
REMARK  4 active torsions:
REMARK  status: ('A' for Active; 'I' for Inactive)
REMARK    1  A    between atoms: C_1  and  C_2
REMARK    2  A    between atoms: C_5  and  C_8
REMARK    3  A    between atoms: C_13  and  C_26
REMARK    4  A    between atoms: C_23  and  C_25
REMARK                            x       y       z     vdW  Elec       q    Type
REMARK                         _______ _______ _______ _____ _____    ______ ____
ROOT
ATOM      1  C   UNL     1       4.490   1.099  -3.776  0.00  0.00    +0.032 C 
ATOM      2  C   UNL     1       3.942   2.471  -3.385  0.00  0.00    +0.059 C 
ATOM      3  C   UNL     1       2.997   2.331  -2.202  0.00  0.00    +0.017 C 
ATOM      4  C   UNL     1       3.223   1.399  -1.264  0.00  0.00    +0.040 C 
ATOM      5  C   UNL     1       2.400   1.180  -0.015  0.00  0.00    +0.182 C 
ATOM      6  N   UNL     1       1.143   1.898   0.001  0.00  0.00    -0.255 N 
ATOM      7  C   UNL     1       1.112   3.292   0.003  0.00  0.00    +0.058 A 
ATOM      8  C   UNL     1       0.632   4.000   1.095  0.00  0.00    +0.025 A 
ATOM      9  C   UNL     1       0.673   5.382   1.082  0.00  0.00    +0.002 A 
ATOM     10  C   UNL     1       1.188   6.059  -0.009  0.00  0.00    +0.002 A 
ATOM     11  C   UNL     1       1.644   5.361  -1.099  0.00  0.00    +0.025 A 
ATOM     12  C   UNL     1       1.582   3.978  -1.100  0.00  0.00    +0.053 A 
ATOM     13  N   UNL     1       1.967   3.216  -2.198  0.00  0.00    -0.316 N 
ATOM     14  C   UNL     1      -0.014   1.209   0.009  0.00  0.00    +0.218 C 
ATOM     15  O   UNL     1       0.002  -0.004   0.002  0.00  0.00    -0.276 OA
ATOM     16  C   UNL     1      -1.330   1.944   0.019  0.00  0.00    +0.110 C 
ATOM     17  C   UNL     1       4.310   0.502  -1.394  0.00  0.00    +0.163 C 
ATOM     18  O   UNL     1       4.494  -0.324  -0.522  0.00  0.00    -0.292 OA
ATOM     19  C   UNL     1       5.243   0.535  -2.566  0.00  0.00    +0.088 C 
ATOM     20  H   UNL     1       1.371   3.370  -3.110  0.00  0.00    +0.152 HD
ENDROOT
BRANCH   1  25
ATOM     21  C   UNL     1       8.101   1.637  -8.255  0.00  0.00    +0.044 C 
ATOM     22  C   UNL     1       7.159   1.497  -7.087  0.00  0.00    -0.050 A 
ATOM     23  C   UNL     1       6.028   0.712  -7.202  0.00  0.00    +0.003 A 
ATOM     24  C   UNL     1       5.164   0.583  -6.131  0.00  0.00    +0.004 A 
ATOM     25  C   UNL     1       5.431   1.240  -4.944  0.00  0.00    -0.043 A 
ATOM     26  C   UNL     1       6.560   2.030  -4.831  0.00  0.00    +0.004 A 
ATOM     27  C   UNL     1       7.426   2.155  -5.901  0.00  0.00    +0.003 A 
ENDBRANCH   1  25
BRANCH   5  28
ATOM     28  C   UNL     1       3.215   1.613   1.177  0.00  0.00    +0.130 A 
ATOM     29  C   UNL     1       3.962   0.808   1.954  0.00  0.00    +0.047 A 
ATOM     30  C   UNL     1       4.551   1.627   2.945  0.00  0.00    +0.041 A 
ATOM     31  C   UNL     1       4.123   2.882   2.719  0.00  0.00    +0.195 A 
ATOM     32  O   UNL     1       3.314   2.868   1.647  0.00  0.00    -0.466 OA
ENDBRANCH   5  28
TORSDOF 2
