REMARK  Name = ZINC65537200
REMARK  2 active torsions:
REMARK  status: ('A' for Active; 'I' for Inactive)
REMARK    1  A    between atoms: C_8  and  S_10
REMARK    2  A    between atoms: S_10  and  C_11
REMARK                            x       y       z     vdW  Elec       q    Type
REMARK                         _______ _______ _______ _____ _____    ______ ____
ROOT
ATOM      1  C   UNL     1       4.821  -4.277  -0.068  0.00  0.00    +0.198 A 
ATOM      2  N   UNL     1       5.483  -5.427  -0.086  0.00  0.00    -0.206 NA
ATOM      3  C   UNL     1       6.804  -5.478  -0.100  0.00  0.00    +0.129 A 
ATOM      4  C   UNL     1       7.547  -4.265  -0.095  0.00  0.00    +0.047 A 
ATOM      5  C   UNL     1       8.986  -4.058  -0.108  0.00  0.00    +0.021 A 
ATOM      6  C   UNL     1       9.468  -2.807  -0.100  0.00  0.00    +0.048 A 
ATOM      7  S   UNL     1       8.000  -1.795  -0.075  0.00  0.00    -0.077 S 
ATOM      8  C   UNL     1       6.778  -3.081  -0.075  0.00  0.00    +0.114 A 
ATOM      9  N   UNL     1       5.460  -3.115  -0.068  0.00  0.00    -0.214 NA
ATOM     10  N   UNL     1       7.456  -6.697  -0.118  0.00  0.00    -0.343 N 
ATOM     11  H   UNL     1       6.944  -7.521  -0.121  0.00  0.00    +0.144 HD
ATOM     12  H   UNL     1       8.425  -6.728  -0.128  0.00  0.00    +0.144 HD
ENDROOT
BRANCH   1  13
ATOM     13  S   UNL     1       3.059  -4.293  -0.051  0.00  0.00    -0.023 S 
BRANCH  13  21
ATOM     14  C   UNL     1      -0.017   1.366   0.010  0.00  0.00    +0.002 A 
ATOM     15  C   UNL     1       1.156   2.107   0.002  0.00  0.00    +0.001 A 
ATOM     16  C   UNL     1       2.373   1.449  -0.013  0.00  0.00    +0.017 A 
ATOM     17  C   UNL     1       2.401   0.077  -0.020  0.00  0.00    +0.040 A 
ATOM     18  C   UNL     1       1.227  -0.710  -0.013  0.00  0.00    +0.079 A 
ATOM     19  C   UNL     1       0.002  -0.004   0.002  0.00  0.00    +0.029 A 
ATOM     20  N   UNL     1       1.419  -2.047  -0.023  0.00  0.00    -0.232 NA
ATOM     21  C   UNL     1       2.617  -2.588  -0.037  0.00  0.00    +0.143 A 
ATOM     22  S   UNL     1       3.683  -1.153  -0.040  0.00  0.00    -0.061 S 
ENDBRANCH  13  21
ENDBRANCH   1  13
TORSDOF 2
