REMARK  Name = ZINC09585697
REMARK  9 active torsions:
REMARK  status: ('A' for Active; 'I' for Inactive)
REMARK    1  A    between atoms: C_1  and  C_2
REMARK    2  A    between atoms: C_2  and  C_3
REMARK    3  A    between atoms: C_3  and  N_4
REMARK    4  A    between atoms: N_13  and  C_14
REMARK    5  A    between atoms: C_14  and  C_16
REMARK    6  A    between atoms: C_19  and  S_22
REMARK    7  A    between atoms: S_22  and  N_25
REMARK    8  A    between atoms: C_27  and  C_34
REMARK    9  A    between atoms: C_30  and  C_33
REMARK                            x       y       z     vdW  Elec       q    Type
REMARK                         _______ _______ _______ _____ _____    ______ ____
ROOT
ATOM      1  C   UNL     1       7.392   5.297   0.472  0.00  0.00    +0.269 C 
ATOM      2  O   UNL     1       6.475   6.036   0.787  0.00  0.00    -0.268 OA
ENDROOT
BRANCH   1  12
ATOM      3  N   UNL     1       5.441   2.347  -0.240  0.00  0.00    -0.321 N 
ATOM      4  C   UNL     1       4.088   2.062  -0.197  0.00  0.00    +0.061 A 
ATOM      5  C   UNL     1       3.444   0.852  -0.503  0.00  0.00    +0.076 A 
ATOM      6  C   UNL     1       2.073   0.734  -0.407  0.00  0.00    +0.168 A 
ATOM      7  C   UNL     1       1.292   1.816  -0.001  0.00  0.00    +0.167 A 
ATOM      8  C   UNL     1       1.906   3.019   0.307  0.00  0.00    +0.066 A 
ATOM      9  C   UNL     1       3.274   3.129   0.208  0.00  0.00    +0.043 A 
ATOM     10  S   UNL     1       4.434   4.441   0.497  0.00  0.00    -0.052 S 
ATOM     11  C   UNL     1       5.888   3.587   0.096  0.00  0.00    +0.167 A 
ATOM     12  N   UNL     1       7.139   4.035   0.111  0.00  0.00    -0.152 NA
ATOM     13  O   UNL     1      -0.018   1.436   0.010  0.00  0.00    -0.453 OA
ATOM     14  C   UNL     1       0.002  -0.004   0.002  0.00  0.00    +0.466 C 
ATOM     15  O   UNL     1       1.244  -0.327  -0.651  0.00  0.00    -0.453 OA
BRANCH   3  16
ATOM     16  C   UNL     1       6.394   1.311  -0.648  0.00  0.00    +0.124 C 
BRANCH  16  18
ATOM     17  C   UNL     1       7.588   0.290  -2.591  0.00  0.00    +0.005 C 
ATOM     18  C   UNL     1       6.593   1.371  -2.164  0.00  0.00    +0.018 C 
ENDBRANCH  16  18
ENDBRANCH   3  16
ENDBRANCH   1  12
BRANCH   1  19
ATOM     19  C   UNL     1       8.786   5.798   0.490  0.00  0.00    +0.039 A 
ATOM     20  C   UNL     1       9.838   4.953   0.136  0.00  0.00    +0.015 A 
ATOM     21  C   UNL     1      11.133   5.426   0.149  0.00  0.00    +0.029 A 
ATOM     22  C   UNL     1      11.392   6.733   0.524  0.00  0.00    +0.106 A 
ATOM     23  C   UNL     1      10.353   7.574   0.881  0.00  0.00    +0.029 A 
ATOM     24  C   UNL     1       9.053   7.114   0.867  0.00  0.00    +0.015 A 
BRANCH  22  25
ATOM     25  S   UNL     1      13.050   7.328   0.546  0.00  0.00    +0.061 S 
ATOM     26  O   UNL     1      13.787   6.511  -0.354  0.00  0.00    -0.153 OA
ATOM     27  O   UNL     1      12.977   8.740   0.406  0.00  0.00    -0.153 OA
BRANCH  25  28
ATOM     28  N   UNL     1      13.656   7.032   2.058  0.00  0.00    -0.176 NA
ATOM     29  C   UNL     1      13.524   8.033   3.126  0.00  0.00    +0.112 C 
ATOM     30  C   UNL     1      12.869   7.364   4.344  0.00  0.00    +0.002 C 
ATOM     31  C   UNL     1      13.681   6.128   4.738  0.00  0.00    +0.009 C 
ATOM     32  C   UNL     1      13.682   5.126   3.581  0.00  0.00    +0.002 C 
ATOM     33  C   UNL     1      14.341   5.767   2.356  0.00  0.00    +0.112 C 
ATOM     34  C   UNL     1      12.242   4.737   3.241  0.00  0.00    +0.009 C 
ATOM     35  C   UNL     1      12.842   8.351   5.513  0.00  0.00    +0.009 C 
ENDBRANCH  25  28
ENDBRANCH  22  25
ENDBRANCH   1  19
TORSDOF 6
