REMARK  Name = ZINC63472948
REMARK  3 active torsions:
REMARK  status: ('A' for Active; 'I' for Inactive)
REMARK    1  A    between atoms: C_7  and  C_10
REMARK    2  A    between atoms: C_10  and  C_11
REMARK    3  A    between atoms: N_19  and  C_22
REMARK                            x       y       z     vdW  Elec       q    Type
REMARK                         _______ _______ _______ _____ _____    ______ ____
ROOT
ATOM      1  C   UNL     1       0.457  -3.653  -1.462  0.00  0.00    +0.072 C 
ATOM      2  C   UNL     1      -0.435  -4.913  -1.478  0.00  0.00    +0.107 C 
ATOM      3  C   UNL     1      -1.355  -4.735  -2.719  0.00  0.00    +0.122 C 
ATOM      4  C   UNL     1      -2.735  -4.609  -2.113  0.00  0.00    +0.228 C 
ATOM      5  O   UNL     1      -3.763  -4.461  -2.738  0.00  0.00    -0.275 OA
ATOM      6  N   UNL     1      -2.645  -4.688  -0.780  0.00  0.00    -0.238 N 
ATOM      7  C   UNL     1      -1.390  -4.864  -0.307  0.00  0.00    +0.227 C 
ATOM      8  O   UNL     1      -1.074  -4.965   0.859  0.00  0.00    -0.275 OA
ATOM      9  C   UNL     1      -0.921  -3.398  -3.331  0.00  0.00    +0.136 C 
ATOM     10  N   UNL     1      -0.310  -2.630  -2.221  0.00  0.00    -0.295 NA
ATOM     11  C   UNL     1      -2.086  -2.657  -3.923  0.00  0.00    +0.005 A 
ATOM     12  C   UNL     1      -3.269  -2.180  -3.405  0.00  0.00    +0.027 A 
ATOM     13  C   UNL     1      -4.168  -1.520  -4.225  0.00  0.00    +0.041 A 
ATOM     14  C   UNL     1      -3.875  -1.342  -5.566  0.00  0.00    +0.022 A 
ATOM     15  C   UNL     1      -2.691  -1.817  -6.088  0.00  0.00    +0.025 A 
ATOM     16  C   UNL     1      -1.780  -2.482  -5.270  0.00  0.00    +0.039 A 
ATOM     17  N   UNL     1      -0.534  -3.045  -5.560  0.00  0.00    -0.283 N 
ATOM     18  C   UNL     1       0.035  -3.603  -4.474  0.00  0.00    +0.243 C 
ATOM     19  O   UNL     1       1.111  -4.161  -4.427  0.00  0.00    -0.273 OA
ATOM     20 CL   UNL     1      -5.661  -0.919  -3.573  0.00  0.00    -0.084 Cl
ATOM     21  H   UNL     1      -1.012  -2.198  -1.638  0.00  0.00    +0.124 HD
ATOM     22  H   UNL     1      -0.128  -3.035  -6.440  0.00  0.00    +0.155 HD
ENDROOT
BRANCH   6  23
ATOM     23  C   UNL     1      -3.813  -4.598   0.099  0.00  0.00    +0.084 C 
ATOM     24  C   UNL     1      -3.648  -3.406   1.044  0.00  0.00    +0.023 C 
ATOM     25  C   UNL     1      -4.868  -3.312   1.963  0.00  0.00    +0.002 C 
ATOM     26  C   UNL     1      -4.991  -4.599   2.781  0.00  0.00    +0.000 C 
ATOM     27  C   UNL     1      -5.156  -5.790   1.836  0.00  0.00    +0.002 C 
ATOM     28  C   UNL     1      -3.936  -5.885   0.917  0.00  0.00    +0.023 C 
ENDBRANCH   6  23
BRANCH   1  29
ATOM     29  C   UNL     1       0.691  -3.186  -0.024  0.00  0.00    +0.052 C 
BRANCH  29  36
ATOM     30  C   UNL     1      -0.016   1.348   0.009  0.00  0.00    +0.001 A 
ATOM     31  C   UNL     1       1.166   2.101   0.002  0.00  0.00    +0.002 A 
ATOM     32  C   UNL     1       2.391   1.535  -0.013  0.00  0.00    +0.026 A 
ATOM     33  C   UNL     1       2.529   0.120  -0.022  0.00  0.00    +0.043 A 
ATOM     34  N   UNL     1       3.587  -0.654  -0.037  0.00  0.00    -0.380 N 
ATOM     35  C   UNL     1       3.143  -2.053  -0.041  0.00  0.00    +0.144 C 
ATOM     36  C   UNL     1       1.631  -2.008  -0.025  0.00  0.00    -0.040 C 
ATOM     37  C   UNL     1       1.295  -0.698  -0.014  0.00  0.00    -0.001 A 
ATOM     38  C   UNL     1       0.002  -0.004   0.002  0.00  0.00    +0.010 A 
ATOM     39  H   UNL     1       4.509  -0.353  -0.045  0.00  0.00    +0.160 HD
ENDBRANCH  29  36
ENDBRANCH   1  29
TORSDOF 3
