REMARK  Name = ZINC09119916
REMARK  11 active torsions:
REMARK  status: ('A' for Active; 'I' for Inactive)
REMARK    1  A    between atoms: C_1  and  C_2
REMARK    2  A    between atoms: C_2  and  C_3
REMARK    3  A    between atoms: C_3  and  C_4
REMARK    4  A    between atoms: C_4  and  C_33
REMARK    5  A    between atoms: N_7  and  C_11
REMARK    6  A    between atoms: C_11  and  C_12
REMARK    7  A    between atoms: N_14  and  C_15
REMARK    8  A    between atoms: C_20  and  C_21
REMARK    9  A    between atoms: N_23  and  C_24
REMARK   10  A    between atoms: C_24  and  C_26
REMARK   11  A    between atoms: C_24  and  C_27
REMARK                            x       y       z     vdW  Elec       q    Type
REMARK                         _______ _______ _______ _____ _____    ______ ____
ROOT
ATOM      1  C   UNL     1       1.902   3.765   1.418  0.00  0.00    +0.235 C 
ATOM      2  O   UNL     1       1.658   3.011   2.337  0.00  0.00    -0.274 OA
ATOM      3  N   UNL     1       2.305   5.026   1.670  0.00  0.00    -0.284 N 
ATOM      4  H   UNL     1       2.563   5.608   0.939  0.00  0.00    +0.155 HD
ENDROOT
BRANCH   3   5
ATOM      5  C   UNL     1       2.352   5.493   2.982  0.00  0.00    +0.046 A 
ATOM      6  C   UNL     1       2.709   4.637   4.015  0.00  0.00    +0.024 A 
ATOM      7  C   UNL     1       2.755   5.102   5.314  0.00  0.00    +0.002 A 
ATOM      8  C   UNL     1       2.446   6.423   5.597  0.00  0.00    +0.001 A 
ATOM      9  C   UNL     1       2.089   7.287   4.584  0.00  0.00    +0.015 A 
ATOM     10  C   UNL     1       2.043   6.832   3.264  0.00  0.00    +0.058 A 
BRANCH  10  11
ATOM     11  C   UNL     1       1.667   7.753   2.175  0.00  0.00    +0.246 C 
ATOM     12  O   UNL     1       1.529   7.331   1.043  0.00  0.00    -0.270 OA
ATOM     13  N   UNL     1       1.477   9.061   2.434  0.00  0.00    -0.305 N 
ATOM     14  H   UNL     1       1.587   9.398   3.337  0.00  0.00    +0.150 HD
BRANCH  13  15
ATOM     15  C   UNL     1       1.103   9.976   1.352  0.00  0.00    +0.100 C 
ATOM     16  C   UNL     1       2.365  10.453   0.629  0.00  0.00    +0.033 C 
BRANCH  15  17
ATOM     17  C   UNL     1       0.374  11.163   1.927  0.00  0.00    -0.027 A 
ATOM     18  C   UNL     1       0.796  11.723   3.118  0.00  0.00    +0.005 A 
ATOM     19  C   UNL     1       0.130  12.815   3.643  0.00  0.00    +0.000 A 
ATOM     20  C   UNL     1      -0.964  13.340   2.981  0.00  0.00    +0.000 A 
ATOM     21  C   UNL     1      -1.389  12.777   1.792  0.00  0.00    +0.000 A 
ATOM     22  C   UNL     1      -0.720  11.688   1.265  0.00  0.00    +0.005 A 
ENDBRANCH  15  17
ENDBRANCH  13  15
ENDBRANCH  10  11
ENDBRANCH   3   5
BRANCH   1  23
ATOM     23  C   UNL     1       1.754   3.291  -0.005  0.00  0.00    +0.214 C 
BRANCH  23  27
ATOM     24  C   UNL     1       0.034  -0.001  -0.024  0.00  0.00    +0.138 C 
ATOM     25  C   UNL     1       0.015   1.515  -0.018  0.00  0.00    +0.251 C 
ATOM     26  O   UNL     1      -0.961   2.235  -0.023  0.00  0.00    -0.272 OA
ATOM     27  N   UNL     1       1.308   1.896  -0.011  0.00  0.00    -0.215 N 
ATOM     28  C   UNL     1       2.132   0.843  -0.013  0.00  0.00    +0.310 C 
ATOM     29  O   UNL     1       3.345   0.933  -0.008  0.00  0.00    -0.252 OA
ATOM     30  N   UNL     1       1.470  -0.329  -0.020  0.00  0.00    -0.281 N 
ATOM     31  H   UNL     1       1.863  -1.216  -0.022  0.00  0.00    +0.152 HD
BRANCH  24  32
ATOM     32  C   UNL     1      -0.631  -0.534  -1.266  0.00  0.00    -0.015 A 
ATOM     33  C   UNL     1      -1.985  -0.814  -1.259  0.00  0.00    +0.006 A 
ATOM     34  C   UNL     1      -2.596  -1.299  -2.400  0.00  0.00    +0.000 A 
ATOM     35  C   UNL     1      -1.852  -1.514  -3.545  0.00  0.00    +0.000 A 
ATOM     36  C   UNL     1      -0.497  -1.239  -3.550  0.00  0.00    +0.000 A 
ATOM     37  C   UNL     1       0.113  -0.750  -2.411  0.00  0.00    +0.006 A 
ENDBRANCH  24  32
BRANCH  24  38
ATOM     38  C   UNL     1      -0.647  -0.553   1.230  0.00  0.00    +0.040 C 
BRANCH  38  40
ATOM     39  C   UNL     1      -0.602  -0.591   3.727  0.00  0.00    +0.004 C 
ATOM     40  C   UNL     1       0.080  -0.039   2.474  0.00  0.00    -0.000 C 
ENDBRANCH  38  40
ENDBRANCH  24  38
ENDBRANCH  23  27
ENDBRANCH   1  23
TORSDOF 9
