REMARK  Name = ZINC20535298
REMARK  10 active torsions:
REMARK  status: ('A' for Active; 'I' for Inactive)
REMARK    1  A    between atoms: C_1  and  C_2
REMARK    2  A    between atoms: C_2  and  C_3
REMARK    3  A    between atoms: C_3  and  C_4
REMARK    4  A    between atoms: C_4  and  C_5
REMARK    5  A    between atoms: C_9  and  C_11
REMARK    6  A    between atoms: C_11  and  N_12
REMARK    7  A    between atoms: C_16  and  C_19
REMARK    8  A    between atoms: N_21  and  C_22
REMARK    9  A    between atoms: C_27  and  O_28
REMARK   10  A    between atoms: O_28  and  C_29
REMARK                            x       y       z     vdW  Elec       q    Type
REMARK                         _______ _______ _______ _____ _____    ______ ____
ROOT
ATOM      1  N   UNL     1      -9.506   5.770   0.085  0.00  0.00    -0.296 NA
ATOM      2  C   UNL     1      -9.634   5.067  -1.197  0.00  0.00    +0.085 C 
ATOM      3  C   UNL     1      -8.579   3.962  -1.282  0.00  0.00    +0.016 C 
ATOM      4  C   UNL     1      -7.185   4.583  -1.157  0.00  0.00    +0.015 C 
ATOM      5  C   UNL     1      -7.094   5.350   0.165  0.00  0.00    +0.089 C 
ATOM      6  C   UNL     1      -8.192   6.415   0.208  0.00  0.00    +0.097 C 
ENDROOT
BRANCH   5   7
ATOM      7  C   UNL     1      -5.745   6.014   0.269  0.00  0.00    +0.222 C 
ATOM      8  O   UNL     1      -5.669   7.221   0.368  0.00  0.00    -0.275 OA
ATOM      9  N   UNL     1      -4.623   5.268   0.252  0.00  0.00    -0.282 N 
ATOM     10  H   UNL     1      -4.693   4.170   0.228  0.00  0.00    +0.155 HD
BRANCH   9  11
ATOM     11  C   UNL     1      -3.368   5.889   0.266  0.00  0.00    +0.076 A 
ATOM     12  C   UNL     1      -3.184   7.071   0.968  0.00  0.00    +0.027 A 
ATOM     13  C   UNL     1      -1.945   7.682   0.980  0.00  0.00    +0.002 A 
ATOM     14  C   UNL     1      -0.885   7.119   0.293  0.00  0.00    +0.004 A 
ATOM     15  C   UNL     1      -1.058   5.937  -0.404  0.00  0.00    +0.048 A 
ATOM     16  C   UNL     1      -2.300   5.321  -0.426  0.00  0.00    +0.150 A 
BRANCH  16  17
ATOM     17  O   UNL     1      -2.473   4.163  -1.116  0.00  0.00    -0.453 OA
BRANCH  17  18
ATOM     18  C   UNL     1      -1.378   3.579  -1.669  0.00  0.00    +0.147 A 
ATOM     19  C   UNL     1      -0.382   3.040  -0.860  0.00  0.00    +0.049 A 
ATOM     20  C   UNL     1       0.719   2.460  -1.469  0.00  0.00    +0.023 A 
ATOM     21  C   UNL     1       0.786   2.426  -2.850  0.00  0.00    +0.111 A 
ATOM     22  N   UNL     1      -0.178   2.941  -3.587  0.00  0.00    -0.260 NA
ATOM     23  C   UNL     1      -1.239   3.506  -3.047  0.00  0.00    +0.156 A 
ENDBRANCH  17  18
ENDBRANCH  16  17
ENDBRANCH   9  11
ENDBRANCH   5   7
BRANCH   1  24
ATOM     24  C   UNL     1     -10.590   6.746   0.261  0.00  0.00    +0.139 C 
BRANCH  24  29
ATOM     25  C   UNL     1     -13.737   5.023  -0.180  0.00  0.00    +0.084 A 
ATOM     26  N   UNL     1     -13.679   5.033   1.169  0.00  0.00    -0.350 N 
ATOM     27  H   UNL     1     -14.490   4.578   1.758  0.00  0.00    +0.166 HD
ATOM     28  C   UNL     1     -12.518   5.666   1.520  0.00  0.00    +0.106 A 
ATOM     29  C   UNL     1     -11.905   6.021   0.374  0.00  0.00    +0.047 A 
ATOM     30  N   UNL     1     -12.675   5.620  -0.648  0.00  0.00    -0.346 N 
ATOM     31  H   UNL     1     -12.536   5.722  -1.735  0.00  0.00    +0.167 HD
BRANCH  25  32
ATOM     32  C   UNL     1     -14.846   4.426  -1.007  0.00  0.00    +0.072 C 
BRANCH  32  33
ATOM     33  C   UNL     1     -15.397   5.487  -1.962  0.00  0.00    +0.007 C 
BRANCH  33  35
ATOM     34  C   UNL     1     -17.075   5.942  -3.757  0.00  0.00    +0.004 C 
ATOM     35  C   UNL     1     -16.523   4.882  -2.802  0.00  0.00    -0.003 C 
ENDBRANCH  33  35
ENDBRANCH  32  33
ENDBRANCH  25  32
ENDBRANCH  24  29
ENDBRANCH   1  24
TORSDOF 9
