REMARK  Name = ZINC59146892
REMARK  10 active torsions:
REMARK  status: ('A' for Active; 'I' for Inactive)
REMARK    1  A    between atoms: C_1  and  C_2
REMARK    2  A    between atoms: C_7  and  S_8
REMARK    3  A    between atoms: S_8  and  C_9
REMARK    4  A    between atoms: C_9  and  C_10
REMARK    5  A    between atoms: N_12  and  N_13
REMARK    6  A    between atoms: C_14  and  C_15
REMARK    7  A    between atoms: C_16  and  C_30
REMARK    8  A    between atoms: N_18  and  C_21
REMARK    9  A    between atoms: C_19  and  C_20
REMARK   10  A    between atoms: C_25  and  N_27
REMARK                            x       y       z     vdW  Elec       q    Type
REMARK                         _______ _______ _______ _____ _____    ______ ____
ROOT
ATOM      1  C   UNL     1       0.034  -0.908  10.129  0.00  0.00    +0.038 A 
ATOM      2  C   UNL     1       0.183   0.464  10.426  0.00  0.00    +0.069 A 
ATOM      3  N   UNL     1       0.234   0.596  11.724  0.00  0.00    -0.171 NA
ATOM      4  N   UNL     1       0.121  -0.669  12.312  0.00  0.00    -0.236 N 
ATOM      5  C   UNL     1      -0.006  -1.585  11.329  0.00  0.00    +0.051 A 
ATOM      6  C   UNL     1      -0.161  -3.073  11.510  0.00  0.00    +0.066 C 
ATOM      7  C   UNL     1       0.270   1.582   9.419  0.00  0.00    +0.068 C 
ENDROOT
BRANCH   4   8
ATOM      8  C   UNL     1       0.134  -0.938  13.688  0.00  0.00    +0.068 A 
ATOM      9  C   UNL     1       0.846  -2.024  14.178  0.00  0.00    +0.028 A 
ATOM     10  C   UNL     1       0.856  -2.287  15.534  0.00  0.00    +0.004 A 
ATOM     11  C   UNL     1       0.157  -1.469  16.403  0.00  0.00    +0.033 A 
ATOM     12  C   UNL     1      -0.554  -0.387  15.918  0.00  0.00    +0.128 A 
ATOM     13  C   UNL     1      -0.562  -0.116  14.563  0.00  0.00    +0.060 A 
BRANCH  12  14
ATOM     14  N   UNL     1      -1.301   0.485  16.852  0.00  0.00    +0.056 N 
ATOM     15  O   UNL     1      -1.289   0.252  18.038  0.00  0.00    -0.126 OA
ATOM     16  O   UNL     1      -1.923   1.432  16.428  0.00  0.00    -0.126 OA
ENDBRANCH  12  14
ENDBRANCH   4   8
BRANCH   1  18
ATOM     17  N   UNL     1      -0.014  -0.749   7.731  0.00  0.00    -0.188 NA
ATOM     18  C   UNL     1      -0.067  -1.506   8.784  0.00  0.00    +0.142 C 
BRANCH  17  21
ATOM     19  C   UNL     1      -0.054  -0.530   5.361  0.00  0.00    +0.242 C 
ATOM     20  O   UNL     1       0.078   0.670   5.484  0.00  0.00    -0.273 OA
ATOM     21  N   UNL     1      -0.109  -1.317   6.454  0.00  0.00    -0.206 N 
ATOM     22  H   UNL     1      -0.215  -2.276   6.357  0.00  0.00    +0.177 HD
BRANCH  19  23
ATOM     23  C   UNL     1      -0.157  -1.141   3.987  0.00  0.00    +0.171 C 
BRANCH  23  24
ATOM     24  S   UNL     1      -0.050   0.167   2.735  0.00  0.00    -0.116 S 
BRANCH  24  31
ATOM     25  C   UNL     1       0.021   1.501   0.010  0.00  0.00    +0.045 C 
ATOM     26  C   UNL     1      -0.141   0.003   0.005  0.00  0.00    -0.037 A 
ATOM     27  C   UNL     1      -0.241  -0.678  -1.193  0.00  0.00    +0.004 A 
ATOM     28  C   UNL     1      -0.390  -2.053  -1.198  0.00  0.00    +0.000 A 
ATOM     29  C   UNL     1      -0.438  -2.751  -0.006  0.00  0.00    +0.001 A 
ATOM     30  C   UNL     1      -0.339  -2.078   1.195  0.00  0.00    +0.015 A 
ATOM     31  C   UNL     1      -0.184  -0.696   1.205  0.00  0.00    +0.011 A 
ENDBRANCH  24  31
ENDBRANCH  23  24
ENDBRANCH  19  23
ENDBRANCH  17  21
ENDBRANCH   1  18
TORSDOF 7
