REMARK  Name = ZINC13955599
REMARK  7 active torsions:
REMARK  status: ('A' for Active; 'I' for Inactive)
REMARK    1  A    between atoms: C_1  and  C_2
REMARK    2  A    between atoms: C_3  and  C_12
REMARK    3  A    between atoms: N_22  and  C_23
REMARK    4  A    between atoms: C_23  and  C_24
REMARK    5  A    between atoms: C_24  and  C_25
REMARK    6  A    between atoms: N_27  and  N_28
REMARK    7  A    between atoms: C_29  and  C_31
REMARK                            x       y       z     vdW  Elec       q    Type
REMARK                         _______ _______ _______ _____ _____    ______ ____
ROOT
ATOM      1  C   UNL     1      -0.890  -0.655  -0.105  0.00  0.00    +0.140 C 
ATOM      2  C   UNL     1       0.278   0.294  -0.005  0.00  0.00    -0.010 A 
ATOM      3  C   UNL     1       0.378   1.666   0.029  0.00  0.00    +0.006 A 
ATOM      4  C   UNL     1       1.622   2.267   0.127  0.00  0.00    +0.000 A 
ATOM      5  C   UNL     1       2.766   1.491   0.192  0.00  0.00    +0.001 A 
ATOM      6  C   UNL     1       2.677   0.115   0.157  0.00  0.00    +0.013 A 
ATOM      7  C   UNL     1       1.427  -0.498   0.058  0.00  0.00    +0.042 A 
ATOM      8  C   UNL     1       1.016  -1.914   0.001  0.00  0.00    +0.248 C 
ATOM      9  O   UNL     1       1.778  -2.861   0.035  0.00  0.00    -0.270 OA
ATOM     10  N   UNL     1      -0.322  -2.008  -0.093  0.00  0.00    -0.286 N 
ENDROOT
BRANCH   1  13
ATOM     11  C   UNL     1      -3.680   0.677  -0.376  0.00  0.00    +0.063 C 
ATOM     12  C   UNL     1      -2.846   0.156  -1.517  0.00  0.00    +0.019 A 
ATOM     13  C   UNL     1      -1.640  -0.419  -1.391  0.00  0.00    +0.005 A 
ATOM     14  C   UNL     1      -1.194  -0.780  -2.738  0.00  0.00    +0.005 A 
ATOM     15  C   UNL     1      -0.051  -1.398  -3.249  0.00  0.00    +0.010 A 
ATOM     16  C   UNL     1       0.068  -1.598  -4.596  0.00  0.00    +0.001 A 
ATOM     17  C   UNL     1      -0.939  -1.192  -5.460  0.00  0.00    +0.002 A 
ATOM     18  C   UNL     1      -2.075  -0.581  -4.978  0.00  0.00    +0.026 A 
ATOM     19  C   UNL     1      -2.217  -0.367  -3.610  0.00  0.00    +0.047 A 
ATOM     20  N   UNL     1      -3.205   0.201  -2.837  0.00  0.00    -0.358 N 
ATOM     21  H   UNL     1      -4.033   0.574  -3.177  0.00  0.00    +0.166 HD
ENDBRANCH   1  13
BRANCH  10  22
ATOM     22  C   UNL     1      -1.087  -3.255  -0.171  0.00  0.00    +0.118 C 
BRANCH  22  23
ATOM     23  C   UNL     1      -1.128  -3.738  -1.622  0.00  0.00    +0.116 C 
BRANCH  23  24
ATOM     24  C   UNL     1      -1.794  -5.088  -1.684  0.00  0.00    +0.231 C 
ATOM     25  O   UNL     1      -2.197  -5.612  -0.667  0.00  0.00    -0.274 OA
ATOM     26  N   UNL     1      -1.943  -5.712  -2.869  0.00  0.00    -0.234 N 
ATOM     27  H   UNL     1      -1.621  -5.293  -3.682  0.00  0.00    +0.173 HD
BRANCH  26  28
ATOM     28  N   UNL     1      -2.563  -6.967  -2.926  0.00  0.00    -0.230 N 
ATOM     29  C   UNL     1      -2.712  -7.592  -4.111  0.00  0.00    +0.260 C 
ATOM     30  O   UNL     1      -2.308  -7.067  -5.130  0.00  0.00    -0.269 OA
ATOM     31  H   UNL     1      -2.885  -7.387  -2.113  0.00  0.00    +0.173 HD
BRANCH  29  32
ATOM     32  C   UNL     1      -3.366  -8.916  -4.171  0.00  0.00    +0.038 A 
ATOM     33  C   UNL     1      -3.826  -9.525  -3.002  0.00  0.00    +0.013 A 
ATOM     34  C   UNL     1      -4.440 -10.759  -3.066  0.00  0.00    +0.001 A 
ATOM     35  C   UNL     1      -4.591 -11.398  -4.285  0.00  0.00    +0.000 A 
ATOM     36  C   UNL     1      -4.133 -10.802  -5.446  0.00  0.00    +0.001 A 
ATOM     37  C   UNL     1      -3.522  -9.566  -5.397  0.00  0.00    +0.013 A 
ENDBRANCH  29  32
ENDBRANCH  26  28
ENDBRANCH  23  24
ENDBRANCH  22  23
ENDBRANCH  10  22
TORSDOF 6
