REMARK  Name = ZINC08871903
REMARK  7 active torsions:
REMARK  status: ('A' for Active; 'I' for Inactive)
REMARK    1  A    between atoms: C_9  and  O_32
REMARK    2  A    between atoms: C_10  and  C_11
REMARK    3  A    between atoms: C_13  and  N_18
REMARK    4  A    between atoms: C_16  and  O_17
REMARK    5  A    between atoms: N_18  and  S_19
REMARK    6  A    between atoms: S_19  and  C_22
REMARK    7  A    between atoms: C_26  and  N_28
REMARK                            x       y       z     vdW  Elec       q    Type
REMARK                         _______ _______ _______ _____ _____    ______ ____
ROOT
ATOM      1  C   UNL     1      -1.042  -3.225  -4.318  0.00  0.00    +0.029 A 
ATOM      2  C   UNL     1      -1.811  -2.509  -3.402  0.00  0.00    +0.036 A 
ATOM      3  C   UNL     1      -1.188  -1.744  -2.428  0.00  0.00    +0.049 A 
ATOM      4  C   UNL     1       0.199  -1.686  -2.368  0.00  0.00    +0.028 A 
ATOM      5  C   UNL     1       0.965  -2.399  -3.271  0.00  0.00    +0.048 A 
ATOM      6  C   UNL     1       0.354  -3.167  -4.248  0.00  0.00    +0.125 A 
ENDROOT
BRANCH   1  16
ATOM      7  C   UNL     1      -2.670  -2.417  -9.095  0.00  0.00    +0.001 A 
ATOM      8  C   UNL     1      -2.051  -1.627  -8.128  0.00  0.00    +0.001 A 
ATOM      9  C   UNL     1      -1.728  -2.139  -6.908  0.00  0.00    +0.009 A 
ATOM     10  C   UNL     1      -2.022  -3.479  -6.617  0.00  0.00    -0.007 A 
ATOM     11  C   UNL     1      -2.652  -4.283  -7.599  0.00  0.00    -0.017 A 
ATOM     12  C   UNL     1      -2.970  -3.721  -8.847  0.00  0.00    +0.008 A 
ATOM     13  C   UNL     1      -2.947  -5.627  -7.311  0.00  0.00    +0.012 A 
ATOM     14  C   UNL     1      -2.630  -6.152  -6.096  0.00  0.00    +0.046 A 
ATOM     15  C   UNL     1      -2.005  -5.377  -5.117  0.00  0.00    +0.125 A 
ATOM     16  C   UNL     1      -1.701  -4.044  -5.360  0.00  0.00    +0.035 A 
BRANCH  15  17
ATOM     17  O   UNL     1      -1.697  -5.931  -3.916  0.00  0.00    -0.506 OA
ATOM     18  H   UNL     1      -2.398  -5.853  -3.255  0.00  0.00    +0.292 HD
ENDBRANCH  15  17
ENDBRANCH   1  16
BRANCH   6  19
ATOM     19  O   UNL     1       1.109  -3.863  -5.139  0.00  0.00    -0.506 OA
ATOM     20  H   UNL     1       1.326  -3.369  -5.942  0.00  0.00    +0.292 HD
ENDBRANCH   6  19
BRANCH   3  21
ATOM     21  N   UNL     1      -1.957  -1.024  -1.507  0.00  0.00    -0.216 N 
ATOM     22  H   UNL     1      -2.034  -0.060  -1.587  0.00  0.00    +0.174 HD
BRANCH  21  23
ATOM     23  S   UNL     1      -2.737  -1.817  -0.280  0.00  0.00    +0.072 S 
ATOM     24  O   UNL     1      -3.458  -2.885  -0.880  0.00  0.00    -0.150 OA
ATOM     25  O   UNL     1      -3.370  -0.820   0.510  0.00  0.00    -0.150 OA
BRANCH  23  26
ATOM     26  C   UNL     1      -1.498  -2.553   0.735  0.00  0.00    +0.111 A 
ATOM     27  C   UNL     1      -1.133  -3.871   0.533  0.00  0.00    +0.030 A 
ATOM     28  C   UNL     1      -0.162  -4.448   1.328  0.00  0.00    +0.024 A 
ATOM     29  C   UNL     1       0.446  -3.707   2.326  0.00  0.00    +0.071 A 
ATOM     30  C   UNL     1       0.080  -2.388   2.527  0.00  0.00    +0.146 A 
ATOM     31  C   UNL     1      -0.892  -1.812   1.731  0.00  0.00    +0.063 A 
ATOM     32 CL   UNL     1       1.665  -4.432   3.326  0.00  0.00    -0.081 Cl
BRANCH  30  33
ATOM     33  N   UNL     1       0.730  -1.595   3.594  0.00  0.00    +0.058 N 
ATOM     34  O   UNL     1       0.408  -0.433   3.771  0.00  0.00    -0.126 OA
ATOM     35  O   UNL     1       1.586  -2.103   4.296  0.00  0.00    -0.126 OA
ENDBRANCH  30  33
ENDBRANCH  23  26
ENDBRANCH  21  23
ENDBRANCH   3  21
TORSDOF 7
