REMARK  Name = ZINC38653191
REMARK  11 active torsions:
REMARK  status: ('A' for Active; 'I' for Inactive)
REMARK    1  A    between atoms: C_1  and  C_2
REMARK    2  A    between atoms: C_2  and  C_3
REMARK    3  A    between atoms: C_3  and  C_4
REMARK    4  A    between atoms: C_4  and  O_5
REMARK    5  A    between atoms: O_5  and  C_6
REMARK    6  A    between atoms: C_11  and  C_12
REMARK    7  A    between atoms: C_12  and  O_14
REMARK    8  A    between atoms: O_14  and  C_15
REMARK    9  A    between atoms: C_22  and  N_35
REMARK   10  A    between atoms: C_23  and  C_33
REMARK   11  A    between atoms: C_24  and  C_26
REMARK                            x       y       z     vdW  Elec       q    Type
REMARK                         _______ _______ _______ _____ _____    ______ ____
ROOT
ATOM      1  C   UNL     1      -7.621  -3.208   0.025  0.00  0.00    +0.135 A 
ATOM      2  C   UNL     1      -7.321  -1.855  -0.048  0.00  0.00    +0.047 A 
ATOM      3  C   UNL     1      -8.338  -0.922  -0.067  0.00  0.00    +0.012 A 
ATOM      4  C   UNL     1      -9.660  -1.330  -0.014  0.00  0.00    +0.008 A 
ATOM      5  C   UNL     1      -9.965  -2.680   0.059  0.00  0.00    +0.138 A 
ATOM      6  C   UNL     1      -8.943  -3.620   0.072  0.00  0.00    +0.093 A 
ATOM      7  O   UNL     1     -11.254  -3.099   0.112  0.00  0.00    -0.441 OA
ATOM      8  C   UNL     1     -12.223  -2.244   0.478  0.00  0.00    +0.199 C 
ATOM      9  C   UNL     1     -12.049  -0.902   0.431  0.00  0.00    +0.098 C 
ATOM     10  C   UNL     1     -10.755  -0.297  -0.036  0.00  0.00    +0.098 C 
ENDROOT
BRANCH  10  11
ATOM     11  C   UNL     1     -10.925   0.220  -1.441  0.00  0.00    -0.034 A 
ATOM     12  C   UNL     1     -11.267  -0.648  -2.461  0.00  0.00    +0.007 A 
ATOM     13  C   UNL     1     -11.424  -0.175  -3.749  0.00  0.00    +0.038 A 
ATOM     14  C   UNL     1     -11.237   1.170  -4.020  0.00  0.00    +0.123 A 
ATOM     15  C   UNL     1     -10.893   2.039  -2.998  0.00  0.00    +0.038 A 
ATOM     16  C   UNL     1     -10.743   1.564  -1.709  0.00  0.00    +0.007 A 
ATOM     17  F   UNL     1     -11.389   1.634  -5.279  0.00  0.00    -0.205 F 
ENDBRANCH  10  11
BRANCH   8  18
ATOM     18  N   UNL     1     -13.425  -2.745   0.912  0.00  0.00    -0.328 N 
ATOM     19  H   UNL     1     -13.564  -3.704   0.951  0.00  0.00    +0.145 HD
ATOM     20  H   UNL     1     -14.134  -2.140   1.180  0.00  0.00    +0.145 HD
ENDBRANCH   8  18
BRANCH   9  21
ATOM     21  C   UNL     1     -13.120  -0.041   0.835  0.00  0.00    +0.101 C 
ATOM     22  N   UNL     1     -13.970   0.641   1.155  0.00  0.00    -0.191 NA
ENDBRANCH   9  21
BRANCH   1  23
ATOM     23  O   UNL     1      -6.620  -4.127   0.044  0.00  0.00    -0.422 OA
BRANCH  23  24
ATOM     24  C   UNL     1      -6.362  -4.804  -1.093  0.00  0.00    +0.348 C 
ATOM     25  O   UNL     1      -7.072  -4.650  -2.067  0.00  0.00    -0.244 OA
BRANCH  24  31
ATOM     26  C   UNL     1      -4.946  -6.439  -2.333  0.00  0.00    +0.134 A 
ATOM     27  C   UNL     1      -3.863  -7.304  -2.381  0.00  0.00    +0.046 A 
ATOM     28  C   UNL     1      -3.062  -7.473  -1.270  0.00  0.00    +0.004 A 
ATOM     29  C   UNL     1      -3.331  -6.780  -0.100  0.00  0.00    +0.001 A 
ATOM     30  C   UNL     1      -4.402  -5.917  -0.034  0.00  0.00    +0.018 A 
ATOM     31  C   UNL     1      -5.218  -5.732  -1.154  0.00  0.00    +0.101 A 
BRANCH  26  32
ATOM     32  O   UNL     1      -5.734  -6.272  -3.425  0.00  0.00    -0.491 OA
BRANCH  32  33
ATOM     33  C   UNL     1      -5.395  -7.026  -4.591  0.00  0.00    +0.229 C 
BRANCH  33  34
ATOM     34  C   UNL     1      -6.389  -6.709  -5.710  0.00  0.00    +0.041 C 
BRANCH  34  36
ATOM     35  C   UNL     1      -7.020  -7.199  -8.077  0.00  0.00    +0.004 C 
ATOM     36  C   UNL     1      -6.026  -7.516  -6.958  0.00  0.00    -0.000 C 
ENDBRANCH  34  36
ENDBRANCH  33  34
ENDBRANCH  32  33
ENDBRANCH  26  32
ENDBRANCH  24  31
ENDBRANCH  23  24
ENDBRANCH   1  23
TORSDOF 10
