REMARK  Name = ZINC12465992
REMARK  5 active torsions:
REMARK  status: ('A' for Active; 'I' for Inactive)
REMARK    1  A    between atoms: C_1  and  O_2
REMARK    2  A    between atoms: O_2  and  C_3
REMARK    3  A    between atoms: C_16  and  N_18
REMARK    4  A    between atoms: N_21  and  C_24
REMARK    5  A    between atoms: C_24  and  C_25
REMARK                            x       y       z     vdW  Elec       q    Type
REMARK                         _______ _______ _______ _____ _____    ______ ____
ROOT
ATOM      1  C   UNL     1      -1.255  -1.214   1.834  0.00  0.00    +0.167 C 
ATOM      2  C   UNL     1      -1.280  -0.648   3.091  0.00  0.00    +0.049 C 
ATOM      3  C   UNL     1      -0.626  -1.259   4.153  0.00  0.00    +0.004 C 
ATOM      4  C   UNL     1       0.058  -2.438   3.969  0.00  0.00    +0.015 C 
ATOM      5  C   UNL     1       0.099  -3.035   2.703  0.00  0.00    +0.065 C 
ATOM      6  C   UNL     1       0.829  -4.296   2.502  0.00  0.00    +0.135 C 
ATOM      7  N   UNL     1       0.855  -4.831   1.301  0.00  0.00    -0.231 NA
ATOM      8  C   UNL     1       1.509  -5.981   1.070  0.00  0.00    +0.076 A 
ATOM      9  C   UNL     1       1.544  -6.559  -0.205  0.00  0.00    +0.028 A 
ATOM     10  C   UNL     1       2.219  -7.728  -0.400  0.00  0.00    +0.002 A 
ATOM     11  C   UNL     1       2.877  -8.360   0.651  0.00  0.00    +0.001 A 
ATOM     12  C   UNL     1       2.864  -7.825   1.907  0.00  0.00    +0.013 A 
ATOM     13  C   UNL     1       2.180  -6.626   2.140  0.00  0.00    +0.036 A 
ATOM     14  C   UNL     1       2.139  -6.034   3.423  0.00  0.00    +0.101 C 
ATOM     15  N   UNL     1       1.463  -4.871   3.570  0.00  0.00    -0.287 N 
ATOM     16  C   UNL     1      -0.569  -2.421   1.624  0.00  0.00    +0.231 C 
ATOM     17  O   UNL     1      -0.545  -2.979   0.411  0.00  0.00    -0.283 OA
ATOM     18  H   UNL     1       1.423  -4.444   4.440  0.00  0.00    +0.155 HD
ENDROOT
BRANCH  14  19
ATOM     19  N   UNL     1       2.767  -6.614   4.480  0.00  0.00    -0.315 N 
ATOM     20  C   UNL     1       3.455  -5.797   5.491  0.00  0.00    +0.121 C 
ATOM     21  C   UNL     1       2.962  -6.220   6.878  0.00  0.00    +0.103 C 
ATOM     22  N   UNL     1       3.130  -7.671   7.033  0.00  0.00    -0.295 NA
ATOM     23  C   UNL     1       2.308  -8.409   6.064  0.00  0.00    +0.103 C 
ATOM     24  C   UNL     1       2.770  -8.075   4.647  0.00  0.00    +0.121 C 
BRANCH  22  25
ATOM     25  C   UNL     1       2.830  -8.093   8.408  0.00  0.00    +0.119 C 
BRANCH  25  26
ATOM     26  C   UNL     1       3.246  -9.529   8.595  0.00  0.00    -0.033 A 
ATOM     27  C   UNL     1       2.351 -10.548   8.327  0.00  0.00    +0.005 A 
ATOM     28  C   UNL     1       2.732 -11.866   8.499  0.00  0.00    +0.000 A 
ATOM     29  C   UNL     1       4.009 -12.164   8.938  0.00  0.00    +0.000 A 
ATOM     30  C   UNL     1       4.904 -11.145   9.204  0.00  0.00    +0.000 A 
ATOM     31  C   UNL     1       4.524  -9.828   9.028  0.00  0.00    +0.005 A 
ENDBRANCH  25  26
ENDBRANCH  22  25
ENDBRANCH  14  19
BRANCH   1  33
ATOM     32  C   UNL     1      -2.576   0.617   1.087  0.00  0.00    +0.277 C 
ATOM     33  O   UNL     1      -1.899  -0.608   0.800  0.00  0.00    -0.491 OA
ENDBRANCH   1  33
TORSDOF 4
