REMARK  Name = ZINC48361334
REMARK  5 active torsions:
REMARK  status: ('A' for Active; 'I' for Inactive)
REMARK    1  A    between atoms: C_6  and  C_7
REMARK    2  A    between atoms: C_7  and  N_8
REMARK    3  A    between atoms: N_8  and  S_9
REMARK    4  A    between atoms: S_9  and  C_12
REMARK    5  A    between atoms: C_17  and  N_18
REMARK                            x       y       z     vdW  Elec       q    Type
REMARK                         _______ _______ _______ _____ _____    ______ ____
ROOT
ATOM      1  S   UNL     1      -2.835  -2.266  -1.732  0.00  0.00    +0.060 S 
ATOM      2  O   UNL     1      -3.036  -2.426  -3.129  0.00  0.00    -0.153 OA
ATOM      3  O   UNL     1      -2.366  -3.322  -0.903  0.00  0.00    -0.153 OA
ENDROOT
BRANCH   1   4
ATOM      4  C   UNL     1      -4.377  -1.744  -1.058  0.00  0.00    +0.127 A 
ATOM      5  C   UNL     1      -4.902  -2.387   0.046  0.00  0.00    +0.045 A 
ATOM      6  C   UNL     1      -6.113  -1.978   0.575  0.00  0.00    +0.020 A 
ATOM      7  C   UNL     1      -6.801  -0.923   0.002  0.00  0.00    +0.017 A 
ATOM      8  C   UNL     1      -6.280  -0.276  -1.102  0.00  0.00    +0.026 A 
ATOM      9  C   UNL     1      -5.062  -0.681  -1.632  0.00  0.00    +0.051 A 
ATOM     10 BR   UNL     1      -6.830  -2.862   2.086  0.00  0.00    -0.050 Br
BRANCH   9  11
ATOM     11  N   UNL     1      -4.530  -0.025  -2.745  0.00  0.00    -0.356 N 
ATOM     12  H   UNL     1      -3.641  -0.250  -3.062  0.00  0.00    +0.142 HD
ATOM     13  H   UNL     1      -5.049   0.656  -3.200  0.00  0.00    +0.142 HD
ENDBRANCH   9  11
ENDBRANCH   1   4
BRANCH   1  14
ATOM     14  N   UNL     1      -1.769  -1.012  -1.547  0.00  0.00    -0.186 NA
ATOM     15  H   UNL     1      -1.405  -0.567  -2.328  0.00  0.00    +0.148 HD
BRANCH  14  16
ATOM     16  C   UNL     1      -1.378  -0.575  -0.205  0.00  0.00    +0.141 C 
BRANCH  16  22
ATOM     17  C   UNL     1      -0.282   1.662  -0.453  0.00  0.00    +0.006 A 
ATOM     18  C   UNL     1       0.843   2.460  -0.539  0.00  0.00    +0.015 A 
ATOM     19  C   UNL     1       2.102   1.890  -0.469  0.00  0.00    +0.018 A 
ATOM     20  C   UNL     1       2.233   0.521  -0.313  0.00  0.00    +0.015 A 
ATOM     21  C   UNL     1       1.107  -0.276  -0.228  0.00  0.00    +0.006 A 
ATOM     22  C   UNL     1      -0.150   0.295  -0.298  0.00  0.00    -0.032 A 
ATOM     23 BR   UNL     1       3.642   2.981  -0.586  0.00  0.00    -0.050 Br
ENDBRANCH  16  22
ENDBRANCH  14  16
ENDBRANCH   1  14
TORSDOF 5
