REMARK  Name = ZINC09292893
REMARK  10 active torsions:
REMARK  status: ('A' for Active; 'I' for Inactive)
REMARK    1  A    between atoms: C_1  and  C_2
REMARK    2  A    between atoms: C_2  and  O_3
REMARK    3  A    between atoms: O_3  and  C_4
REMARK    4  A    between atoms: C_7  and  C_12
REMARK    5  A    between atoms: C_9  and  O_10
REMARK    6  A    between atoms: O_10  and  C_11
REMARK    7  A    between atoms: C_19  and  N_35
REMARK    8  A    between atoms: C_20  and  C_33
REMARK    9  A    between atoms: C_21  and  C_23
REMARK   10  A    between atoms: C_26  and  C_29
REMARK                            x       y       z     vdW  Elec       q    Type
REMARK                         _______ _______ _______ _____ _____    ______ ____
ROOT
ATOM      1  C   UNL     1      -1.994  -6.077  -0.012  0.00  0.00    +0.100 A 
ATOM      2  C   UNL     1      -1.169  -6.998  -0.665  0.00  0.00    +0.054 A 
ATOM      3  C   UNL     1      -1.661  -8.249  -0.428  0.00  0.00    +0.223 A 
ATOM      4  N   UNL     1      -2.758  -8.118   0.346  0.00  0.00    -0.246 N 
ATOM      5  H   UNL     1      -3.316  -8.842   0.672  0.00  0.00    +0.192 HD
ATOM      6  N   UNL     1      -2.948  -6.751   0.602  0.00  0.00    -0.171 NA
ATOM      7  O   UNL     1      -1.080  -9.370  -0.923  0.00  0.00    -0.423 OA
ATOM      8  C   UNL     1       0.161  -9.256  -1.437  0.00  0.00    +0.200 C 
ATOM      9  C   UNL     1       0.750  -8.074  -1.726  0.00  0.00    +0.098 C 
ATOM     10  C   UNL     1       0.060  -6.751  -1.501  0.00  0.00    +0.102 C 
ENDROOT
BRANCH   1  14
ATOM     11  C   UNL     1      -1.498  -1.849   0.006  0.00  0.00    +0.162 A 
ATOM     12  C   UNL     1      -0.387  -2.678  -0.003  0.00  0.00    +0.050 A 
ATOM     13  C   UNL     1      -0.545  -4.049  -0.009  0.00  0.00    +0.014 A 
ATOM     14  C   UNL     1      -1.823  -4.603  -0.005  0.00  0.00    +0.006 A 
ATOM     15  C   UNL     1      -2.941  -3.771   0.004  0.00  0.00    +0.059 A 
ATOM     16  C   UNL     1      -2.778  -2.398   0.016  0.00  0.00    +0.162 A 
BRANCH  16  17
ATOM     17  O   UNL     1      -3.867  -1.583   0.030  0.00  0.00    -0.491 OA
ATOM     18  C   UNL     1      -5.149  -2.215   0.039  0.00  0.00    +0.277 C 
ENDBRANCH  16  17
BRANCH  11  19
ATOM     19  O   UNL     1      -1.339  -0.499   0.012  0.00  0.00    -0.489 OA
BRANCH  19  21
ATOM     20  C   UNL     1      -0.019   1.526   0.010  0.00  0.00    +0.048 C 
ATOM     21  C   UNL     1       0.002  -0.004   0.002  0.00  0.00    +0.226 C 
ENDBRANCH  19  21
ENDBRANCH  11  19
ENDBRANCH   1  14
BRANCH  10  22
ATOM     22  C   UNL     1      -0.338  -6.154  -2.826  0.00  0.00    -0.035 A 
ATOM     23  C   UNL     1      -1.184  -6.848  -3.671  0.00  0.00    +0.005 A 
ATOM     24  C   UNL     1      -1.549  -6.300  -4.886  0.00  0.00    +0.012 A 
ATOM     25  C   UNL     1      -1.069  -5.058  -5.257  0.00  0.00    +0.055 A 
ATOM     26  C   UNL     1      -0.223  -4.364  -4.412  0.00  0.00    +0.012 A 
ATOM     27  C   UNL     1       0.139  -4.910  -3.194  0.00  0.00    +0.005 A 
BRANCH  25  28
ATOM     28  C   UNL     1      -1.466  -4.461  -6.582  0.00  0.00    +0.417 C 
ATOM     29  F   UNL     1      -2.631  -3.703  -6.422  0.00  0.00    -0.166 F 
ATOM     30  F   UNL     1      -0.435  -3.639  -7.051  0.00  0.00    -0.166 F 
ATOM     31  F   UNL     1      -1.700  -5.487  -7.504  0.00  0.00    -0.166 F 
ENDBRANCH  25  28
ENDBRANCH  10  22
BRANCH   8  32
ATOM     32  N   UNL     1       0.869 -10.407  -1.680  0.00  0.00    -0.328 N 
ATOM     33  H   UNL     1       0.473 -11.270  -1.483  0.00  0.00    +0.145 HD
ATOM     34  H   UNL     1       1.764 -10.357  -2.049  0.00  0.00    +0.145 HD
ENDBRANCH   8  32
BRANCH   9  35
ATOM     35  C   UNL     1       2.077  -8.077  -2.264  0.00  0.00    +0.101 C 
ATOM     36  N   UNL     1       3.129  -8.080  -2.692  0.00  0.00    -0.191 NA
ENDBRANCH   9  35
TORSDOF 8
