REMARK  Name = ZINC01897172
REMARK  7 active torsions:
REMARK  status: ('A' for Active; 'I' for Inactive)
REMARK    1  A    between atoms: C_3  and  C_9
REMARK    2  A    between atoms: N_10  and  N_11
REMARK    3  A    between atoms: C_12  and  C_14
REMARK    4  A    between atoms: C_14  and  S_15
REMARK    5  A    between atoms: S_15  and  C_16
REMARK    6  A    between atoms: C_19  and  C_28
REMARK    7  A    between atoms: N_20  and  C_21
REMARK                            x       y       z     vdW  Elec       q    Type
REMARK                         _______ _______ _______ _____ _____    ______ ____
ROOT
ATOM      1  C   UNL     1      11.276   2.230  -0.096  0.00  0.00    +0.197 A 
ATOM      2  N   UNL     1      11.282   3.544  -0.083  0.00  0.00    -0.122 NA
ATOM      3  N   UNL     1      12.490   3.982  -0.095  0.00  0.00    -0.128 NA
ATOM      4  C   UNL     1      13.332   2.975  -0.115  0.00  0.00    +0.169 A 
ATOM      5  N   UNL     1      12.582   1.820  -0.110  0.00  0.00    -0.270 N 
ENDROOT
BRANCH   5   6
ATOM      6  C   UNL     1      13.056   0.501  -0.122  0.00  0.00    +0.051 A 
ATOM      7  C   UNL     1      13.774   0.011   0.961  0.00  0.00    +0.028 A 
ATOM      8  C   UNL     1      14.240  -1.289   0.947  0.00  0.00    +0.022 A 
ATOM      9  C   UNL     1      13.991  -2.103  -0.144  0.00  0.00    +0.041 A 
ATOM     10  C   UNL     1      13.276  -1.617  -1.224  0.00  0.00    +0.022 A 
ATOM     11  C   UNL     1      12.803  -0.320  -1.213  0.00  0.00    +0.028 A 
ATOM     12 CL   UNL     1      14.578  -3.737  -0.157  0.00  0.00    -0.084 Cl
ENDBRANCH   5   6
BRANCH   4  13
ATOM     13  C   UNL     1      14.807   3.065  -0.134  0.00  0.00    +0.020 A 
ATOM     14  C   UNL     1      15.573   1.948  -0.473  0.00  0.00    +0.013 A 
ATOM     15  C   UNL     1      16.949   2.037  -0.489  0.00  0.00    +0.021 A 
ATOM     16  C   UNL     1      17.572   3.232  -0.170  0.00  0.00    +0.041 A 
ATOM     17  C   UNL     1      16.818   4.343   0.168  0.00  0.00    +0.021 A 
ATOM     18  C   UNL     1      15.441   4.268   0.182  0.00  0.00    +0.013 A 
ATOM     19 CL   UNL     1      19.305   3.337  -0.192  0.00  0.00    -0.084 Cl
ENDBRANCH   4  13
BRANCH   1  20
ATOM     20  S   UNL     1       9.854   1.190  -0.087  0.00  0.00    -0.076 S 
BRANCH  20  21
ATOM     21  C   UNL     1       8.461   2.352  -0.068  0.00  0.00    +0.174 C 
BRANCH  21  23
ATOM     22  N   UNL     1       5.990   2.242  -0.044  0.00  0.00    -0.206 N 
ATOM     23  C   UNL     1       7.165   1.583  -0.059  0.00  0.00    +0.242 C 
ATOM     24  O   UNL     1       7.180   0.370  -0.065  0.00  0.00    -0.273 OA
ATOM     25  H   UNL     1       5.978   3.212  -0.039  0.00  0.00    +0.177 HD
BRANCH  22  27
ATOM     26  C   UNL     1       3.654   2.162  -0.022  0.00  0.00    +0.139 C 
ATOM     27  N   UNL     1       4.785   1.527  -0.036  0.00  0.00    -0.188 NA
BRANCH  26  30
ATOM     28  C   UNL     1      -0.017   1.379   0.010  0.00  0.00    +0.002 A 
ATOM     29  C   UNL     1       1.166   2.089   0.002  0.00  0.00    +0.011 A 
ATOM     30  C   UNL     1       2.386   1.409  -0.013  0.00  0.00    +0.014 A 
ATOM     31  C   UNL     1       2.399   0.011  -0.021  0.00  0.00    +0.068 A 
ATOM     32  C   UNL     1       1.207  -0.687  -0.013  0.00  0.00    +0.060 A 
ATOM     33  C   UNL     1       0.002  -0.004   0.002  0.00  0.00    +0.021 A 
ATOM     34 CL   UNL     1       1.219  -2.423  -0.023  0.00  0.00    -0.082 Cl
ATOM     35 CL   UNL     1       3.909  -0.845  -0.041  0.00  0.00    -0.081 Cl
ENDBRANCH  26  30
ENDBRANCH  22  27
ENDBRANCH  21  23
ENDBRANCH  20  21
ENDBRANCH   1  20
TORSDOF 7
