REMARK  Name = ZINC35931260
REMARK  13 active torsions:
REMARK  status: ('A' for Active; 'I' for Inactive)
REMARK    1  A    between atoms: C_1  and  C_2
REMARK    2  A    between atoms: C_2  and  C_3
REMARK    3  A    between atoms: C_2  and  C_4
REMARK    4  A    between atoms: C_2  and  C_5
REMARK    5  A    between atoms: C_8  and  C_11
REMARK    6  A    between atoms: N_13  and  C_14
REMARK    7  A    between atoms: N_13  and  C_35
REMARK    8  A    between atoms: C_14  and  C_15
REMARK    9  A    between atoms: N_18  and  C_20
REMARK   10  A    between atoms: C_25  and  O_26
REMARK   11  A    between atoms: O_26  and  C_27
REMARK   12  A    between atoms: N_30  and  C_32
REMARK   13  A    between atoms: C_32  and  C_33
REMARK                            x       y       z     vdW  Elec       q    Type
REMARK                         _______ _______ _______ _____ _____    ______ ____
ROOT
ATOM      1  C   UNL     1       3.462  -2.589  -6.690  0.00  0.00    +0.082 A 
ATOM      2  C   UNL     1       2.335  -2.832  -7.469  0.00  0.00    -0.018 A 
ATOM      3  C   UNL     1       2.323  -1.925  -8.483  0.00  0.00    +0.045 A 
ATOM      4  N   UNL     1       3.401  -1.137  -8.345  0.00  0.00    -0.233 N 
ATOM      5  N   UNL     1       4.104  -1.569  -7.209  0.00  0.00    -0.169 NA
ATOM      6  C   UNL     1       1.246  -1.889  -9.539  0.00  0.00    +0.037 C 
ATOM      7  C   UNL     1       0.483  -3.220  -9.470  0.00  0.00    -0.072 C 
ATOM      8  N   UNL     1       0.093  -3.496  -8.081  0.00  0.00    +0.385 N 
ATOM      9  C   UNL     1       1.271  -3.885  -7.289  0.00  0.00    -0.039 C 
ATOM     10  H   UNL     1      -0.322  -2.669  -7.679  0.00  0.00    -0.081 HD
ENDROOT
BRANCH   4  11
ATOM     11  C   UNL     1       3.759  -0.070  -9.183  0.00  0.00    +0.107 A 
ATOM     12  C   UNL     1       2.811   0.874  -9.550  0.00  0.00    +0.031 A 
ATOM     13  C   UNL     1       3.166   1.923 -10.376  0.00  0.00    +0.002 A 
ATOM     14  C   UNL     1       4.464   2.036 -10.838  0.00  0.00    +0.004 A 
ATOM     15  C   UNL     1       5.414   1.100 -10.476  0.00  0.00    +0.048 A 
ATOM     16  C   UNL     1       5.068   0.047  -9.644  0.00  0.00    +0.145 A 
BRANCH  16  17
ATOM     17  O   UNL     1       6.003  -0.872  -9.282  0.00  0.00    -0.493 OA
ATOM     18  C   UNL     1       7.324  -0.688  -9.793  0.00  0.00    +0.277 C 
ENDBRANCH  16  17
ENDBRANCH   4  11
BRANCH   1  19
ATOM     19  C   UNL     1       3.870  -3.360  -5.462  0.00  0.00    +0.165 C 
BRANCH  19  22
ATOM     20  C   UNL     1       2.533  -3.882  -3.493  0.00  0.00    +0.247 C 
ATOM     21  O   UNL     1       1.876  -3.542  -2.529  0.00  0.00    -0.270 OA
ATOM     22  N   UNL     1       3.035  -2.952  -4.329  0.00  0.00    -0.289 N 
BRANCH  20  26
ATOM     23  C   UNL     1       3.246  -8.005  -4.227  0.00  0.00    -0.042 A 
ATOM     24  C   UNL     1       3.410  -7.494  -2.951  0.00  0.00    +0.005 A 
ATOM     25  C   UNL     1       3.180  -6.156  -2.706  0.00  0.00    +0.013 A 
ATOM     26  C   UNL     1       2.781  -5.317  -3.748  0.00  0.00    +0.037 A 
ATOM     27  C   UNL     1       2.618  -5.839  -5.032  0.00  0.00    +0.013 A 
ATOM     28  C   UNL     1       2.856  -7.178  -5.265  0.00  0.00    +0.005 A 
BRANCH  23  30
ATOM     29  C   UNL     1       4.593  -9.616  -5.545  0.00  0.00    +0.015 C 
ATOM     30  C   UNL     1       3.499  -9.468  -4.487  0.00  0.00    -0.013 C 
ATOM     31  C   UNL     1       2.212 -10.126  -4.989  0.00  0.00    +0.015 C 
ATOM     32  C   UNL     1       3.947 -10.146  -3.191  0.00  0.00    +0.015 C 
ENDBRANCH  23  30
ENDBRANCH  20  26
BRANCH  22  33
ATOM     33  C   UNL     1       2.745  -1.534  -4.106  0.00  0.00    +0.077 C 
ATOM     34  C   UNL     1       2.219  -1.129  -2.727  0.00  0.00    +0.024 C 
ATOM     35  C   UNL     1       1.279  -1.131  -3.935  0.00  0.00    +0.024 C 
ENDBRANCH  22  33
ENDBRANCH  19  22
ENDBRANCH   1  19
BRANCH   8  36
ATOM     36  C   UNL     1      -0.890  -4.588  -8.059  0.00  0.00    -0.051 C 
BRANCH  36  37
ATOM     37  C   UNL     1      -2.183  -4.112  -8.668  0.00  0.00    -0.053 C 
ATOM     38  C   UNL     1      -2.718  -4.769  -9.667  0.00  0.00    +0.002 C 
ENDBRANCH  36  37
ENDBRANCH   8  36
TORSDOF 9
