REMARK  Name = ZINC64871156
REMARK  4 active torsions:
REMARK  status: ('A' for Active; 'I' for Inactive)
REMARK    1  A    between atoms: C_3  and  C_8
REMARK    2  A    between atoms: C_11  and  C_15
REMARK    3  A    between atoms: N_25  and  C_28
REMARK    4  A    between atoms: C_28  and  C_29
REMARK                            x       y       z     vdW  Elec       q    Type
REMARK                         _______ _______ _______ _____ _____    ______ ____
ROOT
ATOM      1  C   UNL     1       6.637   2.131   2.043  0.00  0.00    -0.000 A 
ATOM      2  C   UNL     1       7.471   1.881   0.964  0.00  0.00    +0.008 A 
ATOM      3  C   UNL     1       8.833   1.763   1.146  0.00  0.00    +0.016 A 
ATOM      4  C   UNL     1       9.368   1.897   2.425  0.00  0.00    +0.063 A 
ATOM      5  C   UNL     1       8.521   2.151   3.519  0.00  0.00    +0.056 A 
ATOM      6  C   UNL     1       7.155   2.272   3.315  0.00  0.00    +0.034 A 
ATOM      7  N   UNL     1       9.082   2.281   4.781  0.00  0.00    -0.307 N 
ATOM      8  H   UNL     1       8.510   2.456   5.545  0.00  0.00    +0.170 HD
ATOM      9  C   UNL     1      10.410   2.166   4.956  0.00  0.00    +0.330 A 
ATOM     10  O   UNL     1      10.861   2.286   6.078  0.00  0.00    -0.246 OA
ATOM     11  N   UNL     1      11.258   1.924   3.945  0.00  0.00    -0.256 N 
ATOM     12  C   UNL     1      10.815   1.781   2.677  0.00  0.00    +0.265 A 
ATOM     13  O   UNL     1      11.591   1.562   1.766  0.00  0.00    -0.267 OA
ENDROOT
BRANCH   1  16
ATOM     14  C   UNL     1       3.672   2.183  -0.022  0.00  0.00    +0.180 C 
ATOM     15  N   UNL     1       4.726   1.420   0.679  0.00  0.00    -0.265 NA
ATOM     16  C   UNL     1       5.152   2.257   1.824  0.00  0.00    +0.242 C 
ATOM     17  O   UNL     1       4.810   3.608   1.439  0.00  0.00    -0.274 OA
ATOM     18  N   UNL     1       3.517   3.449   0.733  0.00  0.00    -0.177 NA
ATOM     19  H   UNL     1       4.377   0.527   0.995  0.00  0.00    +0.127 HD
ATOM     20  H   UNL     1       2.753   3.388   1.388  0.00  0.00    +0.156 HD
BRANCH  14  23
ATOM     21  C   UNL     1      -0.017   1.378   0.010  0.00  0.00    +0.001 A 
ATOM     22  C   UNL     1       1.171   2.086   0.002  0.00  0.00    +0.006 A 
ATOM     23  C   UNL     1       2.378   1.411  -0.013  0.00  0.00    -0.013 A 
ATOM     24  C   UNL     1       2.397   0.029  -0.022  0.00  0.00    +0.021 A 
ATOM     25  C   UNL     1       1.210  -0.679  -0.014  0.00  0.00    +0.018 A 
ATOM     26  C   UNL     1       0.002  -0.004   0.002  0.00  0.00    +0.015 A 
ATOM     27 BR   UNL     1       1.236  -2.570  -0.025  0.00  0.00    -0.050 Br
ENDBRANCH  14  23
ENDBRANCH   1  16
BRANCH  11  28
ATOM     28  C   UNL     1      12.693   1.813   4.221  0.00  0.00    +0.165 C 
BRANCH  28  29
ATOM     29  C   UNL     1      13.036   0.377   4.526  0.00  0.00    -0.027 A 
ATOM     30  C   UNL     1      12.978  -0.085   5.827  0.00  0.00    +0.008 A 
ATOM     31  C   UNL     1      13.292  -1.402   6.108  0.00  0.00    +0.038 A 
ATOM     32  C   UNL     1      13.664  -2.257   5.085  0.00  0.00    +0.123 A 
ATOM     33  C   UNL     1      13.722  -1.793   3.782  0.00  0.00    +0.038 A 
ATOM     34  C   UNL     1      13.402  -0.477   3.503  0.00  0.00    +0.008 A 
ATOM     35  F   UNL     1      13.972  -3.544   5.358  0.00  0.00    -0.205 F 
ENDBRANCH  28  29
ENDBRANCH  11  28
TORSDOF 4
