REMARK  Name = ZINC12702384
REMARK  9 active torsions:
REMARK  status: ('A' for Active; 'I' for Inactive)
REMARK    1  A    between atoms: C_3  and  C_6
REMARK    2  A    between atoms: C_6  and  N_7
REMARK    3  A    between atoms: N_7  and  C_8
REMARK    4  A    between atoms: C_8  and  C_10
REMARK    5  A    between atoms: C_8  and  C_17
REMARK    6  A    between atoms: N_19  and  C_20
REMARK    7  A    between atoms: C_25  and  C_27
REMARK    8  A    between atoms: C_28  and  N_35
REMARK    9  A    between atoms: C_29  and  C_32
REMARK                            x       y       z     vdW  Elec       q    Type
REMARK                         _______ _______ _______ _____ _____    ______ ____
ROOT
ATOM      1  N   UNL     1       2.554   4.564  -0.155  0.00  0.00    -0.274 N 
ATOM      2  C   UNL     1       2.911   5.864  -0.160  0.00  0.00    +0.258 C 
ATOM      3  O   UNL     1       2.056   6.730  -0.176  0.00  0.00    -0.269 OA
ENDROOT
BRANCH   2   4
ATOM      4  C   UNL     1       4.327   6.234  -0.146  0.00  0.00    +0.115 A 
ATOM      5  C   UNL     1       4.913   7.497  -0.253  0.00  0.00    +0.076 A 
ATOM      6  C   UNL     1       6.306   7.446  -0.193  0.00  0.00    +0.155 A 
ATOM      7  N   UNL     1       6.902   6.282  -0.061  0.00  0.00    -0.203 NA
ATOM      8  S   UNL     1       5.765   5.193   0.004  0.00  0.00    +0.019 S 
BRANCH   6   9
ATOM      9  C   UNL     1       7.101   8.684  -0.285  0.00  0.00    +0.262 C 
ATOM     10  O   UNL     1       6.543   9.758  -0.407  0.00  0.00    -0.269 OA
ATOM     11  N   UNL     1       8.447   8.627  -0.233  0.00  0.00    -0.324 N 
ATOM     12  H   UNL     1       8.892   7.771  -0.135  0.00  0.00    +0.145 HD
ATOM     13  H   UNL     1       8.970   9.441  -0.293  0.00  0.00    +0.145 HD
ENDBRANCH   6   9
BRANCH   5  14
ATOM     14  N   UNL     1       4.190   8.673  -0.398  0.00  0.00    -0.355 N 
ATOM     15  H   UNL     1       3.221   8.645  -0.431  0.00  0.00    +0.142 HD
ATOM     16  H   UNL     1       4.653   9.522  -0.468  0.00  0.00    +0.142 HD
ENDBRANCH   5  14
ENDBRANCH   2   4
BRANCH   1  17
ATOM     17  C   UNL     1       3.576   3.523  -0.292  0.00  0.00    +0.183 C 
BRANCH  17  20
ATOM     18  C   UNL     1       4.884   3.667  -3.735  0.00  0.00    +0.041 A 
ATOM     19  C   UNL     1       4.835   4.150  -2.407  0.00  0.00    +0.046 A 
ATOM     20  C   UNL     1       3.955   3.379  -1.744  0.00  0.00    +0.122 A 
ATOM     21  O   UNL     1       3.475   2.456  -2.593  0.00  0.00    -0.466 OA
ATOM     22  C   UNL     1       4.031   2.629  -3.803  0.00  0.00    +0.195 A 
ENDBRANCH  17  20
ENDBRANCH   1  17
BRANCH   1  23
ATOM     23  C   UNL     1       1.144   4.192  -0.013  0.00  0.00    +0.193 C 
BRANCH  23  24
ATOM     24  C   UNL     1       0.682   4.500   1.388  0.00  0.00    -0.018 A 
ATOM     25  C   UNL     1       1.496   4.201   2.465  0.00  0.00    +0.007 A 
ATOM     26  C   UNL     1       1.075   4.487   3.750  0.00  0.00    +0.020 A 
ATOM     27  C   UNL     1      -0.165   5.063   3.959  0.00  0.00    +0.041 A 
ATOM     28  C   UNL     1      -0.981   5.357   2.881  0.00  0.00    +0.020 A 
ATOM     29  C   UNL     1      -0.557   5.075   1.597  0.00  0.00    +0.007 A 
ATOM     30 CL   UNL     1      -0.697   5.418   5.573  0.00  0.00    -0.084 Cl
ENDBRANCH  23  24
BRANCH  23  31
ATOM     31  C   UNL     1       0.984   2.718  -0.283  0.00  0.00    +0.238 C 
ATOM     32  O   UNL     1       1.760   2.149  -1.021  0.00  0.00    -0.273 OA
ATOM     33  N   UNL     1      -0.022   2.033   0.295  0.00  0.00    -0.311 N 
ATOM     34  H   UNL     1      -0.646   2.489   0.882  0.00  0.00    +0.149 HD
BRANCH  33  35
ATOM     35  C   UNL     1      -0.178   0.600   0.033  0.00  0.00    +0.073 C 
ATOM     36  C   UNL     1      -1.045   0.384  -1.225  0.00  0.00    +0.022 C 
ATOM     37  C   UNL     1      -1.894  -0.868  -0.891  0.00  0.00    +0.002 C 
ATOM     38  C   UNL     1      -2.216  -0.672   0.611  0.00  0.00    +0.002 C 
ATOM     39  C   UNL     1      -0.923  -0.072   1.200  0.00  0.00    +0.022 C 
ENDBRANCH  33  35
ENDBRANCH  23  31
ENDBRANCH   1  23
TORSDOF 9
