REMARK  Name = ZINC06300473
REMARK  10 active torsions:
REMARK  status: ('A' for Active; 'I' for Inactive)
REMARK    1  A    between atoms: C_1  and  C_2
REMARK    2  A    between atoms: C_4  and  C_38
REMARK    3  A    between atoms: C_9  and  C_14
REMARK    4  A    between atoms: C_14  and  N_67
REMARK    5  A    between atoms: C_15  and  C_16
REMARK    6  A    between atoms: C_15  and  N_67
REMARK    7  A    between atoms: C_25  and  C_26
REMARK    8  A    between atoms: C_25  and  N_67
REMARK    9  A    between atoms: N_30  and  C_31
REMARK   10  A    between atoms: C_31  and  C_32
REMARK                            x       y       z     vdW  Elec       q    Type
REMARK                         _______ _______ _______ _____ _____    ______ ____
ROOT
ATOM      1  N   UNL     1       0.014  -0.320   1.276  0.00  0.00    +0.390 N 
ATOM      2  H   UNL     1      -0.783   0.009   1.833  0.00  0.00    -0.080 HD
ENDROOT
BRANCH   1   3
ATOM      3  C   UNL     1       0.090   0.472   0.031  0.00  0.00    -0.036 C 
BRANCH   3  12
ATOM      4  C   UNL     1       2.498   7.379   1.484  0.00  0.00    +0.044 C 
ATOM      5  C   UNL     1       1.376   6.388   1.305  0.00  0.00    -0.050 A 
ATOM      6  C   UNL     1       0.060   6.807   1.447  0.00  0.00    +0.008 A 
ATOM      7  C   UNL     1      -0.982   5.918   1.287  0.00  0.00    -0.026 A 
ATOM      8  C   UNL     1      -0.714   4.588   0.980  0.00  0.00    +0.052 A 
ATOM      9  C   UNL     1       0.622   4.168   0.837  0.00  0.00    -0.001 A 
ATOM     10  C   UNL     1       1.663   5.087   1.004  0.00  0.00    +0.013 A 
ATOM     11  C   UNL     1       0.894   2.766   0.514  0.00  0.00    +0.017 A 
ATOM     12  C   UNL     1      -0.155   1.921   0.364  0.00  0.00    +0.001 A 
ATOM     13  C   UNL     1      -1.476   2.394   0.513  0.00  0.00    +0.251 A 
ATOM     14  O   UNL     1      -2.405   1.618   0.369  0.00  0.00    -0.268 OA
ATOM     15  N   UNL     1      -1.736   3.678   0.816  0.00  0.00    -0.322 N 
ATOM     16  H   UNL     1      -2.656   3.969   0.915  0.00  0.00    +0.169 HD
ATOM     17  C   UNL     1      -2.406   6.386   1.444  0.00  0.00    +0.046 C 
ENDBRANCH   3  12
ENDBRANCH   1   3
BRANCH   1  18
ATOM     18  C   UNL     1       1.253  -0.145   2.062  0.00  0.00    -0.042 C 
BRANCH  18  19
ATOM     19  C   UNL     1       2.431  -0.734   1.330  0.00  0.00    -0.060 A 
ATOM     20  C   UNL     1       2.841  -2.025   1.608  0.00  0.00    +0.005 A 
ATOM     21  C   UNL     1       3.918  -2.571   0.935  0.00  0.00    +0.050 A 
ATOM     22  C   UNL     1       4.597  -1.822  -0.012  0.00  0.00    +0.166 A 
ATOM     23  C   UNL     1       4.187  -0.520  -0.288  0.00  0.00    +0.166 A 
ATOM     24  C   UNL     1       3.103   0.019   0.386  0.00  0.00    +0.051 A 
ATOM     25  O   UNL     1       5.007   0.001  -1.247  0.00  0.00    -0.453 OA
ATOM     26  C   UNL     1       5.665  -1.130  -1.847  0.00  0.00    +0.466 C 
ATOM     27  O   UNL     1       5.673  -2.116  -0.798  0.00  0.00    -0.453 OA
ENDBRANCH  18  19
ENDBRANCH   1  18
BRANCH   1  28
ATOM     28  C   UNL     1      -0.183  -1.750   0.955  0.00  0.00    +0.001 C 
BRANCH  28  29
ATOM     29  C   UNL     1      -0.646  -2.465   2.197  0.00  0.00    +0.135 A 
ATOM     30  N   UNL     1       0.114  -2.982   3.132  0.00  0.00    -0.115 NA
ATOM     31  N   UNL     1      -0.654  -3.503   4.026  0.00  0.00    -0.023 NA
ATOM     32  N   UNL     1      -1.884  -3.339   3.682  0.00  0.00    -0.044 NA
ATOM     33  N   UNL     1      -1.920  -2.704   2.560  0.00  0.00    -0.229 N 
BRANCH  33  34
ATOM     34  C   UNL     1      -3.123  -2.315   1.819  0.00  0.00    +0.178 C 
BRANCH  34  35
ATOM     35  C   UNL     1      -3.509  -3.434   0.850  0.00  0.00    +0.140 C 
ATOM     36  C   UNL     1      -4.706  -2.987  -0.017  0.00  0.00    +0.035 C 
ATOM     37  C   UNL     1      -5.553  -4.286  -0.104  0.00  0.00    +0.031 C 
ATOM     38  C   UNL     1      -5.288  -4.905   1.291  0.00  0.00    +0.160 C 
ATOM     39  O   UNL     1      -3.916  -4.594   1.585  0.00  0.00    -0.375 OA
ENDBRANCH  34  35
ENDBRANCH  33  34
ENDBRANCH  28  29
ENDBRANCH   1  28
TORSDOF 8
