REMARK  Name = ZINC11592071
REMARK  9 active torsions:
REMARK  status: ('A' for Active; 'I' for Inactive)
REMARK    1  A    between atoms: C_1  and  C_2
REMARK    2  A    between atoms: C_2  and  C_4
REMARK    3  A    between atoms: C_2  and  S_15
REMARK    4  A    between atoms: N_6  and  C_7
REMARK    5  A    between atoms: C_12  and  S_13
REMARK    6  A    between atoms: S_13  and  C_14
REMARK    7  A    between atoms: S_15  and  C_16
REMARK    8  A    between atoms: C_19  and  C_22
REMARK    9  A    between atoms: N_20  and  N_21
REMARK                            x       y       z     vdW  Elec       q    Type
REMARK                         _______ _______ _______ _____ _____    ______ ____
ROOT
ATOM      1  C   UNL     1      -5.319   0.465   1.226  0.00  0.00    +0.029 C 
ATOM      2  C   UNL     1      -4.886   0.006  -0.168  0.00  0.00    +0.137 C 
ENDROOT
BRANCH   2   3
ATOM      3  C   UNL     1      -3.575  -0.730  -0.070  0.00  0.00    +0.230 C 
ATOM      4  O   UNL     1      -3.558  -1.943  -0.076  0.00  0.00    -0.274 OA
ATOM      5  N   UNL     1      -2.421  -0.040   0.024  0.00  0.00    -0.284 N 
ATOM      6  H   UNL     1      -2.438   0.926   0.110  0.00  0.00    +0.155 HD
BRANCH   5   7
ATOM      7  C   UNL     1      -1.195  -0.719  -0.002  0.00  0.00    +0.047 A 
ATOM      8  C   UNL     1      -1.099  -1.959  -0.615  0.00  0.00    +0.024 A 
ATOM      9  C   UNL     1       0.111  -2.627  -0.640  0.00  0.00    +0.002 A 
ATOM     10  C   UNL     1       1.229  -2.062  -0.054  0.00  0.00    +0.001 A 
ATOM     11  C   UNL     1       1.145  -0.825   0.555  0.00  0.00    +0.016 A 
ATOM     12  C   UNL     1      -0.067  -0.150   0.590  0.00  0.00    +0.029 A 
BRANCH  12  13
ATOM     13  S   UNL     1      -0.179   1.425   1.372  0.00  0.00    -0.127 S 
ATOM     14  C   UNL     1       1.503   1.736   1.976  0.00  0.00    +0.090 C 
ENDBRANCH  12  13
ENDBRANCH   5   7
ENDBRANCH   2   3
BRANCH   2  15
ATOM     15  S   UNL     1      -6.146  -1.095  -0.858  0.00  0.00    -0.072 S 
BRANCH  15  16
ATOM     16  C   UNL     1      -7.493   0.032  -1.000  0.00  0.00    +0.209 A 
ATOM     17  N   UNL     1      -7.483   1.303  -0.668  0.00  0.00    -0.121 NA
ATOM     18  N   UNL     1      -8.632   1.830  -0.901  0.00  0.00    -0.126 NA
ATOM     19  C   UNL     1      -9.448   0.927  -1.397  0.00  0.00    +0.188 A 
ATOM     20  N   UNL     1      -8.741  -0.252  -1.481  0.00  0.00    -0.223 N 
BRANCH  19  21
ATOM     21  C   UNL     1     -10.850   1.137  -1.794  0.00  0.00    +0.058 A 
ATOM     22  C   UNL     1     -11.523   2.315  -1.999  0.00  0.00    +0.019 A 
ATOM     23  C   UNL     1     -12.846   2.262  -2.375  0.00  0.00    +0.008 A 
ATOM     24  C   UNL     1     -13.446   1.052  -2.521  0.00  0.00    +0.046 A 
ATOM     25  S   UNL     1     -12.118  -0.074  -2.127  0.00  0.00    -0.093 S 
ENDBRANCH  19  21
BRANCH  20  26
ATOM     26  N   UNL     1      -9.193  -1.455  -1.945  0.00  0.00    -0.295 N 
ATOM     27  H   UNL     1      -9.595  -2.002  -1.200  0.00  0.00    +0.163 HD
ATOM     28  H   UNL     1      -9.853  -1.327  -2.698  0.00  0.00    +0.163 HD
ENDBRANCH  20  26
ENDBRANCH  15  16
ENDBRANCH   2  15
TORSDOF 7
