REMARK  Name = ZINC64502507
REMARK  10 active torsions:
REMARK  status: ('A' for Active; 'I' for Inactive)
REMARK    1  A    between atoms: C_1  and  C_2
REMARK    2  A    between atoms: C_2  and  C_3
REMARK    3  A    between atoms: C_2  and  C_4
REMARK    4  A    between atoms: C_4  and  C_5
REMARK    5  A    between atoms: C_9  and  C_12
REMARK    6  A    between atoms: N_14  and  C_15
REMARK    7  A    between atoms: C_19  and  C_21
REMARK    8  A    between atoms: N_23  and  C_24
REMARK    9  A    between atoms: C_24  and  C_25
REMARK   10  A    between atoms: C_25  and  C_26
REMARK                            x       y       z     vdW  Elec       q    Type
REMARK                         _______ _______ _______ _____ _____    ______ ____
ROOT
ATOM      1  C   UNL     1      -4.278  -4.715  -4.864  0.00  0.00    +0.034 A 
ATOM      2  C   UNL     1      -3.198  -5.531  -4.550  0.00  0.00    +0.023 A 
ATOM      3  C   UNL     1      -3.226  -6.875  -4.868  0.00  0.00    +0.003 A 
ATOM      4  C   UNL     1      -4.327  -7.417  -5.500  0.00  0.00    +0.013 A 
ATOM      5  C   UNL     1      -5.417  -6.606  -5.819  0.00  0.00    +0.038 A 
ATOM      6  C   UNL     1      -5.391  -5.250  -5.493  0.00  0.00    +0.036 A 
ENDROOT
BRANCH   1   9
ATOM      7  C   UNL     1      -5.373  -2.723  -4.158  0.00  0.00    +0.254 C 
ATOM      8  O   UNL     1      -6.432  -3.313  -4.176  0.00  0.00    -0.272 OA
ATOM      9  N   UNL     1      -4.244  -3.353  -4.540  0.00  0.00    -0.283 N 
ATOM     10  H   UNL     1      -3.408  -2.864  -4.590  0.00  0.00    +0.155 HD
BRANCH   7  14
ATOM     11  C   UNL     1      -6.854   0.936  -4.086  0.00  0.00    +0.187 C 
ATOM     12  N   UNL     1      -5.747   0.616  -5.016  0.00  0.00    -0.177 NA
ATOM     13  N   UNL     1      -5.063  -0.374  -4.849  0.00  0.00    -0.167 NA
ATOM     14  C   UNL     1      -5.318  -1.286  -3.710  0.00  0.00    +0.272 C 
ATOM     15  S   UNL     1      -6.986  -0.676  -3.191  0.00  0.00    -0.095 S 
BRANCH  11  16
ATOM     16  C   UNL     1      -8.143   1.260  -4.844  0.00  0.00    +0.042 C 
BRANCH  16  18
ATOM     17  C   UNL     1      -8.911   2.846  -3.073  0.00  0.00    +0.007 C 
ATOM     18  C   UNL     1      -9.258   1.571  -3.844  0.00  0.00    -0.014 C 
ATOM     19  C   UNL     1     -10.576   1.772  -4.595  0.00  0.00    +0.007 C 
ENDBRANCH  16  18
ENDBRANCH  11  16
ENDBRANCH   7  14
ENDBRANCH   1   9
BRANCH   5  20
ATOM     20  C   UNL     1      -6.598  -7.183  -6.496  0.00  0.00    +0.244 C 
ATOM     21  O   UNL     1      -7.547  -6.474  -6.774  0.00  0.00    -0.270 OA
ATOM     22  N   UNL     1      -6.624  -8.494  -6.806  0.00  0.00    -0.311 N 
ATOM     23  H   UNL     1      -5.867  -9.059  -6.584  0.00  0.00    +0.149 HD
BRANCH  22  24
ATOM     24  C   UNL     1      -7.794  -9.066  -7.476  0.00  0.00    +0.109 C 
BRANCH  24  25
ATOM     25  C   UNL     1      -7.567 -10.561  -7.711  0.00  0.00    +0.052 C 
BRANCH  25  26
ATOM     26  C   UNL     1      -8.771 -11.149  -8.401  0.00  0.00    -0.040 C 
ATOM     27  C   UNL     1      -8.935 -11.339  -9.730  0.00  0.00    -0.001 A 
ATOM     28  C   UNL     1      -8.075 -11.064 -10.887  0.00  0.00    +0.010 A 
ATOM     29  C   UNL     1      -8.523 -11.370 -12.126  0.00  0.00    +0.001 A 
ATOM     30  C   UNL     1      -9.787 -11.941 -12.332  0.00  0.00    +0.002 A 
ATOM     31  C   UNL     1     -10.633 -12.223 -11.319  0.00  0.00    +0.026 A 
ATOM     32  C   UNL     1     -10.264 -11.943  -9.974  0.00  0.00    +0.043 A 
ATOM     33  N   UNL     1     -10.898 -12.120  -8.840  0.00  0.00    -0.380 N 
ATOM     34  C   UNL     1     -10.038 -11.653  -7.747  0.00  0.00    +0.144 C 
ATOM     35  H   UNL     1     -11.784 -12.500  -8.741  0.00  0.00    +0.160 HD
ENDBRANCH  25  26
ENDBRANCH  24  25
ENDBRANCH  22  24
ENDBRANCH   5  20
TORSDOF 8
