REMARK  Name = ZINC67164974
REMARK  13 active torsions:
REMARK  status: ('A' for Active; 'I' for Inactive)
REMARK    1  A    between atoms: C_1  and  C_2
REMARK    2  A    between atoms: N_8  and  C_9
REMARK    3  A    between atoms: C_9  and  C_10
REMARK    4  A    between atoms: C_15  and  C_16
REMARK    5  A    between atoms: C_16  and  N_17
REMARK    6  A    between atoms: C_18  and  C_20
REMARK    7  A    between atoms: C_20  and  C_22
REMARK    8  A    between atoms: C_20  and  N_23
REMARK    9  A    between atoms: C_24  and  O_26
REMARK   10  A    between atoms: O_26  and  C_27
REMARK   11  A    between atoms: C_27  and  C_28
REMARK   12  A    between atoms: C_27  and  C_29
REMARK   13  A    between atoms: C_27  and  C_30
REMARK                            x       y       z     vdW  Elec       q    Type
REMARK                         _______ _______ _______ _____ _____    ______ ____
ROOT
ATOM      1  C   UNL     1       3.494  -2.415   1.474  0.00  0.00    +0.139 C 
ENDROOT
BRANCH   1   7
ATOM      2  C   UNL     1       3.018  -0.141   2.406  0.00  0.00    -0.059 A 
ATOM      3  C   UNL     1       3.033   0.774   3.442  0.00  0.00    +0.002 A 
ATOM      4  C   UNL     1       3.550   0.415   4.673  0.00  0.00    +0.000 A 
ATOM      5  C   UNL     1       4.051  -0.858   4.868  0.00  0.00    +0.000 A 
ATOM      6  C   UNL     1       4.036  -1.773   3.832  0.00  0.00    +0.005 A 
ATOM      7  C   UNL     1       3.515  -1.416   2.602  0.00  0.00    -0.029 A 
BRANCH   2   8
ATOM      8  C   UNL     1       2.455   0.249   1.064  0.00  0.00    -0.042 C 
BRANCH   8  15
ATOM      9  C   UNL     1       2.621   2.044  -1.089  0.00  0.00    -0.013 C 
ATOM     10  C   UNL     1       1.400   2.015  -0.168  0.00  0.00    -0.071 C 
ATOM     11  C   UNL     1       0.798   3.418  -0.074  0.00  0.00    -0.016 C 
ATOM     12  C   UNL     1      -0.423   3.384   0.848  0.00  0.00    -0.003 C 
ATOM     13  C   UNL     1      -0.002   2.841   2.217  0.00  0.00    -0.019 C 
ATOM     14  C   UNL     1       0.630   1.458   2.038  0.00  0.00    -0.078 C 
ATOM     15  N   UNL     1       1.807   1.564   1.168  0.00  0.00    +0.384 N 
ATOM     16  H   UNL     1       2.458   2.227   1.562  0.00  0.00    -0.081 HD
ENDBRANCH   8  15
ENDBRANCH   2   8
ENDBRANCH   1   7
BRANCH   1  17
ATOM     17  N   UNL     1       4.539  -2.079   0.504  0.00  0.00    -0.310 N 
ATOM     18  C   UNL     1       4.707  -2.840  -0.596  0.00  0.00    +0.233 C 
ATOM     19  O   UNL     1       3.994  -3.803  -0.782  0.00  0.00    -0.274 OA
ATOM     20  H   UNL     1       5.109  -1.309   0.653  0.00  0.00    +0.149 HD
BRANCH  18  21
ATOM     21  C   UNL     1       5.782  -2.494  -1.593  0.00  0.00    +0.159 C 
ATOM     22  C   UNL     1       5.529  -1.092  -2.150  0.00  0.00    +0.038 C 
BRANCH  21  23
ATOM     23  N   UNL     1       5.761  -3.466  -2.690  0.00  0.00    -0.270 N 
ATOM     24  C   UNL     1       6.877  -3.691  -3.412  0.00  0.00    +0.401 C 
ATOM     25  O   UNL     1       7.900  -3.089  -3.153  0.00  0.00    -0.226 OA
ATOM     26  H   UNL     1       4.944  -3.946  -2.897  0.00  0.00    +0.153 HD
BRANCH  24  27
ATOM     27  O   UNL     1       6.857  -4.584  -4.419  0.00  0.00    -0.445 OA
BRANCH  27  28
ATOM     28  C   UNL     1       8.076  -4.773  -5.142  0.00  0.00    +0.107 C 
ATOM     29  C   UNL     1       9.167  -5.257  -4.185  0.00  0.00    +0.055 C 
ATOM     30  C   UNL     1       7.861  -5.817  -6.240  0.00  0.00    +0.055 C 
ATOM     31  C   UNL     1       8.504  -3.448  -5.775  0.00  0.00    +0.055 C 
ENDBRANCH  27  28
ENDBRANCH  24  27
ENDBRANCH  21  23
ENDBRANCH  18  21
ENDBRANCH   1  17
TORSDOF 8
