REMARK  Name = ZINC16495129
REMARK  5 active torsions:
REMARK  status: ('A' for Active; 'I' for Inactive)
REMARK    1  A    between atoms: C_1  and  C_2
REMARK    2  A    between atoms: C_3  and  C_13
REMARK    3  A    between atoms: C_4  and  C_7
REMARK    4  A    between atoms: N_15  and  N_16
REMARK    5  A    between atoms: C_17  and  C_19
REMARK                            x       y       z     vdW  Elec       q    Type
REMARK                         _______ _______ _______ _____ _____    ______ ____
ROOT
ATOM      1  C   UNL     1      -1.658   5.108   2.846  0.00  0.00    +0.266 C 
ATOM      2  O   UNL     1      -1.214   5.909   2.046  0.00  0.00    -0.268 OA
ATOM      3  N   UNL     1      -1.519   3.786   2.625  0.00  0.00    -0.230 N 
ATOM      4  H   UNL     1      -1.873   3.147   3.263  0.00  0.00    +0.173 HD
ENDROOT
BRANCH   1   7
ATOM      5  C   UNL     1      -0.368   5.745   5.696  0.00  0.00    +0.090 C 
ATOM      6  C   UNL     1      -1.815   5.863   5.291  0.00  0.00    +0.147 A 
ATOM      7  C   UNL     1      -2.347   5.583   4.058  0.00  0.00    +0.107 A 
ATOM      8  C   UNL     1      -3.785   5.870   4.248  0.00  0.00    +0.126 A 
ATOM      9  N   UNL     1      -3.893   6.261   5.492  0.00  0.00    -0.077 NA
ATOM     10  O   UNL     1      -2.829   6.262   6.062  0.00  0.00    -0.359 OA
BRANCH   8  11
ATOM     11  C   UNL     1      -4.870   5.741   3.246  0.00  0.00    +0.004 A 
ATOM     12  C   UNL     1      -4.623   6.033   1.906  0.00  0.00    +0.010 A 
ATOM     13  C   UNL     1      -5.636   5.908   0.977  0.00  0.00    +0.001 A 
ATOM     14  C   UNL     1      -6.897   5.502   1.375  0.00  0.00    +0.000 A 
ATOM     15  C   UNL     1      -7.149   5.215   2.704  0.00  0.00    +0.001 A 
ATOM     16  C   UNL     1      -6.143   5.333   3.641  0.00  0.00    +0.010 A 
ENDBRANCH   8  11
ENDBRANCH   1   7
BRANCH   3  17
ATOM     17  N   UNL     1      -0.863   3.334   1.472  0.00  0.00    -0.234 N 
ATOM     18  C   UNL     1      -0.724   2.012   1.250  0.00  0.00    +0.235 C 
ATOM     19  O   UNL     1      -1.167   1.213   2.049  0.00  0.00    -0.274 OA
ATOM     20  H   UNL     1      -0.509   3.973   0.834  0.00  0.00    +0.173 HD
BRANCH  18  21
ATOM     21  C   UNL     1      -0.019   1.526   0.010  0.00  0.00    +0.049 C 
ATOM     22  C   UNL     1       1.417   2.055  -0.000  0.00  0.00    +0.019 C 
ATOM     23  C   UNL     1       2.133   1.562  -1.259  0.00  0.00    -0.009 C 
ATOM     24  C   UNL     1       2.154   0.032  -1.268  0.00  0.00    +0.007 C 
ATOM     25  C   UNL     1       0.718  -0.497  -1.257  0.00  0.00    -0.009 C 
ATOM     26  C   UNL     1       0.002  -0.004   0.002  0.00  0.00    +0.019 C 
ATOM     27  C   UNL     1      -0.022   0.009  -2.496  0.00  0.00    +0.007 C 
ATOM     28  C   UNL     1      -0.043   1.539  -2.488  0.00  0.00    -0.009 C 
ATOM     29  C   UNL     1       1.393   2.069  -2.499  0.00  0.00    +0.007 C 
ATOM     30  C   UNL     1      -0.759   2.033  -1.229  0.00  0.00    +0.019 C 
ENDBRANCH  18  21
ENDBRANCH   3  17
TORSDOF 4
