REMARK  Name = ZINC20418790
REMARK  6 active torsions:
REMARK  status: ('A' for Active; 'I' for Inactive)
REMARK    1  A    between atoms: C_1  and  C_2
REMARK    2  A    between atoms: C_7  and  N_8
REMARK    3  A    between atoms: C_9  and  C_11
REMARK    4  A    between atoms: C_12  and  C_35
REMARK    5  A    between atoms: C_16  and  C_18
REMARK    6  A    between atoms: C_23  and  N_24
REMARK                            x       y       z     vdW  Elec       q    Type
REMARK                         _______ _______ _______ _____ _____    ______ ____
ROOT
ATOM      1  C   UNL     1      -2.829   0.532  -0.831  0.00  0.00    +0.043 C 
ATOM      2  C   UNL     1      -3.011  -0.775  -0.605  0.00  0.00    +0.014 C 
ATOM      3  N   UNL     1      -3.098  -1.308   0.656  0.00  0.00    -0.317 N 
ATOM      4  C   UNL     1      -3.273  -0.445   1.716  0.00  0.00    +0.047 C 
ATOM      5  C   UNL     1      -3.093   0.909   1.579  0.00  0.00    +0.034 C 
ATOM      6  C   UNL     1      -2.691   1.546   0.273  0.00  0.00    +0.093 C 
ATOM      7  C   UNL     1      -3.341   1.548   2.814  0.00  0.00    +0.193 C 
ATOM      8  O   UNL     1      -3.271   2.742   3.033  0.00  0.00    -0.287 OA
ATOM      9  C   UNL     1      -3.700   0.498   3.793  0.00  0.00    +0.031 A 
ATOM     10  C   UNL     1      -3.655  -0.739   3.101  0.00  0.00    +0.007 A 
ATOM     11  C   UNL     1      -3.945  -1.929   3.748  0.00  0.00    +0.010 A 
ATOM     12  C   UNL     1      -4.280  -1.848   5.103  0.00  0.00    +0.001 A 
ATOM     13  C   UNL     1      -4.323  -0.647   5.771  0.00  0.00    +0.001 A 
ATOM     14  C   UNL     1      -4.033   0.563   5.132  0.00  0.00    +0.012 A 
ATOM     15  C   UNL     1      -3.125  -1.702  -1.787  0.00  0.00    +0.061 C 
ATOM     16  H   UNL     1      -3.028  -2.397   0.799  0.00  0.00    +0.152 HD
ENDROOT
BRANCH   6  17
ATOM     17  C   UNL     1      -1.258   2.007   0.357  0.00  0.00    -0.005 A 
ATOM     18  C   UNL     1      -0.240   1.080   0.481  0.00  0.00    +0.007 A 
ATOM     19  C   UNL     1       1.074   1.503   0.553  0.00  0.00    +0.000 A 
ATOM     20  C   UNL     1       1.370   2.853   0.505  0.00  0.00    +0.002 A 
ATOM     21  C   UNL     1       0.351   3.779   0.387  0.00  0.00    +0.033 A 
ATOM     22  C   UNL     1      -0.963   3.357   0.315  0.00  0.00    +0.130 A 
BRANCH  22  23
ATOM     23  N   UNL     1      -2.054   4.349   0.189  0.00  0.00    +0.057 N 
ATOM     24  O   UNL     1      -1.806   5.539   0.263  0.00  0.00    -0.126 OA
ATOM     25  O   UNL     1      -3.200   3.976   0.010  0.00  0.00    -0.126 OA
ENDBRANCH  22  23
ENDBRANCH   6  17
BRANCH   1  27
ATOM     26  N   UNL     1      -1.691   0.683  -2.932  0.00  0.00    -0.281 N 
ATOM     27  C   UNL     1      -2.764   0.981  -2.173  0.00  0.00    +0.247 C 
ATOM     28  O   UNL     1      -3.677   1.638  -2.640  0.00  0.00    -0.270 OA
ATOM     29  H   UNL     1      -0.823   0.178  -2.484  0.00  0.00    +0.155 HD
BRANCH  26  36
ATOM     30  C   UNL     1       0.825   1.025  -4.215  0.00  0.00    +0.045 C 
ATOM     31  C   UNL     1      -0.476   1.190  -4.957  0.00  0.00    -0.029 A 
ATOM     32  C   UNL     1      -0.471   1.516  -6.299  0.00  0.00    +0.005 A 
ATOM     33  C   UNL     1      -1.665   1.668  -6.979  0.00  0.00    +0.000 A 
ATOM     34  C   UNL     1      -2.868   1.493  -6.320  0.00  0.00    +0.002 A 
ATOM     35  C   UNL     1      -2.880   1.161  -4.979  0.00  0.00    +0.023 A 
ATOM     36  C   UNL     1      -1.683   1.014  -4.291  0.00  0.00    +0.037 A 
ENDBRANCH  26  36
ENDBRANCH   1  27
TORSDOF 4
