REMARK  Name = ZINC63807792
REMARK  3 active torsions:
REMARK  status: ('A' for Active; 'I' for Inactive)
REMARK    1  A    between atoms: C_4  and  C_7
REMARK    2  A    between atoms: C_9  and  C_14
REMARK    3  A    between atoms: C_14  and  N_16
REMARK                            x       y       z     vdW  Elec       q    Type
REMARK                         _______ _______ _______ _____ _____    ______ ____
ROOT
ATOM      1  C   UNL     1       3.711  -0.787  -0.055  0.00  0.00    +0.123 C 
ATOM      2  C   UNL     1       4.124  -1.067   1.415  0.00  0.00    +0.173 C 
ATOM      3  S   UNL     1       5.055  -2.643   1.222  0.00  0.00    -0.051 S 
ATOM      4  N   UNL     1       4.824  -2.883  -0.541  0.00  0.00    -0.199 NA
ATOM      5  N   UNL     1       3.618  -2.067  -0.784  0.00  0.00    -0.238 NA
ATOM      6  H   UNL     1       4.652  -3.854  -0.754  0.00  0.00    +0.154 HD
ATOM      7  H   UNL     1       2.782  -2.570  -0.527  0.00  0.00    +0.142 HD
ENDROOT
BRANCH   1  11
ATOM      8  C   UNL     1      -0.083   1.174  -0.126  0.00  0.00    +0.000 A 
ATOM      9  C   UNL     1       1.070   1.907   0.082  0.00  0.00    +0.000 A 
ATOM     10  C   UNL     1       2.298   1.273   0.105  0.00  0.00    +0.005 A 
ATOM     11  C   UNL     1       2.372  -0.095  -0.079  0.00  0.00    -0.028 A 
ATOM     12  C   UNL     1       1.219  -0.829  -0.286  0.00  0.00    +0.005 A 
ATOM     13  C   UNL     1      -0.009  -0.194  -0.310  0.00  0.00    +0.000 A 
ENDBRANCH   1  11
BRANCH   2  14
ATOM     14  C   UNL     1       2.914  -1.254   2.293  0.00  0.00    +0.254 C 
ATOM     15  O   UNL     1       1.931  -1.825   1.861  0.00  0.00    -0.272 OA
BRANCH  14  16
ATOM     16  N   UNL     1       2.920  -0.794   3.540  0.00  0.00    -0.156 NA
ATOM     17  C   UNL     1       1.851  -0.959   4.315  0.00  0.00    +0.164 A 
ATOM     18  N   UNL     1       1.683  -0.552   5.599  0.00  0.00    -0.335 N 
ATOM     19  H   UNL     1       2.396  -0.080   6.057  0.00  0.00    +0.168 HD
ATOM     20  C   UNL     1       0.494  -0.813   6.253  0.00  0.00    +0.055 A 
ATOM     21  C   UNL     1       0.114  -0.487   7.563  0.00  0.00    +0.027 A 
ATOM     22  C   UNL     1      -1.129  -0.837   8.039  0.00  0.00    +0.002 A 
ATOM     23  C   UNL     1      -2.035  -1.518   7.244  0.00  0.00    +0.001 A 
ATOM     24  C   UNL     1      -1.685  -1.851   5.947  0.00  0.00    +0.017 A 
ATOM     25  C   UNL     1      -0.444  -1.502   5.470  0.00  0.00    +0.039 A 
ATOM     26  S   UNL     1       0.400  -1.712   3.924  0.00  0.00    -0.052 S 
ENDBRANCH  14  16
ENDBRANCH   2  14
TORSDOF 3
