REMARK  Name = ZINC60093392
REMARK  14 active torsions:
REMARK  status: ('A' for Active; 'I' for Inactive)
REMARK    1  A    between atoms: C_1  and  C_2
REMARK    2  A    between atoms: C_2  and  C_3
REMARK    3  A    between atoms: C_2  and  C_4
REMARK    4  A    between atoms: C_2  and  C_5
REMARK    5  A    between atoms: C_12  and  C_14
REMARK    6  A    between atoms: C_19  and  C_22
REMARK    7  A    between atoms: N_24  and  C_25
REMARK    8  A    between atoms: C_25  and  C_26
REMARK    9  A    between atoms: C_26  and  C_27
REMARK   10  A    between atoms: C_26  and  C_28
REMARK   11  A    between atoms: C_26  and  C_29
REMARK   12  A    between atoms: C_29  and  N_30
REMARK   13  A    between atoms: N_30  and  C_31
REMARK   14  A    between atoms: N_30  and  C_32
REMARK                            x       y       z     vdW  Elec       q    Type
REMARK                         _______ _______ _______ _____ _____    ______ ____
ROOT
ATOM      1  C   UNL     1       5.057   0.042  -7.321  0.00  0.00    +0.253 C 
ATOM      2  O   UNL     1       4.146  -0.114  -6.529  0.00  0.00    -0.269 OA
ATOM      3  N   UNL     1       5.528  -1.009  -8.021  0.00  0.00    -0.297 N 
ATOM      4  C   UNL     1       4.821  -2.297  -8.005  0.00  0.00    +0.109 C 
ATOM      5  C   UNL     1       5.808  -3.396  -7.600  0.00  0.00    +0.032 C 
ATOM      6  C   UNL     1       7.021  -3.356  -8.533  0.00  0.00    +0.078 C 
ATOM      7  C   UNL     1       7.724  -2.003  -8.402  0.00  0.00    +0.032 C 
ATOM      8  C   UNL     1       6.755  -0.887  -8.820  0.00  0.00    +0.109 C 
ENDROOT
BRANCH   1  15
ATOM      9  C   UNL     1       7.166   5.890  -6.876  0.00  0.00    -0.001 C 
ATOM     10  C   UNL     1       7.322   5.946  -8.398  0.00  0.00    +0.009 C 
ATOM     11  C   UNL     1       7.808   4.578  -8.896  0.00  0.00    +0.043 C 
ATOM     12  C   UNL     1       6.952   3.515  -8.272  0.00  0.00    -0.006 A 
ATOM     13  C   UNL     1       6.115   3.663  -7.206  0.00  0.00    -0.036 A 
ATOM     14  C   UNL     1       5.418   2.535  -6.800  0.00  0.00    +0.024 A 
ATOM     15  C   UNL     1       5.641   1.372  -7.514  0.00  0.00    +0.075 A 
ATOM     16  S   UNL     1       6.826   1.914  -8.731  0.00  0.00    -0.088 S 
ATOM     17  C   UNL     1       5.968   5.014  -6.510  0.00  0.00    +0.040 C 
BRANCH   9  19
ATOM     18  C   UNL     1       6.795   7.250  -4.813  0.00  0.00    +0.011 C 
ATOM     19  C   UNL     1       6.946   7.304  -6.335  0.00  0.00    -0.035 C 
ATOM     20  C   UNL     1       5.678   7.895  -6.953  0.00  0.00    +0.011 C 
ATOM     21  C   UNL     1       8.147   8.181  -6.696  0.00  0.00    +0.011 C 
ENDBRANCH   9  19
ENDBRANCH   1  15
BRANCH   6  22
ATOM     22  C   UNL     1       7.978  -4.458  -8.160  0.00  0.00    +0.216 C 
ATOM     23  O   UNL     1       7.717  -5.202  -7.238  0.00  0.00    -0.276 OA
ATOM     24  N   UNL     1       9.125  -4.617  -8.850  0.00  0.00    -0.315 N 
ATOM     25  H   UNL     1       9.334  -4.023  -9.587  0.00  0.00    +0.149 HD
BRANCH  24  26
ATOM     26  C   UNL     1      10.056  -5.689  -8.486  0.00  0.00    +0.108 C 
BRANCH  26  27
ATOM     27  C   UNL     1      11.268  -5.649  -9.419  0.00  0.00    -0.034 C 
ATOM     28  C   UNL     1      10.806  -5.844 -10.865  0.00  0.00    +0.010 C 
ATOM     29  C   UNL     1      11.970  -4.296  -9.286  0.00  0.00    +0.010 C 
BRANCH  27  30
ATOM     30  C   UNL     1      12.240  -6.768  -9.040  0.00  0.00    -0.072 C 
BRANCH  30  31
ATOM     31  N   UNL     1      13.436  -6.686  -9.889  0.00  0.00    +0.376 N 
ATOM     32  C   UNL     1      14.394  -5.743  -9.296  0.00  0.00    -0.097 C 
ATOM     33  C   UNL     1      14.056  -8.014  -9.991  0.00  0.00    -0.097 C 
ATOM     34  H   UNL     1      13.174  -6.365 -10.809  0.00  0.00    -0.083 HD
ENDBRANCH  30  31
ENDBRANCH  27  30
ENDBRANCH  26  27
ENDBRANCH  24  26
ENDBRANCH   6  22
TORSDOF 7
