REMARK  Name = ZINC38857808
REMARK  8 active torsions:
REMARK  status: ('A' for Active; 'I' for Inactive)
REMARK    1  A    between atoms: C_1  and  C_2
REMARK    2  A    between atoms: C_2  and  O_3
REMARK    3  A    between atoms: O_3  and  C_4
REMARK    4  A    between atoms: C_4  and  C_6
REMARK    5  A    between atoms: C_10  and  N_11
REMARK    6  A    between atoms: C_12  and  C_14
REMARK    7  A    between atoms: N_19  and  C_21
REMARK    8  A    between atoms: C_21  and  C_22
REMARK                            x       y       z     vdW  Elec       q    Type
REMARK                         _______ _______ _______ _____ _____    ______ ____
ROOT
ATOM      1  N   UNL     1      -0.604  -2.455  -3.925  0.00  0.00    -0.279 N 
ATOM      2  C   UNL     1      -1.119  -2.783  -5.126  0.00  0.00    +0.219 C 
ATOM      3  O   UNL     1      -0.397  -3.225  -5.995  0.00  0.00    -0.275 OA
ATOM      4  H   UNL     1      -1.181  -2.102  -3.230  0.00  0.00    +0.155 HD
ENDROOT
BRANCH   1   9
ATOM      5  C   UNL     1       1.449  -2.344  -2.516  0.00  0.00    +0.091 A 
ATOM      6  C   UNL     1       2.876  -2.619  -2.515  0.00  0.00    -0.021 A 
ATOM      7  C   UNL     1       3.343  -3.117  -3.680  0.00  0.00    -0.004 A 
ATOM      8  S   UNL     1       1.922  -3.212  -4.730  0.00  0.00    -0.077 S 
ATOM      9  C   UNL     1       0.750  -2.624  -3.681  0.00  0.00    +0.086 A 
ATOM     10  C   UNL     1       4.757  -3.498  -3.993  0.00  0.00    +0.043 C 
ATOM     11  C   UNL     1       5.669  -2.887  -2.920  0.00  0.00    +0.005 C 
ATOM     12  C   UNL     1       5.082  -3.191  -1.538  0.00  0.00    +0.005 C 
ATOM     13  C   UNL     1       3.799  -2.383  -1.329  0.00  0.00    +0.037 C 
BRANCH   5  14
ATOM     14  C   UNL     1       0.776  -1.800  -1.335  0.00  0.00    +0.342 C 
ATOM     15  O   UNL     1       0.312  -2.552  -0.499  0.00  0.00    -0.245 OA
BRANCH  14  16
ATOM     16  O   UNL     1       0.671  -0.465  -1.174  0.00  0.00    -0.461 OA
BRANCH  16  18
ATOM     17  C   UNL     1      -0.019   1.526   0.010  0.00  0.00    +0.048 C 
ATOM     18  C   UNL     1       0.002  -0.004   0.002  0.00  0.00    +0.229 C 
ENDBRANCH  16  18
ENDBRANCH  14  16
ENDBRANCH   5  14
ENDBRANCH   1   9
BRANCH   2  19
ATOM     19  C   UNL     1      -2.591  -2.599  -5.391  0.00  0.00    +0.059 C 
ATOM     20  C   UNL     1      -2.961  -1.123  -5.222  0.00  0.00    +0.009 C 
ATOM     21  C   UNL     1      -4.440  -0.935  -5.569  0.00  0.00    -0.018 C 
ATOM     22  C   UNL     1      -4.693  -1.437  -6.992  0.00  0.00    -0.078 C 
ATOM     23  N   UNL     1      -4.345  -2.860  -7.082  0.00  0.00    +0.383 N 
ATOM     24  C   UNL     1      -2.912  -3.041  -6.820  0.00  0.00    -0.066 C 
ATOM     25  H   UNL     1      -4.878  -3.379  -6.400  0.00  0.00    -0.081 HD
BRANCH  23  26
ATOM     26  C   UNL     1      -4.662  -3.357  -8.427  0.00  0.00    -0.043 C 
BRANCH  26  27
ATOM     27  C   UNL     1      -6.152  -3.295  -8.647  0.00  0.00    -0.064 A 
ATOM     28  C   UNL     1      -6.946  -4.374  -8.307  0.00  0.00    +0.003 A 
ATOM     29  C   UNL     1      -8.312  -4.318  -8.509  0.00  0.00    +0.015 A 
ATOM     30  C   UNL     1      -8.885  -3.182  -9.050  0.00  0.00    +0.018 A 
ATOM     31  C   UNL     1      -8.090  -2.102  -9.390  0.00  0.00    +0.015 A 
ATOM     32  C   UNL     1      -6.724  -2.157  -9.184  0.00  0.00    +0.003 A 
ATOM     33 BR   UNL     1     -10.754  -3.104  -9.326  0.00  0.00    -0.050 Br
ENDBRANCH  26  27
ENDBRANCH  23  26
ENDBRANCH   2  19
TORSDOF 7
