REMARK  Name = ZINC09481053
REMARK  7 active torsions:
REMARK  status: ('A' for Active; 'I' for Inactive)
REMARK    1  A    between atoms: C_1  and  C_2
REMARK    2  A    between atoms: C_9  and  C_11
REMARK    3  A    between atoms: C_14  and  S_16
REMARK    4  A    between atoms: S_16  and  C_17
REMARK    5  A    between atoms: C_17  and  C_19
REMARK    6  A    between atoms: C_17  and  C_20
REMARK    7  A    between atoms: N_22  and  C_23
REMARK                            x       y       z     vdW  Elec       q    Type
REMARK                         _______ _______ _______ _____ _____    ______ ____
ROOT
ATOM      1  C   UNL     1       1.815   2.113   0.150  0.00  0.00    +0.139 C 
ATOM      2  C   UNL     1       2.610   1.558   1.334  0.00  0.00    +0.029 C 
ENDROOT
BRANCH   1   3
ATOM      3  C   UNL     1       2.060   3.595   0.030  0.00  0.00    +0.230 C 
ATOM      4  O   UNL     1       1.291   4.380   0.542  0.00  0.00    -0.274 OA
ATOM      5  N   UNL     1       3.135   4.047  -0.646  0.00  0.00    -0.285 N 
ATOM      6  H   UNL     1       3.791   3.421  -0.990  0.00  0.00    +0.155 HD
BRANCH   5   7
ATOM      7  C   UNL     1       3.304   5.422  -0.853  0.00  0.00    +0.035 A 
ATOM      8  C   UNL     1       4.583   5.967  -0.879  0.00  0.00    +0.025 A 
ATOM      9  C   UNL     1       4.757   7.321  -1.087  0.00  0.00    +0.029 A 
ATOM     10  C   UNL     1       3.653   8.142  -1.260  0.00  0.00    +0.067 A 
ATOM     11  C   UNL     1       2.367   7.598  -1.229  0.00  0.00    +0.069 A 
ATOM     12  C   UNL     1       2.196   6.238  -1.025  0.00  0.00    +0.051 A 
ATOM     13  N   UNL     1       1.479   8.652  -1.429  0.00  0.00    -0.306 N 
ATOM     14  H   UNL     1       0.512   8.582  -1.458  0.00  0.00    +0.170 HD
ATOM     15  C   UNL     1       2.191   9.786  -1.576  0.00  0.00    +0.325 A 
ATOM     16  O   UNL     1       1.718  10.891  -1.766  0.00  0.00    -0.247 OA
ATOM     17  N   UNL     1       3.505   9.511  -1.479  0.00  0.00    -0.306 N 
ATOM     18  H   UNL     1       4.226  10.156  -1.548  0.00  0.00    +0.170 HD
ENDBRANCH   5   7
ENDBRANCH   1   3
BRANCH   1  19
ATOM     19  S   UNL     1       0.049   1.813   0.416  0.00  0.00    -0.053 S 
BRANCH  19  23
ATOM     20  C   UNL     1      -0.616  -2.010   0.408  0.00  0.00    +0.256 A 
ATOM     21  N   UNL     1       0.681  -1.961   0.208  0.00  0.00    -0.106 NA
ATOM     22  N   UNL     1       1.062  -0.732   0.178  0.00  0.00    -0.101 NA
ATOM     23  C   UNL     1       0.027   0.052   0.368  0.00  0.00    +0.278 A 
ATOM     24  O   UNL     1      -1.056  -0.736   0.513  0.00  0.00    -0.410 OA
BRANCH  20  32
ATOM     25  C   UNL     1      -2.565  -9.332   0.807  0.00  0.00    +0.008 C 
ATOM     26  C   UNL     1      -2.806  -7.840   1.050  0.00  0.00    -0.009 C 
ATOM     27  C   UNL     1      -4.142  -7.434   0.421  0.00  0.00    +0.009 C 
ATOM     28  C   UNL     1      -4.500  -6.018   0.894  0.00  0.00    +0.043 C 
ATOM     29  C   UNL     1      -3.293  -5.149   0.733  0.00  0.00    -0.006 A 
ATOM     30  C   UNL     1      -2.006  -5.548   0.521  0.00  0.00    -0.036 A 
ATOM     31  C   UNL     1      -1.052  -4.546   0.402  0.00  0.00    +0.024 A 
ATOM     32  C   UNL     1      -1.438  -3.226   0.500  0.00  0.00    +0.076 A 
ATOM     33  S   UNL     1      -3.196  -3.380   0.778  0.00  0.00    -0.088 S 
ATOM     34  C   UNL     1      -1.667  -7.034   0.426  0.00  0.00    +0.039 C 
ENDBRANCH  20  32
ENDBRANCH  19  23
ENDBRANCH   1  19
TORSDOF 5
