REMARK  Name = ZINC36207822
REMARK  11 active torsions:
REMARK  status: ('A' for Active; 'I' for Inactive)
REMARK    1  A    between atoms: C_2  and  C_3
REMARK    2  A    between atoms: C_3  and  O_4
REMARK    3  A    between atoms: O_4  and  C_5
REMARK    4  A    between atoms: C_5  and  C_6
REMARK    5  A    between atoms: C_6  and  C_8
REMARK    6  A    between atoms: C_6  and  O_35
REMARK    7  A    between atoms: C_8  and  N_9
REMARK    8  A    between atoms: N_9  and  C_10
REMARK    9  A    between atoms: N_9  and  C_29
REMARK   10  A    between atoms: C_10  and  C_11
REMARK   11  A    between atoms: C_17  and  C_22
REMARK                            x       y       z     vdW  Elec       q    Type
REMARK                         _______ _______ _______ _____ _____    ______ ____
ROOT
ATOM      1  C   UNL     1       4.562   7.176   0.295  0.00  0.00    -0.003 C 
ENDROOT
BRANCH   1   2
ATOM      2  C   UNL     1       6.000   7.559   0.057  0.00  0.00    +0.094 A 
ATOM      3  N   UNL     1       6.372   8.859   0.175  0.00  0.00    -0.312 N 
ATOM      4  H   UNL     1       5.707   9.524   0.412  0.00  0.00    +0.170 HD
ATOM      5  C   UNL     1       7.646   9.242  -0.028  0.00  0.00    +0.260 A 
ATOM      6  O   UNL     1       7.965  10.414   0.083  0.00  0.00    -0.267 OA
ATOM      7  C   UNL     1       8.621   8.254  -0.377  0.00  0.00    +0.080 A 
ATOM      8  C   UNL     1      10.045   8.417  -0.644  0.00  0.00    +0.006 A 
ATOM      9  C   UNL     1      10.778   7.322  -0.959  0.00  0.00    +0.056 A 
ATOM     10  S   UNL     1       9.584   5.999  -0.914  0.00  0.00    -0.076 S 
ATOM     11  C   UNL     1       8.143   6.937  -0.477  0.00  0.00    +0.116 A 
ATOM     12  N   UNL     1       6.867   6.633  -0.256  0.00  0.00    -0.229 NA
BRANCH   8  13
ATOM     13  C   UNL     1      10.679   9.755  -0.573  0.00  0.00    +0.019 A 
ATOM     14  C   UNL     1      11.205  10.342  -1.723  0.00  0.00    +0.011 A 
ATOM     15  C   UNL     1      11.793  11.588  -1.651  0.00  0.00    +0.001 A 
ATOM     16  C   UNL     1      11.862  12.256  -0.441  0.00  0.00    +0.003 A 
ATOM     17  C   UNL     1      11.342  11.681   0.704  0.00  0.00    +0.039 A 
ATOM     18  C   UNL     1      10.745  10.435   0.644  0.00  0.00    +0.131 A 
ATOM     19  F   UNL     1      10.233   9.876   1.762  0.00  0.00    -0.205 F 
ENDBRANCH   8  13
ENDBRANCH   1   2
BRANCH   1  20
ATOM     20  N   UNL     1       4.438   5.712   0.293  0.00  0.00    +0.388 N 
ATOM     21  H   UNL     1       5.039   5.325  -0.419  0.00  0.00    -0.081 HD
BRANCH  20  22
ATOM     22  C   UNL     1       4.833   5.185   1.606  0.00  0.00    -0.068 C 
ATOM     23  C   UNL     1       6.300   5.530   1.874  0.00  0.00    -0.015 C 
ATOM     24  C   UNL     1       6.711   4.981   3.241  0.00  0.00    -0.002 C 
ATOM     25  C   UNL     1       5.834   5.608   4.327  0.00  0.00    -0.000 C 
ATOM     26  C   UNL     1       4.367   5.263   4.060  0.00  0.00    -0.002 C 
ATOM     27  C   UNL     1       3.956   5.812   2.692  0.00  0.00    -0.015 C 
ENDBRANCH  20  22
BRANCH  20  28
ATOM     28  C   UNL     1       3.045   5.338   0.015  0.00  0.00    -0.044 C 
BRANCH  28  29
ATOM     29  C   UNL     1       2.943   3.818  -0.126  0.00  0.00    +0.124 C 
BRANCH  29  30
ATOM     30  O   UNL     1       3.700   3.393  -1.260  0.00  0.00    -0.391 OA
ATOM     31  H   UNL     1       3.404   3.777  -2.097  0.00  0.00    +0.210 HD
ENDBRANCH  29  30
BRANCH  29  32
ATOM     32  C   UNL     1       1.477   3.421  -0.312  0.00  0.00    +0.190 C 
BRANCH  32  33
ATOM     33  O   UNL     1       1.368   1.996  -0.326  0.00  0.00    -0.365 OA
BRANCH  33  34
ATOM     34  C   UNL     1       0.032   1.517  -0.496  0.00  0.00    +0.248 C 
BRANCH  34  36
ATOM     35  C   UNL     1       0.038  -1.129  -0.496  0.00  0.00    +0.006 C 
ATOM     36  C   UNL     1       0.035   0.045  -0.496  0.00  0.00    -0.077 C 
ENDBRANCH  34  36
ENDBRANCH  33  34
ENDBRANCH  32  33
ENDBRANCH  29  32
ENDBRANCH  28  29
ENDBRANCH  20  28
ENDBRANCH   1  20
TORSDOF 11
