REMARK  Name = ZINC39447947
REMARK  7 active torsions:
REMARK  status: ('A' for Active; 'I' for Inactive)
REMARK    1  A    between atoms: C_1  and  C_2
REMARK    2  A    between atoms: C_4  and  C_27
REMARK    3  A    between atoms: C_5  and  O_25
REMARK    4  A    between atoms: C_6  and  C_8
REMARK    5  A    between atoms: N_17  and  C_18
REMARK    6  A    between atoms: N_21  and  C_24
REMARK    7  A    between atoms: O_25  and  C_26
REMARK                            x       y       z     vdW  Elec       q    Type
REMARK                         _______ _______ _______ _____ _____    ______ ____
ROOT
ATOM      1  C   UNL     1       0.018  -2.900   2.471  0.00  0.00    +0.209 C 
ATOM      2  N   UNL     1       0.532  -2.061   3.590  0.00  0.00    -0.267 NA
ATOM      3  C   UNL     1       1.973  -2.319   3.489  0.00  0.00    +0.212 C 
ATOM      4  C   UNL     1       2.050  -3.762   2.993  0.00  0.00    +0.094 C 
ATOM      5  N   UNL     1       0.949  -4.037   2.378  0.00  0.00    -0.260 NA
ATOM      6  C   UNL     1       3.307  -4.228   3.576  0.00  0.00    +0.156 C 
ATOM      7  N   UNL     1       3.648  -3.433   4.552  0.00  0.00    -0.189 NA
ATOM      8  N   UNL     1       2.689  -2.402   4.763  0.00  0.00    -0.229 N 
ATOM      9  H   UNL     1       0.329  -1.085   3.434  0.00  0.00    +0.126 HD
ENDROOT
BRANCH   1  15
ATOM     10  C   UNL     1       2.344  -1.462  -1.719  0.00  0.00    +0.044 C 
ATOM     11  C   UNL     1       1.135  -1.426  -0.821  0.00  0.00    -0.050 A 
ATOM     12  C   UNL     1       0.031  -0.673  -1.179  0.00  0.00    +0.010 A 
ATOM     13  C   UNL     1      -1.078  -0.638  -0.357  0.00  0.00    -0.008 A 
ATOM     14  C   UNL     1      -1.085  -1.360   0.828  0.00  0.00    +0.129 A 
ATOM     15  C   UNL     1       0.022  -2.115   1.184  0.00  0.00    +0.033 A 
ATOM     16  C   UNL     1       1.128  -2.150   0.356  0.00  0.00    +0.014 A 
ATOM     17  C   UNL     1      -2.280   0.184  -0.747  0.00  0.00    +0.047 C 
BRANCH  14  18
ATOM     18  O   UNL     1      -2.176  -1.327   1.639  0.00  0.00    -0.494 OA
ATOM     19  C   UNL     1      -3.216  -2.268   1.366  0.00  0.00    +0.277 C 
ENDBRANCH  14  18
ENDBRANCH   1  15
BRANCH   8  20
ATOM     20  C   UNL     1       2.457  -1.611   5.975  0.00  0.00    +0.091 C 
ATOM     21  C   UNL     1       3.730  -0.839   6.334  0.00  0.00    +0.005 C 
ATOM     22  C   UNL     1       3.506  -0.079   7.642  0.00  0.00    -0.077 C 
ATOM     23  N   UNL     1       3.188  -1.027   8.716  0.00  0.00    +0.378 N 
ATOM     24  C   UNL     1       1.930  -1.720   8.412  0.00  0.00    -0.077 C 
ATOM     25  C   UNL     1       2.093  -2.544   7.133  0.00  0.00    +0.005 C 
ATOM     26  C   UNL     1       3.051  -0.300   9.985  0.00  0.00    -0.096 C 
ATOM     27  H   UNL     1       3.933  -1.704   8.797  0.00  0.00    -0.082 HD
ENDBRANCH   8  20
TORSDOF 3
