REMARK  Name = ZINC37424632
REMARK  11 active torsions:
REMARK  status: ('A' for Active; 'I' for Inactive)
REMARK    1  A    between atoms: C_1  and  N_2
REMARK    2  A    between atoms: C_3  and  C_5
REMARK    3  A    between atoms: C_5  and  O_26
REMARK    4  A    between atoms: C_7  and  O_25
REMARK    5  A    between atoms: C_9  and  O_24
REMARK    6  A    between atoms: C_11  and  O_14
REMARK    7  A    between atoms: O_14  and  C_15
REMARK    8  A    between atoms: C_15  and  C_16
REMARK    9  A    between atoms: C_21  and  C_22
REMARK   10  A    between atoms: O_26  and  C_27
REMARK   11  A    between atoms: C_27  and  C_28
REMARK                            x       y       z     vdW  Elec       q    Type
REMARK                         _______ _______ _______ _____ _____    ______ ____
ROOT
ATOM      1  C   UNL     1      -1.104  -2.137  -0.118  0.00  0.00    +0.150 C 
ATOM      2  C   UNL     1      -0.883  -2.454  -1.599  0.00  0.00    +0.078 C 
ATOM      3  C   UNL     1      -0.888  -3.971  -1.801  0.00  0.00    +0.149 C 
ATOM      4  C   UNL     1      -2.235  -4.541  -1.353  0.00  0.00    +0.172 C 
ATOM      5  C   UNL     1      -2.455  -4.224   0.128  0.00  0.00    +0.153 C 
ATOM      6  C   UNL     1      -2.451  -2.707   0.330  0.00  0.00    +0.079 C 
ENDROOT
BRANCH   1   9
ATOM      7  C   UNL     1       0.080   1.473   0.345  0.00  0.00    +0.128 C 
ATOM      8  N   UNL     1       0.067   0.011   0.250  0.00  0.00    -0.316 N 
ATOM      9  C   UNL     1      -1.100  -0.643   0.081  0.00  0.00    +0.245 C 
ATOM     10  O   UNL     1      -2.146  -0.029   0.090  0.00  0.00    -0.273 OA
ATOM     11  H   UNL     1       0.898  -0.486   0.307  0.00  0.00    +0.148 HD
ENDBRANCH   1   9
BRANCH   4  12
ATOM     12  O   UNL     1      -2.239  -5.958  -1.542  0.00  0.00    -0.387 OA
ATOM     13  H   UNL     1      -2.104  -6.232  -2.459  0.00  0.00    +0.210 HD
ENDBRANCH   4  12
BRANCH   3  14
ATOM     14  O   UNL     1       0.160  -4.558  -1.027  0.00  0.00    -0.389 OA
ATOM     15  H   UNL     1       0.216  -5.520  -1.107  0.00  0.00    +0.210 HD
ENDBRANCH   3  14
BRANCH   5  16
ATOM     16  O   UNL     1      -3.713  -4.757   0.547  0.00  0.00    -0.369 OA
BRANCH  16  17
ATOM     17  C   UNL     1      -3.641  -6.094   1.045  0.00  0.00    +0.196 C 
BRANCH  17  18
ATOM     18  C   UNL     1      -5.017  -6.552   1.455  0.00  0.00    -0.005 A 
ATOM     19  C   UNL     1      -6.098  -5.707   1.312  0.00  0.00    +0.007 A 
ATOM     20  C   UNL     1      -7.362  -6.126   1.689  0.00  0.00    +0.000 A 
ATOM     21  C   UNL     1      -7.551  -7.394   2.212  0.00  0.00    +0.001 A 
ATOM     22  C   UNL     1      -6.478  -8.248   2.360  0.00  0.00    +0.019 A 
ATOM     23  C   UNL     1      -5.201  -7.835   1.976  0.00  0.00    +0.057 A 
BRANCH  23  24
ATOM     24  C   UNL     1      -4.084  -8.719   2.122  0.00  0.00    +0.100 C 
ATOM     25  N   UNL     1      -3.198  -9.421   2.237  0.00  0.00    -0.191 NA
ENDBRANCH  23  24
ENDBRANCH  17  18
ENDBRANCH  16  17
ENDBRANCH   5  16
BRANCH   1  26
ATOM     26  O   UNL     1      -0.056  -2.724   0.656  0.00  0.00    -0.359 OA
BRANCH  26  27
ATOM     27  C   UNL     1      -0.185  -2.512   2.063  0.00  0.00    +0.196 C 
BRANCH  27  28
ATOM     28  C   UNL     1       0.940  -3.212   2.782  0.00  0.00    -0.019 A 
ATOM     29  C   UNL     1       0.788  -4.523   3.193  0.00  0.00    +0.006 A 
ATOM     30  C   UNL     1       1.819  -5.165   3.852  0.00  0.00    +0.003 A 
ATOM     31  C   UNL     1       3.004  -4.498   4.101  0.00  0.00    +0.038 A 
ATOM     32  C   UNL     1       3.157  -3.185   3.689  0.00  0.00    +0.124 A 
ATOM     33  C   UNL     1       2.126  -2.544   3.023  0.00  0.00    +0.044 A 
ATOM     34  F   UNL     1       4.314  -2.531   3.931  0.00  0.00    -0.205 F 
ENDBRANCH  27  28
ENDBRANCH  26  27
ENDBRANCH   1  26
TORSDOF 10
