REMARK  Name = ZINC13037778
REMARK  6 active torsions:
REMARK  status: ('A' for Active; 'I' for Inactive)
REMARK    1  A    between atoms: C_6  and  C_7
REMARK    2  A    between atoms: C_7  and  C_12
REMARK    3  A    between atoms: C_12  and  O_14
REMARK    4  A    between atoms: O_14  and  C_15
REMARK    5  A    between atoms: C_15  and  C_16
REMARK    6  A    between atoms: N_18  and  C_19
REMARK                            x       y       z     vdW  Elec       q    Type
REMARK                         _______ _______ _______ _____ _____    ______ ____
ROOT
ATOM      1  C   UNL     1      -0.442   3.897  -5.527  0.00  0.00    +0.255 C 
ATOM      2  O   UNL     1      -1.617   3.604  -5.604  0.00  0.00    -0.272 OA
ATOM      3  N   UNL     1       0.151   4.574  -6.530  0.00  0.00    -0.282 N 
ATOM      4  H   UNL     1       1.102   4.762  -6.492  0.00  0.00    +0.155 HD
ENDROOT
BRANCH   3   5
ATOM      5  C   UNL     1      -0.606   5.006  -7.627  0.00  0.00    +0.050 A 
ATOM      6  C   UNL     1      -1.769   4.335  -7.973  0.00  0.00    +0.052 A 
ATOM      7  C   UNL     1      -2.515   4.764  -9.059  0.00  0.00    +0.069 A 
ATOM      8  C   UNL     1      -2.095   5.871  -9.800  0.00  0.00    +0.068 A 
ATOM      9  C   UNL     1      -0.931   6.538  -9.449  0.00  0.00    +0.045 A 
ATOM     10  C   UNL     1      -0.192   6.111  -8.363  0.00  0.00    +0.041 A 
ATOM     11 BR   UNL     1       1.390   7.027  -7.880  0.00  0.00    -0.048 Br
ATOM     12  N   UNL     1      -3.035   6.058 -10.813  0.00  0.00    -0.306 N 
ATOM     13  H   UNL     1      -3.011   6.753 -11.489  0.00  0.00    +0.170 HD
ATOM     14  C   UNL     1      -3.982   5.109 -10.691  0.00  0.00    +0.325 A 
ATOM     15  O   UNL     1      -4.951   4.989 -11.419  0.00  0.00    -0.247 OA
ATOM     16  N   UNL     1      -3.697   4.314  -9.643  0.00  0.00    -0.306 N 
ATOM     17  H   UNL     1      -4.224   3.556  -9.346  0.00  0.00    +0.170 HD
ENDBRANCH   3   5
BRANCH   1  18
ATOM     18  C   UNL     1       0.353   3.505  -4.308  0.00  0.00    +0.328 C 
BRANCH  18  19
ATOM     19  O   UNL     1      -0.504   2.791  -3.379  0.00  0.00    -0.455 OA
BRANCH  19  20
ATOM     20  C   UNL     1       0.055   2.369  -2.235  0.00  0.00    +0.318 C 
ATOM     21  O   UNL     1       1.223   2.588  -2.016  0.00  0.00    -0.250 OA
BRANCH  20  22
ATOM     22  C   UNL     1      -0.773   1.621  -1.222  0.00  0.00    +0.093 C 
ATOM     23  C   UNL     1       0.092   1.248  -0.005  0.00  0.00    +0.023 C 
ATOM     24  C   UNL     1      -0.546   1.938   1.218  0.00  0.00    +0.001 C 
ATOM     25  C   UNL     1      -1.340   3.124   0.613  0.00  0.00    +0.001 C 
ATOM     26  C   UNL     1      -1.908   2.524  -0.697  0.00  0.00    +0.023 C 
BRANCH  22  32
ATOM     27  C   UNL     1      -2.097  -0.499  -1.077  0.00  0.00    +0.006 A 
ATOM     28  C   UNL     1      -2.631  -1.638  -1.649  0.00  0.00    +0.020 A 
ATOM     29  C   UNL     1      -2.410  -1.908  -2.988  0.00  0.00    +0.041 A 
ATOM     30  C   UNL     1      -1.659  -1.035  -3.755  0.00  0.00    +0.020 A 
ATOM     31  C   UNL     1      -1.129   0.106  -3.183  0.00  0.00    +0.006 A 
ATOM     32  C   UNL     1      -1.351   0.376  -1.845  0.00  0.00    -0.031 A 
ATOM     33 CL   UNL     1      -3.076  -3.342  -3.706  0.00  0.00    -0.084 Cl
ENDBRANCH  22  32
ENDBRANCH  20  22
ENDBRANCH  19  20
ENDBRANCH  18  19
ENDBRANCH   1  18
TORSDOF 6
