REMARK  Name = ZINC20831664
REMARK  9 active torsions:
REMARK  status: ('A' for Active; 'I' for Inactive)
REMARK    1  A    between atoms: C_4  and  C_7
REMARK    2  A    between atoms: C_10  and  S_13
REMARK    3  A    between atoms: N_11  and  N_12
REMARK    4  A    between atoms: S_13  and  C_14
REMARK    5  A    between atoms: C_14  and  C_15
REMARK    6  A    between atoms: N_17  and  C_18
REMARK    7  A    between atoms: C_21  and  S_24
REMARK    8  A    between atoms: S_24  and  N_27
REMARK    9  A    between atoms: N_27  and  C_28
REMARK                            x       y       z     vdW  Elec       q    Type
REMARK                         _______ _______ _______ _____ _____    ______ ____
ROOT
ATOM      1  C   UNL     1       8.722  -0.982  -0.090  0.00  0.00    +0.227 C 
ATOM      2  O   UNL     1       8.072  -0.166  -0.709  0.00  0.00    -0.275 OA
ATOM      3  N   UNL     1       8.124  -2.087   0.399  0.00  0.00    -0.285 N 
ATOM      4  H   UNL     1       8.693  -2.785   1.031  0.00  0.00    +0.155 HD
ENDROOT
BRANCH   3   5
ATOM      5  C   UNL     1       6.782  -2.346   0.103  0.00  0.00    +0.034 A 
ATOM      6  C   UNL     1       6.256  -1.972  -1.127  0.00  0.00    +0.025 A 
ATOM      7  C   UNL     1       4.930  -2.229  -1.416  0.00  0.00    +0.030 A 
ATOM      8  C   UNL     1       4.127  -2.859  -0.483  0.00  0.00    +0.109 A 
ATOM      9  C   UNL     1       4.646  -3.228   0.744  0.00  0.00    +0.030 A 
ATOM     10  C   UNL     1       5.972  -2.978   1.038  0.00  0.00    +0.025 A 
BRANCH   8  11
ATOM     11  S   UNL     1       2.436  -3.186  -0.856  0.00  0.00    +0.072 S 
ATOM     12  O   UNL     1       2.088  -2.336  -1.941  0.00  0.00    -0.150 OA
ATOM     13  O   UNL     1       1.736  -3.168   0.380  0.00  0.00    -0.150 OA
BRANCH  11  14
ATOM     14  N   UNL     1       2.351  -4.739  -1.426  0.00  0.00    -0.216 N 
ATOM     15  H   UNL     1       1.761  -5.492  -0.883  0.00  0.00    +0.174 HD
BRANCH  14  16
ATOM     16  C   UNL     1       3.030  -5.092  -2.596  0.00  0.00    +0.048 A 
ATOM     17  C   UNL     1       3.784  -6.257  -2.637  0.00  0.00    +0.027 A 
ATOM     18  C   UNL     1       4.455  -6.604  -3.794  0.00  0.00    +0.040 A 
ATOM     19  C   UNL     1       4.374  -5.792  -4.912  0.00  0.00    +0.124 A 
ATOM     20  C   UNL     1       3.623  -4.630  -4.873  0.00  0.00    +0.040 A 
ATOM     21  C   UNL     1       2.951  -4.279  -3.719  0.00  0.00    +0.027 A 
ATOM     22  F   UNL     1       5.030  -6.133  -6.043  0.00  0.00    -0.205 F 
ENDBRANCH  14  16
ENDBRANCH  11  14
ENDBRANCH   8  11
ENDBRANCH   3   5
BRANCH   1  23
ATOM     23  C   UNL     1      10.196  -0.762   0.131  0.00  0.00    +0.173 C 
BRANCH  23  24
ATOM     24  S   UNL     1      10.695   0.797  -0.641  0.00  0.00    -0.075 S 
BRANCH  24  28
ATOM     25  C   UNL     1      14.519   1.342  -0.052  0.00  0.00    +0.182 A 
ATOM     26  N   UNL     1      14.295   0.197   0.549  0.00  0.00    -0.127 NA
ATOM     27  N   UNL     1      13.054  -0.119   0.443  0.00  0.00    -0.121 NA
ATOM     28  C   UNL     1      12.411   0.801  -0.240  0.00  0.00    +0.209 A 
ATOM     29  N   UNL     1      13.319   1.765  -0.575  0.00  0.00    -0.224 N 
BRANCH  25  33
ATOM     30  C   UNL     1      18.245   3.364  -0.326  0.00  0.00    +0.000 A 
ATOM     31  C   UNL     1      17.070   4.047  -0.584  0.00  0.00    +0.001 A 
ATOM     32  C   UNL     1      15.856   3.397  -0.496  0.00  0.00    +0.011 A 
ATOM     33  C   UNL     1      15.816   2.046  -0.147  0.00  0.00    +0.021 A 
ATOM     34  C   UNL     1      17.004   1.364   0.117  0.00  0.00    +0.011 A 
ATOM     35  C   UNL     1      18.212   2.025   0.020  0.00  0.00    +0.001 A 
ENDBRANCH  25  33
BRANCH  29  36
ATOM     36  N   UNL     1      13.085   2.909  -1.283  0.00  0.00    -0.295 N 
ATOM     37  H   UNL     1      12.071   3.132  -1.649  0.00  0.00    +0.163 HD
ATOM     38  H   UNL     1      13.909   3.608  -1.488  0.00  0.00    +0.163 HD
ENDBRANCH  29  36
ENDBRANCH  24  28
ENDBRANCH  23  24
ENDBRANCH   1  23
TORSDOF 9
