REMARK  Name = ZINC03410969
REMARK  8 active torsions:
REMARK  status: ('A' for Active; 'I' for Inactive)
REMARK    1  A    between atoms: C_1  and  C_2
REMARK    2  A    between atoms: C_5  and  C_8
REMARK    3  A    between atoms: C_11  and  S_14
REMARK    4  A    between atoms: N_12  and  N_13
REMARK    5  A    between atoms: S_14  and  C_15
REMARK    6  A    between atoms: C_15  and  C_16
REMARK    7  A    between atoms: C_28  and  C_29
REMARK    8  A    between atoms: C_28  and  C_30
REMARK                            x       y       z     vdW  Elec       q    Type
REMARK                         _______ _______ _______ _____ _____    ______ ____
ROOT
ATOM      1  C   UNL     1       0.508  -9.194   0.095  0.00  0.00    +0.173 C 
ENDROOT
BRANCH   1   2
ATOM      2  C   UNL     1       0.579 -10.510   0.826  0.00  0.00    +0.231 C 
ATOM      3  O   UNL     1       0.948 -10.543   1.981  0.00  0.00    -0.274 OA
ATOM      4  N   UNL     1       0.233 -11.650   0.197  0.00  0.00    -0.255 N 
ATOM      5  C   UNL     1      -0.117 -11.650  -1.162  0.00  0.00    +0.059 A 
ATOM      6  C   UNL     1      -0.694 -10.540  -1.751  0.00  0.00    +0.025 A 
ATOM      7  C   UNL     1      -1.032 -10.571  -3.092  0.00  0.00    +0.002 A 
ATOM      8  C   UNL     1      -0.793 -11.708  -3.843  0.00  0.00    +0.002 A 
ATOM      9  C   UNL     1      -0.216 -12.822  -3.260  0.00  0.00    +0.025 A 
ATOM     10  C   UNL     1       0.128 -12.798  -1.918  0.00  0.00    +0.055 A 
ATOM     11  N   UNL     1       0.724 -13.909  -1.312  0.00  0.00    -0.282 N 
ATOM     12  C   UNL     1       0.806 -14.000   0.029  0.00  0.00    +0.241 C 
ATOM     13  O   UNL     1       1.367 -14.951   0.531  0.00  0.00    -0.273 OA
ATOM     14  C   UNL     1       0.215 -12.936   0.911  0.00  0.00    +0.113 C 
ATOM     15  C   UNL     1      -1.227 -13.308   1.260  0.00  0.00    +0.042 C 
ATOM     16  C   UNL     1       1.040 -12.820   2.194  0.00  0.00    +0.042 C 
ATOM     17  H   UNL     1       1.083 -14.621  -1.864  0.00  0.00    +0.155 HD
ENDBRANCH   1   2
BRANCH   1  18
ATOM     18  S   UNL     1       1.492  -7.955   0.982  0.00  0.00    -0.075 S 
BRANCH  18  22
ATOM     19  C   UNL     1       1.451  -4.450  -0.744  0.00  0.00    +0.182 A 
ATOM     20  N   UNL     1       0.694  -5.171  -1.537  0.00  0.00    -0.127 NA
ATOM     21  N   UNL     1       0.610  -6.373  -1.091  0.00  0.00    -0.121 NA
ATOM     22  C   UNL     1       1.310  -6.494   0.015  0.00  0.00    +0.209 A 
ATOM     23  N   UNL     1       1.873  -5.277   0.272  0.00  0.00    -0.224 N 
BRANCH  19  28
ATOM     24  C   UNL     1       2.774   1.112  -1.401  0.00  0.00    +0.044 C 
ATOM     25  C   UNL     1       2.428  -0.345  -1.229  0.00  0.00    -0.050 A 
ATOM     26  C   UNL     1       1.880  -1.052  -2.284  0.00  0.00    +0.004 A 
ATOM     27  C   UNL     1       1.560  -2.385  -2.133  0.00  0.00    +0.012 A 
ATOM     28  C   UNL     1       1.792  -3.022  -0.913  0.00  0.00    +0.021 A 
ATOM     29  C   UNL     1       2.346  -2.303   0.148  0.00  0.00    +0.012 A 
ATOM     30  C   UNL     1       2.665  -0.971  -0.018  0.00  0.00    +0.004 A 
ENDBRANCH  19  28
BRANCH  23  31
ATOM     31  N   UNL     1       2.685  -4.948   1.320  0.00  0.00    -0.295 N 
ATOM     32  H   UNL     1       2.145  -4.621   2.107  0.00  0.00    +0.163 HD
ATOM     33  H   UNL     1       3.271  -5.727   1.582  0.00  0.00    +0.163 HD
ENDBRANCH  23  31
ENDBRANCH  18  22
ENDBRANCH   1  18
TORSDOF 5
