REMARK  Name = ZINC22687926
REMARK  9 active torsions:
REMARK  status: ('A' for Active; 'I' for Inactive)
REMARK    1  A    between atoms: C_1  and  C_2
REMARK    2  A    between atoms: C_2  and  C_3
REMARK    3  A    between atoms: C_2  and  C_4
REMARK    4  A    between atoms: C_4  and  C_6
REMARK    5  A    between atoms: C_4  and  N_22
REMARK    6  A    between atoms: N_8  and  N_9
REMARK    7  A    between atoms: C_10  and  C_12
REMARK    8  A    between atoms: N_22  and  S_23
REMARK    9  A    between atoms: S_23  and  C_26
REMARK                            x       y       z     vdW  Elec       q    Type
REMARK                         _______ _______ _______ _____ _____    ______ ____
ROOT
ATOM      1  C   UNL     1      -8.900   0.622   2.026  0.00  0.00    +0.166 C 
ENDROOT
BRANCH   1   2
ATOM      2  C   UNL     1      -7.426   0.891   2.178  0.00  0.00    +0.248 C 
ATOM      3  O   UNL     1      -6.986   1.279   3.240  0.00  0.00    -0.273 OA
ATOM      4  N   UNL     1      -6.594   0.701   1.135  0.00  0.00    -0.233 N 
ATOM      5  H   UNL     1      -6.978   0.273   0.197  0.00  0.00    +0.173 HD
BRANCH   4   6
ATOM      6  N   UNL     1      -5.242   1.048   1.244  0.00  0.00    -0.234 N 
ATOM      7  C   UNL     1      -4.410   0.857   0.200  0.00  0.00    +0.235 C 
ATOM      8  O   UNL     1      -4.834   0.385  -0.834  0.00  0.00    -0.274 OA
ATOM      9  H   UNL     1      -4.858   1.476   2.182  0.00  0.00    +0.173 HD
BRANCH   7  10
ATOM     10  C   UNL     1      -2.955   1.231   0.318  0.00  0.00    +0.049 C 
ATOM     11  C   UNL     1      -2.240   0.915  -0.997  0.00  0.00    +0.019 C 
ATOM     12  C   UNL     1      -0.762   1.294  -0.878  0.00  0.00    -0.009 C 
ATOM     13  C   UNL     1      -0.120   0.494   0.257  0.00  0.00    +0.007 C 
ATOM     14  C   UNL     1      -0.836   0.809   1.572  0.00  0.00    -0.009 C 
ATOM     15  C   UNL     1      -2.313   0.430   1.453  0.00  0.00    +0.019 C 
ATOM     16  C   UNL     1      -0.716   2.305   1.872  0.00  0.00    +0.007 C 
ATOM     17  C   UNL     1      -1.358   3.106   0.737  0.00  0.00    -0.009 C 
ATOM     18  C   UNL     1      -0.642   2.790  -0.578  0.00  0.00    +0.007 C 
ATOM     19  C   UNL     1      -2.835   2.726   0.618  0.00  0.00    +0.019 C 
ENDBRANCH   7  10
ENDBRANCH   4   6
ENDBRANCH   1   2
BRANCH   1  21
ATOM     20  C   UNL     1      -8.703  -1.370   3.520  0.00  0.00    +0.009 C 
ATOM     21  C   UNL     1      -9.160  -0.881   2.144  0.00  0.00    +0.010 C 
ATOM     22  C   UNL     1     -10.656  -1.155   1.976  0.00  0.00    +0.009 C 
ENDBRANCH   1  21
BRANCH   1  23
ATOM     23  N   UNL     1      -9.637   1.329   3.077  0.00  0.00    -0.178 NA
ATOM     24  H   UNL     1      -9.898   0.809   4.010  0.00  0.00    +0.149 HD
BRANCH  23  25
ATOM     25  S   UNL     1     -10.291   2.820   2.770  0.00  0.00    +0.059 S 
ATOM     26  O   UNL     1     -11.006   3.197   3.938  0.00  0.00    -0.153 OA
ATOM     27  O   UNL     1      -9.248   3.616   2.225  0.00  0.00    -0.153 OA
BRANCH  25  28
ATOM     28  C   UNL     1     -11.486   2.611   1.493  0.00  0.00    +0.106 A 
ATOM     29  C   UNL     1     -11.086   2.683   0.160  0.00  0.00    +0.029 A 
ATOM     30  C   UNL     1     -11.983   2.521  -0.851  0.00  0.00    +0.010 A 
ATOM     31  C   UNL     1     -13.336   2.290  -0.549  0.00  0.00    -0.018 A 
ATOM     32  C   UNL     1     -14.292   2.125  -1.566  0.00  0.00    +0.008 A 
ATOM     33  C   UNL     1     -15.594   1.903  -1.236  0.00  0.00    +0.001 A 
ATOM     34  C   UNL     1     -15.995   1.837   0.097  0.00  0.00    +0.001 A 
ATOM     35  C   UNL     1     -15.097   1.993   1.108  0.00  0.00    +0.008 A 
ATOM     36  C   UNL     1     -13.744   2.223   0.806  0.00  0.00    -0.016 A 
ATOM     37  C   UNL     1     -12.788   2.389   1.823  0.00  0.00    +0.037 A 
ENDBRANCH  25  28
ENDBRANCH  23  25
ENDBRANCH   1  23
TORSDOF 7
