REMARK  Name = ZINC21223556
REMARK  6 active torsions:
REMARK  status: ('A' for Active; 'I' for Inactive)
REMARK    1  A    between atoms: C_1  and  C_2
REMARK    2  A    between atoms: C_2  and  C_3
REMARK    3  A    between atoms: C_6  and  C_9
REMARK    4  A    between atoms: C_14  and  C_24
REMARK    5  A    between atoms: C_27  and  C_30
REMARK    6  A    between atoms: C_30  and  C_31
REMARK                            x       y       z     vdW  Elec       q    Type
REMARK                         _______ _______ _______ _____ _____    ______ ____
ROOT
ATOM      1  C   UNL     1       3.472  -6.097  -4.937  0.00  0.00    +0.032 C 
ATOM      2  C   UNL     1       2.076  -5.688  -5.402  0.00  0.00    +0.059 C 
ATOM      3  C   UNL     1       2.003  -4.177  -5.553  0.00  0.00    +0.017 C 
ATOM      4  C   UNL     1       2.712  -3.379  -4.739  0.00  0.00    +0.036 C 
ATOM      5  C   UNL     1       2.707  -1.869  -4.752  0.00  0.00    +0.136 C 
ATOM      6  N   UNL     1       2.061  -1.283  -5.908  0.00  0.00    -0.331 N 
ATOM      7  C   UNL     1       0.698  -1.457  -6.137  0.00  0.00    +0.049 A 
ATOM      8  C   UNL     1      -0.185  -0.390  -6.103  0.00  0.00    +0.025 A 
ATOM      9  C   UNL     1      -1.537  -0.618  -6.292  0.00  0.00    +0.002 A 
ATOM     10  C   UNL     1      -2.006  -1.901  -6.510  0.00  0.00    +0.002 A 
ATOM     11  C   UNL     1      -1.125  -2.967  -6.562  0.00  0.00    +0.025 A 
ATOM     12  C   UNL     1       0.229  -2.737  -6.393  0.00  0.00    +0.052 A 
ATOM     13  N   UNL     1       1.176  -3.745  -6.539  0.00  0.00    -0.316 N 
ATOM     14  C   UNL     1       3.565  -3.937  -3.758  0.00  0.00    +0.163 C 
ATOM     15  O   UNL     1       4.185  -3.190  -3.026  0.00  0.00    -0.292 OA
ATOM     16  C   UNL     1       3.732  -5.417  -3.588  0.00  0.00    +0.088 C 
ATOM     17  H   UNL     1       2.648  -0.688  -6.623  0.00  0.00    +0.147 HD
ATOM     18  H   UNL     1       1.228  -4.199  -7.539  0.00  0.00    +0.152 HD
ENDROOT
BRANCH   1  22
ATOM     19  C   UNL     1       3.659 -10.340  -4.478  0.00  0.00    -0.048 A 
ATOM     20  C   UNL     1       4.502  -9.703  -5.370  0.00  0.00    +0.004 A 
ATOM     21  C   UNL     1       4.442  -8.330  -5.518  0.00  0.00    +0.004 A 
ATOM     22  C   UNL     1       3.538  -7.594  -4.775  0.00  0.00    -0.043 A 
ATOM     23  C   UNL     1       2.698  -8.230  -3.880  0.00  0.00    +0.004 A 
ATOM     24  C   UNL     1       2.755  -9.604  -3.735  0.00  0.00    +0.004 A 
BRANCH  19  26
ATOM     25  C   UNL     1       4.732 -12.188  -3.220  0.00  0.00    +0.009 C 
ATOM     26  C   UNL     1       3.725 -11.837  -4.317  0.00  0.00    +0.032 C 
ENDBRANCH  19  26
ENDBRANCH   1  22
BRANCH   5  27
ATOM     27  C   UNL     1       2.001  -1.383  -3.512  0.00  0.00    -0.023 A 
ATOM     28  C   UNL     1       0.653  -1.633  -3.341  0.00  0.00    +0.006 A 
ATOM     29  C   UNL     1       0.006  -1.187  -2.204  0.00  0.00    +0.004 A 
ATOM     30  C   UNL     1       0.707  -0.490  -1.238  0.00  0.00    -0.048 A 
ATOM     31  C   UNL     1       2.055  -0.235  -1.411  0.00  0.00    +0.004 A 
ATOM     32  C   UNL     1       2.703  -0.685  -2.547  0.00  0.00    +0.006 A 
BRANCH  30  33
ATOM     33  C   UNL     1       0.002  -0.003   0.002  0.00  0.00    +0.032 C 
ATOM     34  C   UNL     1       0.078  -1.079   1.087  0.00  0.00    +0.009 C 
ENDBRANCH  30  33
ENDBRANCH   5  27
TORSDOF 4
