REMARK  Name = ZINC09382286
REMARK  10 active torsions:
REMARK  status: ('A' for Active; 'I' for Inactive)
REMARK    1  A    between atoms: C_1  and  C_2
REMARK    2  A    between atoms: C_2  and  O_3
REMARK    3  A    between atoms: O_3  and  C_4
REMARK    4  A    between atoms: C_4  and  C_6
REMARK    5  A    between atoms: C_10  and  N_11
REMARK    6  A    between atoms: C_12  and  C_14
REMARK    7  A    between atoms: C_14  and  S_15
REMARK    8  A    between atoms: S_15  and  C_16
REMARK    9  A    between atoms: C_19  and  C_22
REMARK   10  A    between atoms: N_20  and  C_21
REMARK                            x       y       z     vdW  Elec       q    Type
REMARK                         _______ _______ _______ _____ _____    ______ ____
ROOT
ATOM      1  N   UNL     1      -0.601  -2.418  -3.929  0.00  0.00    -0.279 N 
ATOM      2  C   UNL     1      -1.105  -2.671  -5.153  0.00  0.00    +0.228 C 
ATOM      3  O   UNL     1      -0.366  -2.989  -6.059  0.00  0.00    -0.275 OA
ATOM      4  H   UNL     1      -1.193  -2.164  -3.203  0.00  0.00    +0.155 HD
ENDROOT
BRANCH   1   9
ATOM      5  C   UNL     1       1.453  -2.302  -2.525  0.00  0.00    +0.091 A 
ATOM      6  C   UNL     1       2.898  -2.484  -2.550  0.00  0.00    -0.021 A 
ATOM      7  C   UNL     1       3.383  -2.842  -3.757  0.00  0.00    -0.004 A 
ATOM      8  S   UNL     1       1.960  -2.940  -4.806  0.00  0.00    -0.077 S 
ATOM      9  C   UNL     1       0.763  -2.522  -3.706  0.00  0.00    +0.086 A 
ATOM     10  C   UNL     1       4.811  -3.089  -4.132  0.00  0.00    +0.043 C 
ATOM     11  C   UNL     1       5.449  -4.025  -3.097  0.00  0.00    +0.005 C 
ATOM     12  C   UNL     1       6.040  -3.179  -1.973  0.00  0.00    +0.001 C 
ATOM     13  C   UNL     1       5.194  -1.925  -1.757  0.00  0.00    +0.005 C 
ATOM     14  C   UNL     1       3.781  -2.303  -1.324  0.00  0.00    +0.037 C 
BRANCH   5  15
ATOM     15  C   UNL     1       0.756  -1.908  -1.299  0.00  0.00    +0.342 C 
ATOM     16  O   UNL     1       0.348  -2.759  -0.531  0.00  0.00    -0.245 OA
BRANCH  15  17
ATOM     17  O   UNL     1       0.568  -0.602  -1.020  0.00  0.00    -0.461 OA
BRANCH  17  19
ATOM     18  C   UNL     1      -0.237   1.229   0.337  0.00  0.00    +0.048 C 
ATOM     19  C   UNL     1      -0.119  -0.290   0.193  0.00  0.00    +0.229 C 
ENDBRANCH  17  19
ENDBRANCH  15  17
ENDBRANCH   5  15
ENDBRANCH   1   9
BRANCH   2  20
ATOM     20  C   UNL     1      -2.589  -2.558  -5.395  0.00  0.00    +0.173 C 
BRANCH  20  21
ATOM     21  S   UNL     1      -2.951  -2.957  -7.127  0.00  0.00    -0.077 S 
BRANCH  21  22
ATOM     22  C   UNL     1      -4.700  -2.782  -7.248  0.00  0.00    +0.192 A 
ATOM     23  N   UNL     1      -5.516  -2.434  -6.281  0.00  0.00    -0.122 NA
ATOM     24  N   UNL     1      -6.726  -2.404  -6.713  0.00  0.00    -0.128 NA
ATOM     25  C   UNL     1      -6.757  -2.732  -7.984  0.00  0.00    +0.167 A 
ATOM     26  N   UNL     1      -5.460  -2.978  -8.368  0.00  0.00    -0.305 N 
ATOM     27  C   UNL     1      -4.990  -3.372  -9.699  0.00  0.00    +0.153 C 
BRANCH  25  28
ATOM     28  C   UNL     1      -7.957  -2.814  -8.841  0.00  0.00    +0.044 A 
ATOM     29  C   UNL     1      -8.278  -3.821  -9.694  0.00  0.00    +0.095 A 
ATOM     30  N   UNL     1      -9.463  -3.542 -10.311  0.00  0.00    -0.360 N 
ATOM     31  H   UNL     1      -9.897  -4.114 -10.963  0.00  0.00    +0.165 HD
ATOM     32  C   UNL     1      -9.955  -2.331  -9.872  0.00  0.00    +0.047 A 
ATOM     33  C   UNL     1      -9.043  -1.823  -8.931  0.00  0.00    +0.010 A 
ATOM     34  C   UNL     1      -9.290  -0.599  -8.312  0.00  0.00    +0.011 A 
ATOM     35  C   UNL     1     -10.431   0.106  -8.623  0.00  0.00    +0.001 A 
ATOM     36  C   UNL     1     -11.334  -0.397  -9.550  0.00  0.00    +0.002 A 
ATOM     37  C   UNL     1     -11.099  -1.601 -10.177  0.00  0.00    +0.026 A 
ENDBRANCH  25  28
ENDBRANCH  21  22
ENDBRANCH  20  21
ENDBRANCH   2  20
TORSDOF 8
