REMARK  Name = ZINC35758139
REMARK  13 active torsions:
REMARK  status: ('A' for Active; 'I' for Inactive)
REMARK    1  A    between atoms: C_1  and  C_2
REMARK    2  A    between atoms: N_5  and  C_8
REMARK    3  A    between atoms: C_9  and  C_19
REMARK    4  A    between atoms: C_10  and  C_13
REMARK    5  A    between atoms: C_19  and  N_20
REMARK    6  A    between atoms: N_20  and  C_21
REMARK    7  A    between atoms: N_20  and  C_27
REMARK    8  A    between atoms: C_21  and  C_22
REMARK    9  A    between atoms: C_27  and  C_28
REMARK   10  A    between atoms: C_28  and  C_30
REMARK   11  A    between atoms: C_28  and  O_38
REMARK   12  A    between atoms: C_30  and  O_31
REMARK   13  A    between atoms: O_31  and  C_32
REMARK                            x       y       z     vdW  Elec       q    Type
REMARK                         _______ _______ _______ _____ _____    ______ ____
ROOT
ATOM      1  N   UNL     1       1.531  -5.240   2.566  0.00  0.00    +0.389 N 
ATOM      2  H   UNL     1       0.671  -5.449   2.082  0.00  0.00    -0.081 HD
ENDROOT
BRANCH   1   3
ATOM      3  C   UNL     1       2.214  -4.127   1.893  0.00  0.00    -0.035 C 
BRANCH   3   5
ATOM      4  C   UNL     1       1.490  -4.309  -0.548  0.00  0.00    +0.222 A 
ATOM      5  C   UNL     1       2.410  -4.464   0.438  0.00  0.00    +0.025 A 
ATOM      6  C   UNL     1       3.581  -4.997  -0.140  0.00  0.00    +0.117 A 
ATOM      7  N   UNL     1       3.364  -5.152  -1.425  0.00  0.00    -0.076 NA
ATOM      8  O   UNL     1       2.042  -4.726  -1.701  0.00  0.00    -0.339 OA
BRANCH   4  13
ATOM      9  C   UNL     1      -3.455  -2.592  -2.181  0.00  0.00    +0.007 C 
ATOM     10  C   UNL     1      -2.361  -2.915  -1.161  0.00  0.00    -0.011 C 
ATOM     11  C   UNL     1      -1.999  -4.399  -1.254  0.00  0.00    +0.022 C 
ATOM     12  C   UNL     1      -0.929  -4.726  -0.208  0.00  0.00    +0.108 C 
ATOM     13  N   UNL     1       0.208  -3.814  -0.394  0.00  0.00    -0.299 N 
ATOM     14  C   UNL     1      -0.042  -2.367  -0.411  0.00  0.00    +0.108 C 
ATOM     15  C   UNL     1      -1.123  -2.066  -1.455  0.00  0.00    +0.022 C 
ENDBRANCH   4  13
BRANCH   6  16
ATOM     16  C   UNL     1       4.839  -5.324   0.579  0.00  0.00    +0.004 A 
ATOM     17  C   UNL     1       5.516  -6.508   0.299  0.00  0.00    +0.010 A 
ATOM     18  C   UNL     1       6.685  -6.807   0.970  0.00  0.00    +0.001 A 
ATOM     19  C   UNL     1       7.183  -5.932   1.919  0.00  0.00    +0.000 A 
ATOM     20  C   UNL     1       6.514  -4.755   2.201  0.00  0.00    +0.001 A 
ATOM     21  C   UNL     1       5.348  -4.444   1.532  0.00  0.00    +0.010 A 
ENDBRANCH   6  16
ENDBRANCH   3   5
ENDBRANCH   1   3
BRANCH   1  22
ATOM     22  C   UNL     1       2.400  -6.425   2.555  0.00  0.00    -0.003 C 
BRANCH  22  23
ATOM     23  C   UNL     1       1.649  -7.603   3.120  0.00  0.00    +0.089 A 
ATOM     24  C   UNL     1       0.951  -8.506   2.408  0.00  0.00    +0.042 A 
ATOM     25  C   UNL     1       0.413  -9.431   3.333  0.00  0.00    +0.041 A 
ATOM     26  C   UNL     1       0.815  -9.037   4.555  0.00  0.00    +0.195 A 
ATOM     27  O   UNL     1       1.568  -7.933   4.420  0.00  0.00    -0.470 OA
ENDBRANCH  22  23
ENDBRANCH   1  22
BRANCH   1  28
ATOM     28  C   UNL     1       1.233  -4.864   3.955  0.00  0.00    -0.043 C 
BRANCH  28  29
ATOM     29  C   UNL     1       0.213  -3.724   3.966  0.00  0.00    +0.135 C 
BRANCH  29  30
ATOM     30  O   UNL     1      -1.014  -4.177   3.390  0.00  0.00    -0.390 OA
ATOM     31  H   UNL     1      -1.453  -4.873   3.897  0.00  0.00    +0.210 HD
ENDBRANCH  29  30
BRANCH  29  32
ATOM     32  C   UNL     1      -0.036  -3.277   5.408  0.00  0.00    +0.258 C 
BRANCH  32  33
ATOM     33  O   UNL     1      -0.898  -2.138   5.412  0.00  0.00    -0.489 OA
BRANCH  33  34
ATOM     34  C   UNL     1      -1.220  -1.612   6.623  0.00  0.00    +0.121 A 
ATOM     35  C   UNL     1      -0.713  -2.177   7.783  0.00  0.00    +0.045 A 
ATOM     36  C   UNL     1      -1.042  -1.640   9.013  0.00  0.00    +0.004 A 
ATOM     37  C   UNL     1      -1.877  -0.541   9.088  0.00  0.00    +0.000 A 
ATOM     38  C   UNL     1      -2.385   0.024   7.932  0.00  0.00    +0.004 A 
ATOM     39  C   UNL     1      -2.054  -0.505   6.700  0.00  0.00    +0.045 A 
ENDBRANCH  33  34
ENDBRANCH  32  33
ENDBRANCH  29  32
ENDBRANCH  28  29
ENDBRANCH   1  28
TORSDOF 12
