REMARK  Name = ZINC16949455
REMARK  7 active torsions:
REMARK  status: ('A' for Active; 'I' for Inactive)
REMARK    1  A    between atoms: C_4  and  N_7
REMARK    2  A    between atoms: C_8  and  C_23
REMARK    3  A    between atoms: N_12  and  N_13
REMARK    4  A    between atoms: C_14  and  C_15
REMARK    5  A    between atoms: C_18  and  O_22
REMARK    6  A    between atoms: C_20  and  O_21
REMARK    7  A    between atoms: C_27  and  O_29
REMARK                            x       y       z     vdW  Elec       q    Type
REMARK                         _______ _______ _______ _____ _____    ______ ____
ROOT
ATOM      1  N   UNL     1       8.814   4.579   2.443  0.00  0.00    -0.287 N 
ATOM      2  C   UNL     1       9.234   4.809   3.724  0.00  0.00    +0.063 A 
ATOM      3  C   UNL     1       8.335   4.817   4.731  0.00  0.00    +0.075 A 
ATOM      4  S   UNL     1       6.804   4.497   3.869  0.00  0.00    -0.055 S 
ATOM      5  C   UNL     1       7.471   4.373   2.217  0.00  0.00    +0.199 A 
ATOM      6  N   UNL     1       6.842   4.139   1.077  0.00  0.00    -0.124 NA
ENDROOT
BRANCH   1  10
ATOM      7  C   UNL     1      11.536   4.518  -0.711  0.00  0.00    +0.000 A 
ATOM      8  C   UNL     1      11.800   3.802   0.443  0.00  0.00    +0.002 A 
ATOM      9  C   UNL     1      10.899   3.820   1.490  0.00  0.00    +0.026 A 
ATOM     10  C   UNL     1       9.728   4.559   1.384  0.00  0.00    +0.049 A 
ATOM     11  C   UNL     1       9.463   5.272   0.222  0.00  0.00    +0.026 A 
ATOM     12  C   UNL     1      10.370   5.255  -0.819  0.00  0.00    +0.002 A 
ENDBRANCH   1  10
BRANCH   2  13
ATOM     13  C   UNL     1      10.668   5.040   4.006  0.00  0.00    +0.003 A 
ATOM     14  C   UNL     1      11.278   4.409   5.092  0.00  0.00    +0.010 A 
ATOM     15  C   UNL     1      12.617   4.623   5.349  0.00  0.00    +0.004 A 
ATOM     16  C   UNL     1      13.354   5.468   4.540  0.00  0.00    +0.045 A 
ATOM     17  C   UNL     1      12.754   6.104   3.462  0.00  0.00    +0.117 A 
ATOM     18  C   UNL     1      11.412   5.892   3.192  0.00  0.00    +0.055 A 
BRANCH  17  19
ATOM     19  O   UNL     1      13.484   6.934   2.670  0.00  0.00    -0.507 OA
ATOM     20  H   UNL     1      13.483   7.856   2.961  0.00  0.00    +0.292 HD
ENDBRANCH  17  19
ENDBRANCH   2  13
BRANCH   6  21
ATOM     21  N   UNL     1       5.564   3.964   1.070  0.00  0.00    -0.154 NA
ATOM     22  C   UNL     1       4.942   3.733  -0.056  0.00  0.00    +0.146 C 
BRANCH  22  23
ATOM     23  C   UNL     1       3.485   3.534  -0.064  0.00  0.00    +0.036 A 
ATOM     24  C   UNL     1       2.817   3.286  -1.268  0.00  0.00    +0.016 A 
ATOM     25  C   UNL     1       1.451   3.101  -1.270  0.00  0.00    +0.046 A 
ATOM     26  C   UNL     1       0.735   3.159  -0.081  0.00  0.00    +0.120 A 
ATOM     27  C   UNL     1       1.388   3.410   1.118  0.00  0.00    +0.091 A 
ATOM     28  C   UNL     1       2.759   3.592   1.135  0.00  0.00    +0.129 A 
BRANCH  28  29
ATOM     29  O   UNL     1       3.400   3.833   2.309  0.00  0.00    -0.506 OA
ATOM     30  H   UNL     1       3.467   4.771   2.535  0.00  0.00    +0.292 HD
ENDBRANCH  28  29
BRANCH  26  31
ATOM     31  O   UNL     1      -0.611   2.976  -0.092  0.00  0.00    -0.507 OA
ATOM     32  H   UNL     1      -0.883   2.054   0.018  0.00  0.00    +0.292 HD
ENDBRANCH  26  31
ENDBRANCH  22  23
ENDBRANCH   6  21
TORSDOF 7
