REMARK  Name = ZINC39637437
REMARK  10 active torsions:
REMARK  status: ('A' for Active; 'I' for Inactive)
REMARK    1  A    between atoms: C_1  and  C_2
REMARK    2  A    between atoms: C_2  and  C_3
REMARK    3  A    between atoms: C_3  and  C_4
REMARK    4  A    between atoms: C_4  and  C_5
REMARK    5  A    between atoms: C_5  and  C_7
REMARK    6  A    between atoms: C_5  and  C_8
REMARK    7  A    between atoms: C_12  and  C_21
REMARK    8  A    between atoms: N_23  and  C_24
REMARK    9  A    between atoms: C_29  and  C_34
REMARK   10  A    between atoms: C_31  and  C_33
REMARK                            x       y       z     vdW  Elec       q    Type
REMARK                         _______ _______ _______ _____ _____    ______ ____
ROOT
ATOM      1  C   UNL     1       1.298  -4.250  -2.830  0.00  0.00    +0.218 C 
ATOM      2  O   UNL     1       0.620  -4.935  -2.094  0.00  0.00    -0.275 OA
ATOM      3  N   UNL     1       2.053  -4.830  -3.784  0.00  0.00    -0.300 N 
ATOM      4  C   UNL     1       3.021  -4.179  -4.698  0.00  0.00    +0.121 C 
ATOM      5  C   UNL     1       4.201  -5.172  -4.789  0.00  0.00    +0.100 C 
ATOM      6  C   UNL     1       3.592  -6.539  -4.435  0.00  0.00    -0.004 C 
ATOM      7  C   UNL     1       2.107  -6.265  -4.153  0.00  0.00    +0.115 C 
ATOM      8  C   UNL     1       4.263  -7.110  -3.190  0.00  0.00    -0.010 C 
ATOM      9  C   UNL     1       3.680  -8.495  -2.892  0.00  0.00    -0.082 C 
ATOM     10  N   UNL     1       3.902  -9.379  -4.042  0.00  0.00    +0.379 N 
ATOM     11  C   UNL     1       3.177  -8.871  -5.212  0.00  0.00    -0.082 C 
ATOM     12  C   UNL     1       3.738  -7.503  -5.609  0.00  0.00    -0.010 C 
ATOM     13  H   UNL     1       4.889  -9.417  -4.250  0.00  0.00    -0.086 HD
ATOM     14  H   UNL     1       3.572 -10.307  -3.820  0.00  0.00    -0.086 HD
ENDROOT
BRANCH   5  15
ATOM     15  C   UNL     1       4.763  -5.192  -6.187  0.00  0.00    +0.218 C 
ATOM     16  O   UNL     1       4.043  -4.954  -7.134  0.00  0.00    -0.275 OA
ATOM     17  N   UNL     1       6.066  -5.473  -6.386  0.00  0.00    -0.312 N 
ATOM     18  H   UNL     1       6.642  -5.663  -5.629  0.00  0.00    +0.149 HD
BRANCH  17  19
ATOM     19  C   UNL     1       6.612  -5.492  -7.745  0.00  0.00    +0.076 C 
ATOM     20  C   UNL     1       6.371  -6.866  -8.373  0.00  0.00    +0.022 C 
ATOM     21  C   UNL     1       6.942  -6.886  -9.792  0.00  0.00    +0.002 C 
ATOM     22  C   UNL     1       8.445  -6.606  -9.742  0.00  0.00    +0.003 C 
ATOM     23  C   UNL     1       8.686  -5.231  -9.114  0.00  0.00    -0.009 C 
ATOM     24  C   UNL     1       8.116  -5.211  -7.695  0.00  0.00    +0.009 C 
ATOM     25  C   UNL     1       8.807  -6.285  -6.852  0.00  0.00    +0.009 C 
ATOM     26  C   UNL     1      10.189  -4.950  -9.064  0.00  0.00    +0.008 C 
ENDBRANCH  17  19
ENDBRANCH   5  15
BRANCH   1  27
ATOM     27  C   UNL     1       1.297  -2.751  -2.679  0.00  0.00    +0.072 C 
ATOM     28  C   UNL     1       2.384  -2.338  -1.684  0.00  0.00    +0.017 C 
BRANCH  27  29
ATOM     29  C   UNL     1      -0.068  -2.292  -2.162  0.00  0.00    +0.012 C 
BRANCH  29  30
ATOM     30  C   UNL     1      -0.113  -0.763  -2.126  0.00  0.00    +0.000 C 
BRANCH  30  32
ATOM     31  C   UNL     1      -1.522   1.224  -1.573  0.00  0.00    +0.004 C 
ATOM     32  C   UNL     1      -1.478  -0.305  -1.609  0.00  0.00    -0.003 C 
ENDBRANCH  30  32
ENDBRANCH  29  30
ENDBRANCH  27  29
ENDBRANCH   1  27
TORSDOF 6
