REMARK  Name = ZINC08686732
REMARK  9 active torsions:
REMARK  status: ('A' for Active; 'I' for Inactive)
REMARK    1  A    between atoms: C_1  and  C_2
REMARK    2  A    between atoms: C_5  and  N_8
REMARK    3  A    between atoms: C_9  and  C_11
REMARK    4  A    between atoms: C_11  and  N_12
REMARK    5  A    between atoms: C_19  and  N_22
REMARK    6  A    between atoms: C_20  and  O_21
REMARK    7  A    between atoms: N_23  and  C_24
REMARK    8  A    between atoms: C_24  and  C_26
REMARK    9  A    between atoms: C_35  and  O_36
REMARK                            x       y       z     vdW  Elec       q    Type
REMARK                         _______ _______ _______ _____ _____    ______ ____
ROOT
ATOM      1  N   UNL     1       0.420  -6.845   2.495  0.00  0.00    -0.301 N 
ATOM      2  C   UNL     1       1.613  -7.005   3.182  0.00  0.00    +0.055 A 
ATOM      3  C   UNL     1       2.938  -6.775   2.833  0.00  0.00    +0.026 A 
ATOM      4  C   UNL     1       3.945  -7.031   3.741  0.00  0.00    +0.002 A 
ATOM      5  C   UNL     1       3.648  -7.517   5.005  0.00  0.00    +0.001 A 
ATOM      6  C   UNL     1       2.339  -7.752   5.369  0.00  0.00    +0.012 A 
ATOM      7  C   UNL     1       1.315  -7.497   4.461  0.00  0.00    +0.031 A 
ATOM      8  C   UNL     1      -0.155  -7.630   4.518  0.00  0.00    +0.152 A 
ATOM      9  C   UNL     1      -0.630  -7.204   3.272  0.00  0.00    +0.222 A 
ENDROOT
BRANCH   9  10
ATOM     10  O   UNL     1      -1.927  -7.160   2.903  0.00  0.00    -0.492 OA
ATOM     11  H   UNL     1      -2.247  -7.975   2.492  0.00  0.00    +0.294 HD
ENDBRANCH   9  10
BRANCH   8  12
ATOM     12  N   UNL     1      -0.884  -8.065   5.550  0.00  0.00    -0.151 NA
ATOM     13  N   UNL     1      -2.168  -8.128   5.452  0.00  0.00    -0.075 NA
BRANCH  13  14
ATOM     14  C   UNL     1      -2.904  -8.567   6.493  0.00  0.00    +0.288 C 
ATOM     15  O   UNL     1      -2.355  -8.904   7.527  0.00  0.00    -0.266 OA
BRANCH  14  16
ATOM     16  C   UNL     1      -4.375  -8.638   6.381  0.00  0.00    +0.082 A 
ATOM     17  C   UNL     1      -4.994  -8.259   5.201  0.00  0.00    +0.025 A 
ATOM     18  C   UNL     1      -6.391  -8.329   5.100  0.00  0.00    -0.017 A 
ATOM     19  C   UNL     1      -7.053  -7.953   3.917  0.00  0.00    +0.008 A 
ATOM     20  C   UNL     1      -8.409  -8.033   3.849  0.00  0.00    +0.001 A 
ATOM     21  C   UNL     1      -9.156  -8.483   4.937  0.00  0.00    +0.001 A 
ATOM     22  C   UNL     1      -8.551  -8.856   6.098  0.00  0.00    +0.008 A 
ATOM     23  C   UNL     1      -7.151  -8.788   6.207  0.00  0.00    -0.014 A 
ATOM     24  C   UNL     1      -6.499  -9.167   7.392  0.00  0.00    +0.054 A 
ATOM     25  C   UNL     1      -5.139  -9.098   7.474  0.00  0.00    +0.130 A 
BRANCH  25  26
ATOM     26  O   UNL     1      -4.516  -9.471   8.620  0.00  0.00    -0.506 OA
ATOM     27  H   UNL     1      -4.399  -8.752   9.256  0.00  0.00    +0.292 HD
ENDBRANCH  25  26
ENDBRANCH  14  16
ENDBRANCH  13  14
ENDBRANCH   8  12
BRANCH   1  28
ATOM     28  C   UNL     1       0.309  -6.349   1.121  0.00  0.00    +0.221 C 
BRANCH  28  30
ATOM     29  N   UNL     1       0.059  -4.170  -0.021  0.00  0.00    -0.284 N 
ATOM     30  C   UNL     1       0.175  -4.848   1.138  0.00  0.00    +0.237 C 
ATOM     31  O   UNL     1       0.173  -4.251   2.193  0.00  0.00    -0.274 OA
ATOM     32  H   UNL     1      -0.017  -4.651  -0.860  0.00  0.00    +0.155 HD
BRANCH  29  37
ATOM     33  C   UNL     1       0.008   1.503   0.007  0.00  0.00    +0.044 C 
ATOM     34  C   UNL     1       0.022  -0.004  -0.001  0.00  0.00    -0.050 A 
ATOM     35  C   UNL     1       0.777  -0.692   0.931  0.00  0.00    +0.005 A 
ATOM     36  C   UNL     1       0.791  -2.073   0.927  0.00  0.00    +0.023 A 
ATOM     37  C   UNL     1       0.046  -2.771  -0.014  0.00  0.00    +0.033 A 
ATOM     38  C   UNL     1      -0.712  -2.077  -0.948  0.00  0.00    +0.023 A 
ATOM     39  C   UNL     1      -0.726  -0.696  -0.936  0.00  0.00    +0.005 A 
ENDBRANCH  29  37
ENDBRANCH  28  30
ENDBRANCH   1  28
TORSDOF 8
