REMARK  Name = ZINC01821768
REMARK  7 active torsions:
REMARK  status: ('A' for Active; 'I' for Inactive)
REMARK    1  A    between atoms: C_4  and  C_7
REMARK    2  A    between atoms: C_10  and  S_18
REMARK    3  A    between atoms: N_11  and  C_12
REMARK    4  A    between atoms: S_18  and  C_19
REMARK    5  A    between atoms: C_19  and  C_20
REMARK    6  A    between atoms: N_22  and  N_23
REMARK    7  A    between atoms: C_24  and  C_25
REMARK                            x       y       z     vdW  Elec       q    Type
REMARK                         _______ _______ _______ _____ _____    ______ ____
ROOT
ATOM      1  C   UNL     1      -1.352  -3.869  -4.385  0.00  0.00    +0.242 C 
ATOM      2  O   UNL     1      -1.652  -2.757  -4.764  0.00  0.00    -0.273 OA
ATOM      3  N   UNL     1      -1.717  -4.949  -5.105  0.00  0.00    -0.206 N 
ATOM      4  H   UNL     1      -1.478  -5.838  -4.802  0.00  0.00    +0.177 HD
ENDROOT
BRANCH   3   5
ATOM      5  N   UNL     1      -2.444  -4.785  -6.292  0.00  0.00    -0.188 NA
ATOM      6  C   UNL     1      -2.797  -5.827  -6.988  0.00  0.00    +0.139 C 
BRANCH   6   7
ATOM      7  C   UNL     1      -3.557  -5.657  -8.229  0.00  0.00    +0.010 A 
ATOM      8  C   UNL     1      -4.032  -6.781  -8.935  0.00  0.00    -0.009 A 
ATOM      9  C   UNL     1      -3.800  -8.085  -8.464  0.00  0.00    +0.009 A 
ATOM     10  C   UNL     1      -4.278  -9.148  -9.165  0.00  0.00    +0.001 A 
ATOM     11  C   UNL     1      -5.000  -8.980 -10.346  0.00  0.00    +0.001 A 
ATOM     12  C   UNL     1      -5.261  -7.748 -10.852  0.00  0.00    +0.008 A 
ATOM     13  C   UNL     1      -4.794  -6.602 -10.173  0.00  0.00    -0.017 A 
ATOM     14  C   UNL     1      -5.046  -5.322 -10.666  0.00  0.00    +0.017 A 
ATOM     15  C   UNL     1      -4.575  -4.204  -9.977  0.00  0.00    -0.017 A 
ATOM     16  C   UNL     1      -3.816  -4.366  -8.735  0.00  0.00    -0.009 A 
ATOM     17  C   UNL     1      -3.357  -3.218  -8.066  0.00  0.00    +0.009 A 
ATOM     18  C   UNL     1      -3.624  -1.988  -8.581  0.00  0.00    +0.001 A 
ATOM     19  C   UNL     1      -4.347  -1.831  -9.762  0.00  0.00    +0.001 A 
ATOM     20  C   UNL     1      -4.818  -2.899 -10.457  0.00  0.00    +0.008 A 
ENDBRANCH   6   7
ENDBRANCH   3   5
BRANCH   1  21
ATOM     21  C   UNL     1      -0.571  -4.045  -3.108  0.00  0.00    +0.174 C 
BRANCH  21  22
ATOM     22  S   UNL     1      -0.235  -2.423  -2.379  0.00  0.00    -0.076 S 
BRANCH  22  26
ATOM     23  C   UNL     1       1.796  -2.910   0.927  0.00  0.00    +0.169 A 
ATOM     24  N   UNL     1       1.618  -4.143   0.511  0.00  0.00    -0.128 NA
ATOM     25  N   UNL     1       0.955  -4.145  -0.589  0.00  0.00    -0.122 NA
ATOM     26  C   UNL     1       0.662  -2.913  -0.944  0.00  0.00    +0.197 A 
ATOM     27  N   UNL     1       1.185  -2.083   0.010  0.00  0.00    -0.270 N 
BRANCH  23  31
ATOM     28  C   UNL     1       3.858  -1.702   4.438  0.00  0.00    +0.000 A 
ATOM     29  C   UNL     1       2.989  -0.825   3.814  0.00  0.00    +0.001 A 
ATOM     30  C   UNL     1       2.316  -1.211   2.673  0.00  0.00    +0.011 A 
ATOM     31  C   UNL     1       2.514  -2.490   2.149  0.00  0.00    +0.020 A 
ATOM     32  C   UNL     1       3.388  -3.371   2.787  0.00  0.00    +0.011 A 
ATOM     33  C   UNL     1       4.059  -2.970   3.923  0.00  0.00    +0.001 A 
ENDBRANCH  23  31
BRANCH  27  34
ATOM     34  C   UNL     1       1.117  -0.683   0.044  0.00  0.00    +0.051 A 
ATOM     35  C   UNL     1      -0.107  -0.050   0.216  0.00  0.00    +0.026 A 
ATOM     36  C   UNL     1      -0.170   1.329   0.250  0.00  0.00    +0.002 A 
ATOM     37  C   UNL     1       0.984   2.080   0.113  0.00  0.00    +0.000 A 
ATOM     38  C   UNL     1       2.204   1.452  -0.058  0.00  0.00    +0.002 A 
ATOM     39  C   UNL     1       2.273   0.073  -0.093  0.00  0.00    +0.026 A 
ENDBRANCH  27  34
ENDBRANCH  22  26
ENDBRANCH  21  22
ENDBRANCH   1  21
TORSDOF 7
