REMARK  Name = ZINC35829441
REMARK  9 active torsions:
REMARK  status: ('A' for Active; 'I' for Inactive)
REMARK    1  A    between atoms: C_1  and  C_2
REMARK    2  A    between atoms: C_7  and  C_8
REMARK    3  A    between atoms: C_8  and  C_9
REMARK    4  A    between atoms: C_10  and  C_23
REMARK    5  A    between atoms: N_12  and  C_14
REMARK    6  A    between atoms: C_18  and  C_21
REMARK    7  A    between atoms: C_19  and  C_20
REMARK    8  A    between atoms: N_27  and  C_31
REMARK    9  A    between atoms: C_31  and  C_32
REMARK                            x       y       z     vdW  Elec       q    Type
REMARK                         _______ _______ _______ _____ _____    ______ ____
ROOT
ATOM      1  C   UNL     1      -1.556   0.244   2.970  0.00  0.00    +0.079 A 
ATOM      2  C   UNL     1      -2.486   1.143   2.393  0.00  0.00    +0.066 A 
ATOM      3  C   UNL     1      -3.726   0.868   2.964  0.00  0.00    +0.281 A 
ATOM      4  N   UNL     1      -3.545  -0.145   3.839  0.00  0.00    -0.196 N 
ATOM      5  N   UNL     1      -2.196  -0.513   3.818  0.00  0.00    -0.167 NA
ATOM      6  O   UNL     1      -4.894   1.498   2.693  0.00  0.00    -0.265 OA
ENDROOT
BRANCH   2   7
ATOM      7  C   UNL     1      -2.197   2.167   1.387  0.00  0.00    +0.043 C 
ATOM      8  C   UNL     1      -2.872   2.168   0.205  0.00  0.00    +0.099 C 
ATOM      9  C   UNL     1      -2.710   3.081  -0.871  0.00  0.00    +0.269 C 
ATOM     10  O   UNL     1      -1.934   4.019  -0.915  0.00  0.00    -0.268 OA
ATOM     11  N   UNL     1      -3.576   2.713  -1.836  0.00  0.00    -0.216 N 
ATOM     12  C   UNL     1      -4.267   1.633  -1.434  0.00  0.00    +0.313 C 
ATOM     13  O   UNL     1      -5.123   1.069  -2.088  0.00  0.00    -0.252 OA
ATOM     14  N   UNL     1      -3.867   1.265  -0.202  0.00  0.00    -0.265 N 
ATOM     15  H   UNL     1      -4.206   0.515   0.311  0.00  0.00    +0.157 HD
BRANCH  11  16
ATOM     16  C   UNL     1      -3.739   3.388  -3.126  0.00  0.00    +0.153 C 
BRANCH  16  17
ATOM     17  C   UNL     1      -2.804   2.774  -4.136  0.00  0.00    -0.029 A 
ATOM     18  C   UNL     1      -1.526   3.278  -4.289  0.00  0.00    +0.008 A 
ATOM     19  C   UNL     1      -0.667   2.716  -5.215  0.00  0.00    +0.038 A 
ATOM     20  C   UNL     1      -1.087   1.648  -5.988  0.00  0.00    +0.123 A 
ATOM     21  C   UNL     1      -2.368   1.143  -5.834  0.00  0.00    +0.038 A 
ATOM     22  C   UNL     1      -3.223   1.704  -4.904  0.00  0.00    +0.008 A 
ATOM     23  F   UNL     1      -0.249   1.098  -6.894  0.00  0.00    -0.205 F 
ENDBRANCH  16  17
ENDBRANCH  11  16
ENDBRANCH   2   7
BRANCH   4  24
ATOM     24  C   UNL     1      -4.542  -0.731   4.631  0.00  0.00    +0.072 A 
ATOM     25  C   UNL     1      -5.414   0.070   5.357  0.00  0.00    +0.028 A 
ATOM     26  C   UNL     1      -6.395  -0.511   6.136  0.00  0.00    +0.002 A 
ATOM     27  C   UNL     1      -6.509  -1.888   6.195  0.00  0.00    +0.004 A 
ATOM     28  C   UNL     1      -5.641  -2.688   5.474  0.00  0.00    -0.046 A 
ATOM     29  C   UNL     1      -4.662  -2.113   4.687  0.00  0.00    -0.022 A 
ATOM     30  C   UNL     1      -3.722  -2.985   3.896  0.00  0.00    +0.046 C 
ATOM     31  C   UNL     1      -5.769  -4.188   5.541  0.00  0.00    +0.044 C 
ENDBRANCH   4  24
BRANCH   1  32
ATOM     32  C   UNL     1      -0.085   0.170   2.655  0.00  0.00    +0.093 C 
BRANCH  32  39
ATOM     33  C   UNL     1       0.132  -2.696   2.948  0.00  0.00    +0.044 C 
ATOM     34  C   UNL     1       0.230  -2.068   1.581  0.00  0.00    -0.047 A 
ATOM     35  C   UNL     1       0.417  -2.865   0.467  0.00  0.00    +0.003 A 
ATOM     36  C   UNL     1       0.507  -2.290  -0.787  0.00  0.00    +0.000 A 
ATOM     37  C   UNL     1       0.409  -0.918  -0.926  0.00  0.00    +0.000 A 
ATOM     38  C   UNL     1       0.220  -0.121   0.188  0.00  0.00    +0.004 A 
ATOM     39  C   UNL     1       0.126  -0.697   1.441  0.00  0.00    -0.039 A 
ENDBRANCH  32  39
ENDBRANCH   1  32
TORSDOF 6
