REMARK  Name = ZINC40590873
REMARK  1 active torsions:
REMARK  status: ('A' for Active; 'I' for Inactive)
REMARK    1  A    between atoms: C_19  and  C_21
REMARK                            x       y       z     vdW  Elec       q    Type
REMARK                         _______ _______ _______ _____ _____    ______ ____
ROOT
ATOM      1  C   UNL     1       0.529   1.103   0.343  0.00  0.00    +0.000 C 
ATOM      2  C   UNL     1       2.000   1.514   0.249  0.00  0.00    +0.000 C 
ATOM      3  C   UNL     1       2.550   1.133  -1.127  0.00  0.00    +0.005 C 
ATOM      4  C   UNL     1       2.426  -0.379  -1.323  0.00  0.00    +0.010 C 
ATOM      5  C   UNL     1       2.982  -0.766  -2.696  0.00  0.00    +0.113 C 
ATOM      6  N   UNL     1       2.129  -0.176  -3.737  0.00  0.00    -0.285 N 
ATOM      7  C   UNL     1       0.683  -0.435  -3.696  0.00  0.00    +0.109 C 
ATOM      8  C   UNL     1       0.154  -0.045  -2.312  0.00  0.00    +0.023 C 
ATOM      9  C   UNL     1       0.952  -0.784  -1.238  0.00  0.00    -0.005 C 
ATOM     10  C   UNL     1       0.405  -0.409   0.142  0.00  0.00    +0.004 C 
ATOM     11  C   UNL     1       2.663   0.588  -4.712  0.00  0.00    +0.305 C 
ATOM     12  O   UNL     1       3.778   1.053  -4.577  0.00  0.00    -0.252 OA
ATOM     13  N   UNL     1       1.960   0.835  -5.835  0.00  0.00    -0.272 N 
ATOM     14  C   UNL     1       2.488   1.470  -7.056  0.00  0.00    +0.110 C 
ATOM     15  C   UNL     1       1.246   2.077  -7.756  0.00  0.00    +0.021 C 
ATOM     16  C   UNL     1       0.166   1.004  -7.461  0.00  0.00    +0.036 C 
ATOM     17  C   UNL     1       0.541   0.512  -6.047  0.00  0.00    +0.190 C 
ENDROOT
BRANCH  17  18
ATOM     18  C   UNL     1       0.335  -0.978  -5.947  0.00  0.00    +0.376 C 
ATOM     19  O   UNL     1      -0.794  -1.436  -5.912  0.00  0.00    -0.244 OA
ATOM     20  O   UNL     1       1.298  -1.725  -5.903  0.00  0.00    -0.244 OA
ENDBRANCH  17  18
TORSDOF 1
