REMARK  Name = ZINC63258989
REMARK  10 active torsions:
REMARK  status: ('A' for Active; 'I' for Inactive)
REMARK    1  A    between atoms: C_7  and  C_10
REMARK    2  A    between atoms: C_10  and  C_11
REMARK    3  A    between atoms: C_11  and  C_13
REMARK    4  A    between atoms: C_11  and  N_30
REMARK    5  A    between atoms: C_13  and  O_15
REMARK    6  A    between atoms: O_15  and  C_16
REMARK    7  A    between atoms: C_16  and  C_17
REMARK    8  A    between atoms: N_19  and  C_20
REMARK    9  A    between atoms: C_25  and  C_26
REMARK   10  A    between atoms: C_31  and  C_33
REMARK                            x       y       z     vdW  Elec       q    Type
REMARK                         _______ _______ _______ _____ _____    ______ ____
ROOT
ATOM      1  C   UNL     1       0.461  -3.657  -1.491  0.00  0.00    +0.186 C 
ENDROOT
BRANCH   1   2
ATOM      2  N   UNL     1      -0.230  -2.611  -2.249  0.00  0.00    -0.298 N 
ATOM      3  C   UNL     1      -1.445  -2.182  -1.853  0.00  0.00    +0.251 C 
ATOM      4  O   UNL     1      -1.968  -2.664  -0.866  0.00  0.00    -0.270 OA
ATOM      5  H   UNL     1       0.188  -2.227  -3.036  0.00  0.00    +0.150 HD
BRANCH   3   6
ATOM      6  C   UNL     1      -2.135  -1.135  -2.612  0.00  0.00    +0.074 A 
ATOM      7  C   UNL     1      -3.372  -0.555  -2.375  0.00  0.00    +0.021 A 
ATOM      8  C   UNL     1      -3.760   0.413  -3.270  0.00  0.00    +0.008 A 
ATOM      9  C   UNL     1      -2.933   0.730  -4.297  0.00  0.00    +0.046 A 
ATOM     10  S   UNL     1      -1.601  -0.270  -4.076  0.00  0.00    -0.092 S 
ENDBRANCH   3   6
ENDBRANCH   1   2
BRANCH   1  11
ATOM     11  C   UNL     1      -0.381  -4.907  -1.479  0.00  0.00    +0.328 C 
ATOM     12  O   UNL     1      -1.565  -4.841  -1.712  0.00  0.00    -0.249 OA
BRANCH  11  13
ATOM     13  O   UNL     1       0.185  -6.094  -1.210  0.00  0.00    -0.454 OA
BRANCH  13  14
ATOM     14  C   UNL     1      -0.672  -7.238  -1.216  0.00  0.00    +0.328 C 
BRANCH  14  15
ATOM     15  C   UNL     1       0.132  -8.471  -0.896  0.00  0.00    +0.255 C 
ATOM     16  O   UNL     1       1.323  -8.380  -0.683  0.00  0.00    -0.272 OA
ATOM     17  N   UNL     1      -0.471  -9.675  -0.846  0.00  0.00    -0.282 N 
ATOM     18  H   UNL     1      -1.434  -9.739  -0.936  0.00  0.00    +0.155 HD
BRANCH  17  19
ATOM     19  C   UNL     1       0.293 -10.833  -0.663  0.00  0.00    +0.045 A 
ATOM     20  C   UNL     1       1.631 -10.851  -1.037  0.00  0.00    +0.024 A 
ATOM     21  C   UNL     1       2.382 -11.995  -0.856  0.00  0.00    +0.002 A 
ATOM     22  C   UNL     1       1.804 -13.123  -0.302  0.00  0.00    +0.001 A 
ATOM     23  C   UNL     1       0.472 -13.109   0.071  0.00  0.00    +0.014 A 
ATOM     24  C   UNL     1      -0.283 -11.965  -0.102  0.00  0.00    +0.076 A 
BRANCH  24  25
ATOM     25  C   UNL     1      -1.732 -11.948   0.311  0.00  0.00    +0.419 C 
ATOM     26  F   UNL     1      -2.079 -13.194   0.846  0.00  0.00    -0.166 F 
ATOM     27  F   UNL     1      -1.930 -10.955   1.277  0.00  0.00    -0.166 F 
ATOM     28  F   UNL     1      -2.532 -11.680  -0.804  0.00  0.00    -0.166 F 
ENDBRANCH  24  25
ENDBRANCH  17  19
ENDBRANCH  14  15
ENDBRANCH  13  14
ENDBRANCH  11  13
ENDBRANCH   1  11
BRANCH   1  29
ATOM     29  C   UNL     1       0.686  -3.181  -0.054  0.00  0.00    +0.067 C 
BRANCH  29  36
ATOM     30  C   UNL     1      -0.020   1.353  -0.051  0.00  0.00    +0.001 A 
ATOM     31  C   UNL     1       1.162   2.106  -0.055  0.00  0.00    +0.002 A 
ATOM     32  C   UNL     1       2.387   1.540  -0.060  0.00  0.00    +0.026 A 
ATOM     33  C   UNL     1       2.525   0.124  -0.060  0.00  0.00    +0.043 A 
ATOM     34  N   UNL     1       3.583  -0.650  -0.065  0.00  0.00    -0.380 N 
ATOM     35  C   UNL     1       3.139  -2.049  -0.063  0.00  0.00    +0.144 C 
ATOM     36  C   UNL     1       1.627  -2.004  -0.057  0.00  0.00    -0.039 C 
ATOM     37  C   UNL     1       1.291  -0.694  -0.055  0.00  0.00    -0.001 A 
ATOM     38  C   UNL     1      -0.002   0.001  -0.050  0.00  0.00    +0.010 A 
ATOM     39  H   UNL     1       4.505  -0.349  -0.069  0.00  0.00    +0.160 HD
ENDBRANCH  29  36
ENDBRANCH   1  29
TORSDOF 10
