REMARK  Name = ZINC14464076
REMARK  5 active torsions:
REMARK  status: ('A' for Active; 'I' for Inactive)
REMARK    1  A    between atoms: C_4  and  C_7
REMARK    2  A    between atoms: C_7  and  N_8
REMARK    3  A    between atoms: N_8  and  S_9
REMARK    4  A    between atoms: S_9  and  C_12
REMARK    5  A    between atoms: C_25  and  C_28
REMARK                            x       y       z     vdW  Elec       q    Type
REMARK                         _______ _______ _______ _____ _____    ______ ____
ROOT
ATOM      1  C   UNL     1      -1.022  -3.497  -2.030  0.00  0.00    +0.106 A 
ATOM      2  C   UNL     1      -1.224  -3.739  -0.683  0.00  0.00    +0.030 A 
ATOM      3  C   UNL     1      -1.627  -2.718   0.152  0.00  0.00    +0.025 A 
ATOM      4  C   UNL     1      -1.835  -1.439  -0.352  0.00  0.00    +0.031 A 
ATOM      5  C   UNL     1      -1.621  -1.200  -1.714  0.00  0.00    -0.018 A 
ATOM      6  C   UNL     1      -1.222  -2.227  -2.541  0.00  0.00    +0.034 A 
ATOM      7  C   UNL     1      -1.837   0.178  -2.208  0.00  0.00    +0.049 C 
ATOM      8  C   UNL     1      -2.211   0.455  -3.618  0.00  0.00    -0.023 C 
ATOM      9  C   UNL     1      -2.966   1.547  -3.650  0.00  0.00    -0.030 C 
ATOM     10  C   UNL     1      -3.184   2.073  -2.230  0.00  0.00    +0.033 C 
ATOM     11  C   UNL     1      -3.017   0.795  -1.398  0.00  0.00    +0.029 C 
ATOM     12  C   UNL     1      -2.497   0.952   0.019  0.00  0.00    +0.105 C 
ATOM     13  N   UNL     1      -2.263  -0.424   0.511  0.00  0.00    -0.336 N 
ATOM     14  H   UNL     1      -2.409  -0.626   1.449  0.00  0.00    +0.147 HD
ENDROOT
BRANCH  12  15
ATOM     15  C   UNL     1      -1.206   1.730   0.017  0.00  0.00    -0.019 A 
ATOM     16  C   UNL     1      -0.013   1.076   0.008  0.00  0.00    +0.006 A 
ATOM     17  C   UNL     1       1.191   1.778   0.000  0.00  0.00    +0.001 A 
ATOM     18  C   UNL     1       1.207   3.140   0.007  0.00  0.00    +0.008 A 
ATOM     19  C   UNL     1      -0.005   3.850   0.023  0.00  0.00    -0.018 A 
ATOM     20  C   UNL     1      -1.229   3.135   0.031  0.00  0.00    -0.013 A 
ATOM     21  C   UNL     1      -2.442   3.845   0.045  0.00  0.00    +0.009 A 
ATOM     22  C   UNL     1      -2.425   5.206   0.052  0.00  0.00    +0.001 A 
ATOM     23  C   UNL     1      -1.221   5.909   0.045  0.00  0.00    +0.001 A 
ATOM     24  C   UNL     1      -0.028   5.255   0.030  0.00  0.00    +0.008 A 
ENDBRANCH  12  15
BRANCH   1  25
ATOM     25  S   UNL     1      -0.512  -4.805  -3.094  0.00  0.00    +0.059 S 
ATOM     26  O   UNL     1       0.134  -4.197  -4.204  0.00  0.00    -0.153 OA
ATOM     27  O   UNL     1       0.132  -5.769  -2.272  0.00  0.00    -0.153 OA
BRANCH  25  28
ATOM     28  N   UNL     1      -1.884  -5.523  -3.680  0.00  0.00    -0.186 NA
ATOM     29  H   UNL     1      -2.088  -6.442  -3.446  0.00  0.00    +0.148 HD
BRANCH  28  30
ATOM     30  C   UNL     1      -2.791  -4.771  -4.551  0.00  0.00    +0.141 C 
BRANCH  30  34
ATOM     31  C   UNL     1      -5.476  -7.470  -6.487  0.00  0.00    +0.000 A 
ATOM     32  C   UNL     1      -5.814  -6.915  -5.267  0.00  0.00    +0.000 A 
ATOM     33  C   UNL     1      -4.945  -6.042  -4.640  0.00  0.00    +0.005 A 
ATOM     34  C   UNL     1      -3.738  -5.723  -5.234  0.00  0.00    -0.032 A 
ATOM     35  C   UNL     1      -3.402  -6.274  -6.456  0.00  0.00    +0.005 A 
ATOM     36  C   UNL     1      -4.269  -7.151  -7.080  0.00  0.00    +0.000 A 
ENDBRANCH  30  34
ENDBRANCH  28  30
ENDBRANCH  25  28
ENDBRANCH   1  25
TORSDOF 5
