REMARK  Name = ZINC49043171
REMARK  5 active torsions:
REMARK  status: ('A' for Active; 'I' for Inactive)
REMARK    1  A    between atoms: C_5  and  N_8
REMARK    2  A    between atoms: C_6  and  N_7
REMARK    3  A    between atoms: N_8  and  S_9
REMARK    4  A    between atoms: S_9  and  C_12
REMARK    5  A    between atoms: C_12  and  C_13
REMARK                            x       y       z     vdW  Elec       q    Type
REMARK                         _______ _______ _______ _____ _____    ______ ____
ROOT
ATOM      1  N   UNL     1       1.756  -1.652  -0.206  0.00  0.00    -0.218 N 
ATOM      2  H   UNL     1       0.924  -2.136  -0.087  0.00  0.00    +0.173 HD
ENDROOT
BRANCH   1   7
ATOM      3  C   UNL     1       2.136   1.723  -1.642  0.00  0.00    +0.040 A 
ATOM      4  C   UNL     1       1.716   2.505  -0.579  0.00  0.00    +0.021 A 
ATOM      5  C   UNL     1       1.310   1.911   0.602  0.00  0.00    +0.032 A 
ATOM      6  C   UNL     1       1.323   0.533   0.729  0.00  0.00    +0.043 A 
ATOM      7  C   UNL     1       1.742  -0.257  -0.332  0.00  0.00    +0.082 A 
ATOM      8  C   UNL     1       2.151   0.342  -1.523  0.00  0.00    +0.049 A 
ATOM      9 BR   UNL     1       0.768  -0.273   2.347  0.00  0.00    -0.048 Br
ATOM     10 BR   UNL     1       1.697   4.388  -0.744  0.00  0.00    -0.050 Br
BRANCH   8  11
ATOM     11  N   UNL     1       2.575  -0.450  -2.597  0.00  0.00    -0.356 N 
ATOM     12  H   UNL     1       3.070  -0.050  -3.329  0.00  0.00    +0.142 HD
ATOM     13  H   UNL     1       2.374  -1.399  -2.609  0.00  0.00    +0.142 HD
ENDBRANCH   8  11
ENDBRANCH   1   7
BRANCH   1  14
ATOM     14  S   UNL     1       3.192  -2.474  -0.260  0.00  0.00    +0.043 S 
ATOM     15  O   UNL     1       2.830  -3.845  -0.161  0.00  0.00    -0.155 OA
ATOM     16  O   UNL     1       3.850  -1.980  -1.419  0.00  0.00    -0.155 OA
BRANCH  14  17
ATOM     17  C   UNL     1       4.083  -1.954   1.233  0.00  0.00    +0.192 C 
BRANCH  17  18
ATOM     18  C   UNL     1       5.508  -2.510   1.196  0.00  0.00    +0.012 C 
ATOM     19  C   UNL     1       5.462  -4.038   1.264  0.00  0.00    +0.005 C 
ATOM     20  C   UNL     1       6.887  -4.594   1.226  0.00  0.00    +0.000 C 
ATOM     21  C   UNL     1       7.676  -4.054   2.421  0.00  0.00    +0.000 C 
ATOM     22  C   UNL     1       7.722  -2.526   2.353  0.00  0.00    +0.000 C 
ATOM     23  C   UNL     1       6.297  -1.970   2.390  0.00  0.00    +0.005 C 
ENDBRANCH  17  18
ENDBRANCH  14  17
ENDBRANCH   1  14
TORSDOF 5
