REMARK  Name = ZINC67633698
REMARK  7 active torsions:
REMARK  status: ('A' for Active; 'I' for Inactive)
REMARK    1  A    between atoms: C_1  and  C_2
REMARK    2  A    between atoms: N_5  and  C_8
REMARK    3  A    between atoms: C_8  and  C_9
REMARK    4  A    between atoms: C_9  and  C_11
REMARK    5  A    between atoms: C_9  and  O_27
REMARK    6  A    between atoms: C_11  and  N_12
REMARK    7  A    between atoms: N_15  and  C_16
REMARK                            x       y       z     vdW  Elec       q    Type
REMARK                         _______ _______ _______ _____ _____    ______ ____
ROOT
ATOM      1  N   UNL     1       0.526  -6.331   4.079  0.00  0.00    -0.297 N 
ATOM      2  C   UNL     1       0.687  -7.641   4.351  0.00  0.00    +0.300 C 
ATOM      3  O   UNL     1       0.343  -8.477   3.538  0.00  0.00    -0.253 OA
ATOM      4  N   UNL     1       1.230  -8.024   5.523  0.00  0.00    -0.293 N 
ATOM      5  H   UNL     1       0.800  -5.664   4.727  0.00  0.00    +0.150 HD
ATOM      6  H   UNL     1       1.505  -7.357   6.171  0.00  0.00    +0.151 HD
ENDROOT
BRANCH   4   7
ATOM      7  C   UNL     1       1.405  -9.449   5.818  0.00  0.00    +0.105 C 
ATOM      8  C   UNL     1       1.467  -9.676   7.344  0.00  0.00    +0.032 C 
ATOM      9  C   UNL     1       2.982  -9.614   7.628  0.00  0.00    +0.037 C 
ATOM     10  C   UNL     1       3.645 -10.029   6.332  0.00  0.00    -0.041 A 
ATOM     11  C   UNL     1       2.738  -9.935   5.289  0.00  0.00    -0.024 A 
ATOM     12  C   UNL     1       3.125 -10.267   4.002  0.00  0.00    +0.007 A 
ATOM     13  C   UNL     1       4.415 -10.693   3.752  0.00  0.00    +0.020 A 
ATOM     14  C   UNL     1       5.324 -10.788   4.790  0.00  0.00    +0.041 A 
ATOM     15  C   UNL     1       4.938 -10.456   6.082  0.00  0.00    +0.024 A 
ATOM     16 CL   UNL     1       6.945 -11.324   4.479  0.00  0.00    -0.084 Cl
ENDBRANCH   4   7
BRANCH   1  17
ATOM     17  C   UNL     1      -0.065  -5.914   2.804  0.00  0.00    +0.135 C 
BRANCH  17  18
ATOM     18  C   UNL     1      -0.134  -4.387   2.750  0.00  0.00    +0.115 C 
BRANCH  18  19
ATOM     19  O   UNL     1      -0.941  -3.908   3.828  0.00  0.00    -0.392 OA
ATOM     20  H   UNL     1      -1.850  -4.235   3.814  0.00  0.00    +0.210 HD
ENDBRANCH  18  19
BRANCH  18  21
ATOM     21  C   UNL     1      -0.750  -3.952   1.419  0.00  0.00    -0.046 C 
BRANCH  21  26
ATOM     22  C   UNL     1      -0.019   1.526   0.010  0.00  0.00    +0.007 C 
ATOM     23  C   UNL     1       0.002  -0.004   0.002  0.00  0.00    -0.018 C 
ATOM     24  C   UNL     1      -1.434  -0.536   0.023  0.00  0.00    -0.016 C 
ATOM     25  C   UNL     1      -1.405  -2.064   0.095  0.00  0.00    -0.078 C 
ATOM     26  N   UNL     1      -0.707  -2.487   1.315  0.00  0.00    +0.381 N 
ATOM     27  C   UNL     1       0.691  -2.042   1.269  0.00  0.00    -0.078 C 
ATOM     28  C   UNL     1       0.743  -0.513   1.242  0.00  0.00    -0.016 C 
ATOM     29  H   UNL     1      -1.162  -2.082   2.119  0.00  0.00    -0.082 HD
ENDBRANCH  21  26
ENDBRANCH  18  21
ENDBRANCH  17  18
ENDBRANCH   1  17
TORSDOF 6
