REMARK  Name = ZINC15226295
REMARK  3 active torsions:
REMARK  status: ('A' for Active; 'I' for Inactive)
REMARK    1  A    between atoms: C_3  and  C_10
REMARK    2  A    between atoms: C_5  and  N_7
REMARK    3  A    between atoms: C_23  and  C_26
REMARK                            x       y       z     vdW  Elec       q    Type
REMARK                         _______ _______ _______ _____ _____    ______ ____
ROOT
ATOM      1  C   UNL     1      -0.114  -4.077  -0.910  0.00  0.00    +0.105 C 
ATOM      2  C   UNL     1      -0.875  -5.245  -0.281  0.00  0.00    +0.029 C 
ATOM      3  C   UNL     1      -0.791  -6.451  -1.259  0.00  0.00    +0.033 C 
ATOM      4  C   UNL     1      -1.889  -6.170  -2.265  0.00  0.00    -0.030 C 
ATOM      5  C   UNL     1      -2.774  -5.346  -1.762  0.00  0.00    -0.023 C 
ATOM      6  C   UNL     1      -2.389  -4.952  -0.355  0.00  0.00    +0.049 C 
ATOM      7  C   UNL     1      -2.679  -3.499  -0.115  0.00  0.00    -0.018 A 
ATOM      8  C   UNL     1      -4.006  -3.111   0.005  0.00  0.00    +0.021 A 
ATOM      9  C   UNL     1      -4.346  -1.788   0.222  0.00  0.00    +0.019 A 
ATOM     10  C   UNL     1      -3.363  -0.828   0.329  0.00  0.00    +0.032 A 
ATOM     11  C   UNL     1      -2.022  -1.197   0.207  0.00  0.00    +0.085 A 
ATOM     12  C   UNL     1      -1.680  -2.546  -0.013  0.00  0.00    +0.046 A 
ATOM     13  N   UNL     1      -0.336  -2.868  -0.116  0.00  0.00    -0.336 N 
ATOM     14 BR   UNL     1      -6.165  -1.296   0.381  0.00  0.00    -0.050 Br
ATOM     15  H   UNL     1       0.195  -2.092  -0.483  0.00  0.00    +0.147 HD
ENDROOT
BRANCH   1  18
ATOM     16  C   UNL     1      -1.982  -2.649  -3.864  0.00  0.00    +0.003 A 
ATOM     17  C   UNL     1      -1.532  -2.857  -2.573  0.00  0.00    +0.005 A 
ATOM     18  C   UNL     1      -0.608  -3.853  -2.316  0.00  0.00    -0.025 A 
ATOM     19  C   UNL     1      -0.141  -4.647  -3.347  0.00  0.00    +0.038 A 
ATOM     20  C   UNL     1      -0.595  -4.441  -4.637  0.00  0.00    +0.127 A 
ATOM     21  C   UNL     1      -1.515  -3.442  -4.895  0.00  0.00    +0.033 A 
BRANCH  20  22
ATOM     22  N   UNL     1      -0.095  -5.291  -5.741  0.00  0.00    +0.056 N 
ATOM     23  O   UNL     1       0.716  -6.171  -5.513  0.00  0.00    -0.126 OA
ATOM     24  O   UNL     1      -0.495  -5.110  -6.877  0.00  0.00    -0.126 OA
ENDBRANCH  20  22
ENDBRANCH   1  18
BRANCH  11  25
ATOM     25  C   UNL     1      -0.965  -0.177   0.315  0.00  0.00    +0.388 C 
ATOM     26  O   UNL     1       0.203  -0.512   0.327  0.00  0.00    -0.241 OA
ATOM     27  O   UNL     1      -1.293   1.127   0.400  0.00  0.00    -0.241 OA
ENDBRANCH  11  25
TORSDOF 3
