REMARK  Name = ZINC35918611
REMARK  11 active torsions:
REMARK  status: ('A' for Active; 'I' for Inactive)
REMARK    1  A    between atoms: C_1  and  C_2
REMARK    2  A    between atoms: C_2  and  C_3
REMARK    3  A    between atoms: C_2  and  C_4
REMARK    4  A    between atoms: N_6  and  C_7
REMARK    5  A    between atoms: N_6  and  C_33
REMARK    6  A    between atoms: C_7  and  C_8
REMARK    7  A    between atoms: N_11  and  C_23
REMARK    8  A    between atoms: C_13  and  C_15
REMARK    9  A    between atoms: C_19  and  O_21
REMARK   10  A    between atoms: O_21  and  C_22
REMARK   11  A    between atoms: C_23  and  C_24
REMARK                            x       y       z     vdW  Elec       q    Type
REMARK                         _______ _______ _______ _____ _____    ______ ____
ROOT
ATOM      1  C   UNL     1      -4.189   0.812  -0.234  0.00  0.00    -0.005 C 
ATOM      2  C   UNL     1      -3.964   2.170  -0.933  0.00  0.00    -0.073 C 
ATOM      3  N   UNL     1      -5.189   2.379  -1.748  0.00  0.00    +0.383 N 
ATOM      4  C   UNL     1      -6.292   1.889  -0.881  0.00  0.00    -0.070 C 
ATOM      5  C   UNL     1      -5.720   0.625  -0.198  0.00  0.00    +0.005 C 
ATOM      6  H   UNL     1      -5.143   1.839  -2.599  0.00  0.00    -0.081 HD
ENDROOT
BRANCH   5   7
ATOM      7  C   UNL     1      -6.202   0.534   1.226  0.00  0.00    -0.042 A 
ATOM      8  C   UNL     1      -5.991   1.589   2.096  0.00  0.00    +0.004 A 
ATOM      9  C   UNL     1      -6.432   1.508   3.404  0.00  0.00    +0.004 A 
ATOM     10  C   UNL     1      -7.086   0.374   3.845  0.00  0.00    +0.045 A 
ATOM     11  C   UNL     1      -7.300  -0.685   2.974  0.00  0.00    +0.120 A 
ATOM     12  C   UNL     1      -6.861  -0.599   1.661  0.00  0.00    +0.049 A 
BRANCH  11  13
ATOM     13  O   UNL     1      -7.943  -1.802   3.406  0.00  0.00    -0.495 OA
ATOM     14  C   UNL     1      -8.372  -1.817   4.769  0.00  0.00    +0.277 C 
ENDBRANCH  11  13
ENDBRANCH   5   7
BRANCH   1  15
ATOM     15  C   UNL     1      -3.535  -0.314  -1.039  0.00  0.00    +0.110 C 
BRANCH  15  18
ATOM     16  C   UNL     1      -1.386  -0.665   0.053  0.00  0.00    +0.218 C 
ATOM     17  O   UNL     1      -0.188  -0.488   0.126  0.00  0.00    -0.275 OA
ATOM     18  N   UNL     1      -2.079  -0.167  -0.990  0.00  0.00    -0.298 N 
BRANCH  18  19
ATOM     19  C   UNL     1      -1.375   0.522  -2.075  0.00  0.00    +0.076 C 
ATOM     20  C   UNL     1      -0.400  -0.447  -2.746  0.00  0.00    +0.022 C 
ATOM     21  C   UNL     1       0.335   0.272  -3.879  0.00  0.00    +0.002 C 
ATOM     22  C   UNL     1       1.109   1.462  -3.310  0.00  0.00    +0.000 C 
ATOM     23  C   UNL     1       0.134   2.431  -2.638  0.00  0.00    +0.002 C 
ATOM     24  C   UNL     1      -0.600   1.712  -1.505  0.00  0.00    +0.022 C 
ENDBRANCH  18  19
BRANCH  16  26
ATOM     25  C   UNL     1      -2.465  -2.831   0.598  0.00  0.00    +0.017 C 
ATOM     26  C   UNL     1      -2.099  -1.443   1.129  0.00  0.00    +0.069 C 
ATOM     27  C   UNL     1      -1.183  -1.589   2.346  0.00  0.00    +0.017 C 
ENDBRANCH  16  26
ENDBRANCH  15  18
ENDBRANCH   1  15
BRANCH   3  28
ATOM     28  C   UNL     1      -5.368   3.805  -2.050  0.00  0.00    -0.043 C 
BRANCH  28  29
ATOM     29  C   UNL     1      -6.543   3.979  -2.977  0.00  0.00    -0.060 A 
ATOM     30  C   UNL     1      -6.354   3.944  -4.346  0.00  0.00    +0.005 A 
ATOM     31  C   UNL     1      -7.429   4.103  -5.200  0.00  0.00    +0.050 A 
ATOM     32  C   UNL     1      -8.700   4.297  -4.685  0.00  0.00    +0.166 A 
ATOM     33  C   UNL     1      -8.892   4.332  -3.306  0.00  0.00    +0.166 A 
ATOM     34  C   UNL     1      -7.810   4.167  -2.456  0.00  0.00    +0.051 A 
ATOM     35  O   UNL     1     -10.218   4.534  -3.055  0.00  0.00    -0.453 OA
ATOM     36  C   UNL     1     -10.772   5.029  -4.288  0.00  0.00    +0.466 C 
ATOM     37  O   UNL     1      -9.907   4.477  -5.298  0.00  0.00    -0.453 OA
ENDBRANCH  28  29
ENDBRANCH   3  28
TORSDOF 8
