REMARK  Name = ZINC09971947
REMARK  6 active torsions:
REMARK  status: ('A' for Active; 'I' for Inactive)
REMARK    1  A    between atoms: C_1  and  N_2
REMARK    2  A    between atoms: N_2  and  C_3
REMARK    3  A    between atoms: C_5  and  N_12
REMARK    4  A    between atoms: C_8  and  N_9
REMARK    5  A    between atoms: N_15  and  S_18
REMARK    6  A    between atoms: S_18  and  C_21
REMARK                            x       y       z     vdW  Elec       q    Type
REMARK                         _______ _______ _______ _____ _____    ______ ____
ROOT
ATOM      1  N   UNL     1       1.351   4.515   4.567  0.00  0.00    -0.327 N 
ATOM      2  C   UNL     1       2.503   4.101   3.756  0.00  0.00    +0.122 C 
ATOM      3  C   UNL     1       2.657   5.057   2.568  0.00  0.00    +0.128 C 
ATOM      4  N   UNL     1       1.377   5.114   1.846  0.00  0.00    -0.174 NA
ATOM      5  C   UNL     1       0.156   5.395   2.616  0.00  0.00    +0.128 C 
ATOM      6  C   UNL     1       0.100   4.420   3.804  0.00  0.00    +0.122 C 
ENDROOT
BRANCH   1   9
ATOM      7  C   UNL     1       0.182   3.266   7.824  0.00  0.00    +0.059 A 
ATOM      8  C   UNL     1       0.253   4.008   6.654  0.00  0.00    +0.048 A 
ATOM      9  C   UNL     1       1.275   3.770   5.746  0.00  0.00    +0.032 A 
ATOM     10  C   UNL     1       2.220   2.786   6.009  0.00  0.00    +0.025 A 
ATOM     11  C   UNL     1       2.149   2.052   7.177  0.00  0.00    +0.036 A 
ATOM     12  C   UNL     1       1.133   2.287   8.084  0.00  0.00    +0.147 A 
BRANCH   7  14
ATOM     13  C   UNL     1      -1.919   4.442   8.411  0.00  0.00    +0.125 C 
ATOM     14  N   UNL     1      -0.845   3.502   8.741  0.00  0.00    -0.345 N 
ATOM     15  H   UNL     1      -0.847   3.045   9.596  0.00  0.00    +0.146 HD
ENDBRANCH   7  14
BRANCH  12  16
ATOM     16  N   UNL     1       1.058   1.494   9.331  0.00  0.00    +0.058 N 
ATOM     17  O   UNL     1       2.079   1.180   9.916  0.00  0.00    -0.126 OA
ATOM     18  O   UNL     1      -0.026   1.157   9.774  0.00  0.00    -0.126 OA
ENDBRANCH  12  16
ENDBRANCH   1   9
BRANCH   4  19
ATOM     19  S   UNL     1       1.313   4.875   0.209  0.00  0.00    +0.061 S 
ATOM     20  O   UNL     1       2.602   5.193  -0.299  0.00  0.00    -0.153 OA
ATOM     21  O   UNL     1       0.133   5.521  -0.250  0.00  0.00    -0.153 OA
BRANCH  19  22
ATOM     22  C   UNL     1       1.079   3.150  -0.058  0.00  0.00    +0.106 A 
ATOM     23  C   UNL     1       2.172   2.313  -0.186  0.00  0.00    +0.029 A 
ATOM     24  C   UNL     1       1.980   0.963  -0.398  0.00  0.00    +0.006 A 
ATOM     25  C   UNL     1       0.697   0.437  -0.483  0.00  0.00    -0.044 A 
ATOM     26  C   UNL     1      -0.391   1.270  -0.351  0.00  0.00    -0.042 A 
ATOM     27  C   UNL     1      -0.196   2.629  -0.139  0.00  0.00    +0.032 A 
ATOM     28  C   UNL     1      -1.810   0.768  -0.423  0.00  0.00    +0.035 C 
ATOM     29  C   UNL     1      -1.858  -0.613  -1.074  0.00  0.00    +0.005 C 
ATOM     30  C   UNL     1      -0.845  -1.519  -0.363  0.00  0.00    +0.005 C 
ATOM     31  C   UNL     1       0.561  -1.044  -0.723  0.00  0.00    +0.035 C 
ENDBRANCH  19  22
ENDBRANCH   4  19
TORSDOF 5
