REMARK  Name = ZINC33809052
REMARK  10 active torsions:
REMARK  status: ('A' for Active; 'I' for Inactive)
REMARK    1  A    between atoms: C_1  and  C_2
REMARK    2  A    between atoms: C_7  and  N_8
REMARK    3  A    between atoms: C_9  and  C_11
REMARK    4  A    between atoms: C_12  and  C_38
REMARK    5  A    between atoms: C_19  and  C_20
REMARK    6  A    between atoms: C_23  and  C_26
REMARK    7  A    between atoms: C_26  and  C_27
REMARK    8  A    between atoms: C_26  and  C_28
REMARK    9  A    between atoms: C_30  and  C_32
REMARK   10  A    between atoms: C_35  and  C_37
REMARK                            x       y       z     vdW  Elec       q    Type
REMARK                         _______ _______ _______ _____ _____    ______ ____
ROOT
ATOM      1  C   UNL     1       0.345   1.547  -1.176  0.00  0.00    +0.066 C 
ATOM      2  C   UNL     1       1.462   2.148  -0.669  0.00  0.00    +0.052 C 
ATOM      3  N   UNL     1       2.539   1.431  -0.373  0.00  0.00    -0.228 NA
ATOM      4  C   UNL     1       2.640   0.135  -0.528  0.00  0.00    +0.178 A 
ATOM      5  N   UNL     1       1.633  -0.662  -1.022  0.00  0.00    -0.272 N 
ATOM      6  C   UNL     1       1.853  -1.978  -1.136  0.00  0.00    +0.268 A 
ATOM      7  O   UNL     1       0.992  -2.722  -1.568  0.00  0.00    -0.266 OA
ATOM      8  C   UNL     1       3.166  -2.497  -0.722  0.00  0.00    +0.081 A 
ATOM      9  C   UNL     1       3.633  -3.770  -0.736  0.00  0.00    +0.028 C 
ATOM     10  S   UNL     1       3.977  -0.995  -0.196  0.00  0.00    -0.046 S 
ATOM     11  C   UNL     1       0.376   0.051  -1.387  0.00  0.00    +0.195 C 
ATOM     12  C   UNL     1       1.471   3.638  -0.445  0.00  0.00    +0.066 C 
ENDROOT
BRANCH   9  13
ATOM     13  C   UNL     1       2.725  -4.883  -1.045  0.00  0.00    -0.024 A 
ATOM     14  C   UNL     1       1.405  -4.864  -0.580  0.00  0.00    +0.008 A 
ATOM     15  C   UNL     1       0.557  -5.909  -0.879  0.00  0.00    +0.004 A 
ATOM     16  C   UNL     1       1.012  -6.982  -1.627  0.00  0.00    -0.045 A 
ATOM     17  C   UNL     1       2.317  -7.012  -2.085  0.00  0.00    +0.004 A 
ATOM     18  C   UNL     1       3.176  -5.971  -1.800  0.00  0.00    +0.008 A 
BRANCH  16  19
ATOM     19  C   UNL     1       0.080  -8.123  -1.943  0.00  0.00    +0.013 C 
ATOM     20  C   UNL     1      -0.409  -8.758  -0.639  0.00  0.00    +0.012 C 
ATOM     21  C   UNL     1      -1.118  -7.599  -2.736  0.00  0.00    +0.012 C 
ENDBRANCH  16  19
ENDBRANCH   9  13
BRANCH  11  22
ATOM     22  C   UNL     1      -0.748  -0.553  -0.585  0.00  0.00    +0.133 A 
ATOM     23  C   UNL     1      -1.905  -1.025  -1.083  0.00  0.00    +0.047 A 
ATOM     24  C   UNL     1      -2.662  -1.495   0.014  0.00  0.00    +0.045 A 
ATOM     25  C   UNL     1      -1.923  -1.283   1.117  0.00  0.00    +0.102 A 
ATOM     26  O   UNL     1      -0.762  -0.718   0.748  0.00  0.00    -0.462 OA
ATOM     27  C   UNL     1      -2.326  -1.628   2.528  0.00  0.00    +0.086 C 
ENDBRANCH  11  22
BRANCH   1  29
ATOM     28  N   UNL     1      -1.648   2.686  -0.525  0.00  0.00    -0.281 N 
ATOM     29  C   UNL     1      -0.799   2.300  -1.498  0.00  0.00    +0.248 C 
ATOM     30  O   UNL     1      -1.023   2.603  -2.657  0.00  0.00    -0.270 OA
ATOM     31  H   UNL     1      -1.407   2.480   0.528  0.00  0.00    +0.155 HD
BRANCH  28  38
ATOM     32  C   UNL     1      -2.966   4.174   1.511  0.00  0.00    +0.045 C 
ATOM     33  C   UNL     1      -3.511   4.085   0.109  0.00  0.00    -0.029 A 
ATOM     34  C   UNL     1      -4.683   4.738  -0.220  0.00  0.00    +0.005 A 
ATOM     35  C   UNL     1      -5.183   4.657  -1.506  0.00  0.00    +0.000 A 
ATOM     36  C   UNL     1      -4.513   3.923  -2.468  0.00  0.00    +0.002 A 
ATOM     37  C   UNL     1      -3.337   3.273  -2.147  0.00  0.00    +0.023 A 
ATOM     38  C   UNL     1      -2.835   3.348  -0.854  0.00  0.00    +0.037 A 
ENDBRANCH  28  38
ENDBRANCH   1  29
TORSDOF 5
