REMARK  Name = ZINC15316062
REMARK  9 active torsions:
REMARK  status: ('A' for Active; 'I' for Inactive)
REMARK    1  A    between atoms: C_1  and  C_2
REMARK    2  A    between atoms: C_2  and  C_4
REMARK    3  A    between atoms: C_2  and  N_14
REMARK    4  A    between atoms: C_15  and  C_17
REMARK    5  A    between atoms: C_17  and  N_18
REMARK    6  A    between atoms: C_21  and  C_25
REMARK    7  A    between atoms: C_21  and  C_26
REMARK    8  A    between atoms: C_29  and  O_32
REMARK    9  A    between atoms: O_32  and  C_33
REMARK                            x       y       z     vdW  Elec       q    Type
REMARK                         _______ _______ _______ _____ _____    ______ ____
ROOT
ATOM      1  C   UNL     1       1.788  -1.734  -0.025  0.00  0.00    +0.213 C 
ENDROOT
BRANCH   1   2
ATOM      2  N   UNL     1       1.304  -0.351  -0.012  0.00  0.00    -0.215 N 
ATOM      3  C   UNL     1       0.002  -0.004   0.002  0.00  0.00    +0.251 C 
ATOM      4  O   UNL     1      -0.954  -0.749   0.008  0.00  0.00    -0.272 OA
ATOM      5  C   UNL     1      -0.018   1.512   0.010  0.00  0.00    +0.135 C 
ATOM      6  N   UNL     1       1.409   1.877  -0.001  0.00  0.00    -0.281 N 
ATOM      7  C   UNL     1       2.101   0.724  -0.014  0.00  0.00    +0.310 C 
ATOM      8  O   UNL     1       3.315   0.665  -0.026  0.00  0.00    -0.252 OA
ATOM      9  C   UNL     1      -0.722   2.047  -1.238  0.00  0.00    +0.047 C 
ATOM     10  H   UNL     1       1.777   2.775  -0.000  0.00  0.00    +0.152 HD
BRANCH   5  11
ATOM     11  C   UNL     1      -0.687   2.026   1.259  0.00  0.00    -0.015 A 
ATOM     12  C   UNL     1      -1.685   1.283   1.863  0.00  0.00    +0.010 A 
ATOM     13  C   UNL     1      -2.296   1.750   3.011  0.00  0.00    +0.046 A 
ATOM     14  C   UNL     1      -1.916   2.970   3.551  0.00  0.00    +0.120 A 
ATOM     15  C   UNL     1      -0.919   3.716   2.939  0.00  0.00    +0.046 A 
ATOM     16  C   UNL     1      -0.307   3.242   1.795  0.00  0.00    +0.010 A 
BRANCH  14  17
ATOM     17  O   UNL     1      -2.520   3.434   4.676  0.00  0.00    -0.495 OA
ATOM     18  C   UNL     1      -3.538   2.614   5.252  0.00  0.00    +0.277 C 
ENDBRANCH  14  17
ENDBRANCH   5  11
ENDBRANCH   1   2
BRANCH   1  20
ATOM     19  N   UNL     1       2.375  -3.449  -1.708  0.00  0.00    -0.311 N 
ATOM     20  C   UNL     1       1.940  -2.199  -1.450  0.00  0.00    +0.231 C 
ATOM     21  O   UNL     1       1.671  -1.450  -2.365  0.00  0.00    -0.274 OA
ATOM     22  H   UNL     1       2.590  -4.048  -0.976  0.00  0.00    +0.149 HD
BRANCH  19  24
ATOM     23  C   UNL     1       3.892  -3.473  -3.627  0.00  0.00    +0.028 C 
ATOM     24  C   UNL     1       2.523  -3.901  -3.093  0.00  0.00    +0.076 C 
BRANCH  24  25
ATOM     25  C   UNL     1       2.410  -5.426  -3.147  0.00  0.00    -0.010 C 
ATOM     26  C   UNL     1       1.042  -5.855  -2.614  0.00  0.00    +0.012 C 
ATOM     27  C   UNL     1       0.929  -7.380  -2.667  0.00  0.00    -0.010 C 
ATOM     28  C   UNL     1       1.083  -7.853  -4.114  0.00  0.00    +0.007 C 
ATOM     29  C   UNL     1       2.452  -7.424  -4.646  0.00  0.00    -0.010 C 
ATOM     30  C   UNL     1       2.565  -5.899  -4.593  0.00  0.00    +0.012 C 
ATOM     31  C   UNL     1       3.553  -8.047  -3.786  0.00  0.00    +0.007 C 
ATOM     32  C   UNL     1       3.398  -7.574  -2.339  0.00  0.00    -0.010 C 
ATOM     33  C   UNL     1       2.030  -8.003  -1.806  0.00  0.00    +0.007 C 
ATOM     34  C   UNL     1       3.511  -6.050  -2.286  0.00  0.00    +0.012 C 
ENDBRANCH  24  25
ENDBRANCH  19  24
ENDBRANCH   1  20
TORSDOF 6
