REMARK  Name = ZINC35000114
REMARK  12 active torsions:
REMARK  status: ('A' for Active; 'I' for Inactive)
REMARK    1  A    between atoms: C_1  and  C_2
REMARK    2  A    between atoms: N_11  and  C_12
REMARK    3  A    between atoms: C_12  and  C_13
REMARK    4  A    between atoms: C_12  and  C_14
REMARK    5  A    between atoms: C_15  and  C_17
REMARK    6  A    between atoms: C_17  and  C_19
REMARK    7  A    between atoms: C_17  and  N_30
REMARK    8  A    between atoms: C_19  and  C_20
REMARK    9  A    between atoms: N_33  and  C_34
REMARK   10  A    between atoms: C_37  and  C_40
REMARK   11  A    between atoms: C_40  and  C_41
REMARK   12  A    between atoms: C_40  and  C_42
REMARK                            x       y       z     vdW  Elec       q    Type
REMARK                         _______ _______ _______ _____ _____    ______ ____
ROOT
ATOM      1  C   UNL     1       0.580  -4.858  -1.704  0.00  0.00    +0.165 C 
ENDROOT
BRANCH   1  12
ATOM      2  C   UNL     1       3.210  -2.446   1.882  0.00  0.00    +0.030 C 
ATOM      3  C   UNL     1       2.605  -2.164   0.505  0.00  0.00    +0.092 C 
ATOM      4  C   UNL     1       1.331  -2.998   0.323  0.00  0.00    +0.130 C 
ATOM      5  N   UNL     1       0.629  -2.527  -0.879  0.00  0.00    -0.297 N 
ATOM      6  C   UNL     1       0.278  -1.103  -0.982  0.00  0.00    +0.127 C 
ATOM      7  C   UNL     1       1.552  -0.270  -0.799  0.00  0.00    +0.128 C 
ATOM      8  N   UNL     1       2.257  -0.740   0.401  0.00  0.00    -0.280 N 
ATOM      9  C   UNL     1       2.575   0.117   1.391  0.00  0.00    +0.303 C 
ATOM     10  O   UNL     1       3.243  -0.262   2.333  0.00  0.00    -0.253 OA
ATOM     11  N   UNL     1       2.153   1.396   1.336  0.00  0.00    -0.297 N 
ATOM     12  C   UNL     1       0.314  -3.384  -1.870  0.00  0.00    +0.236 C 
ATOM     13  O   UNL     1      -0.185  -2.970  -2.895  0.00  0.00    -0.274 OA
ATOM     14  H   UNL     1       1.683   1.719   0.551  0.00  0.00    +0.150 HD
BRANCH  11  15
ATOM     15  C   UNL     1       2.403   2.299   2.462  0.00  0.00    +0.068 C 
ATOM     16  C   UNL     1       3.800   2.909   2.326  0.00  0.00    +0.027 C 
ATOM     17  C   UNL     1       1.358   3.416   2.462  0.00  0.00    +0.027 C 
ENDBRANCH  11  15
ENDBRANCH   1  12
BRANCH   1  18
ATOM     18  N   UNL     1       0.486  -5.521  -3.007  0.00  0.00    -0.288 N 
ATOM     19  C   UNL     1       1.146  -6.676  -3.226  0.00  0.00    +0.304 C 
ATOM     20  O   UNL     1       1.821  -7.167  -2.341  0.00  0.00    -0.252 OA
ATOM     21  N   UNL     1       1.059  -7.285  -4.424  0.00  0.00    -0.269 N 
ATOM     22  H   UNL     1      -0.052  -5.129  -3.713  0.00  0.00    +0.151 HD
ATOM     23  H   UNL     1       0.575  -6.862  -5.150  0.00  0.00    +0.156 HD
BRANCH  21  24
ATOM     24  C   UNL     1       1.667  -8.530  -4.622  0.00  0.00    +0.035 A 
ATOM     25  C   UNL     1       1.050  -9.488  -5.416  0.00  0.00    +0.023 A 
ATOM     26  C   UNL     1       1.653 -10.716  -5.609  0.00  0.00    +0.006 A 
ATOM     27  C   UNL     1       2.870 -10.991  -5.013  0.00  0.00    -0.045 A 
ATOM     28  C   UNL     1       3.487 -10.039  -4.222  0.00  0.00    +0.006 A 
ATOM     29  C   UNL     1       2.892  -8.808  -4.029  0.00  0.00    +0.023 A 
BRANCH  27  30
ATOM     30  C   UNL     1       3.526 -12.331  -5.227  0.00  0.00    +0.013 C 
ATOM     31  C   UNL     1       4.892 -12.132  -5.885  0.00  0.00    +0.012 C 
ATOM     32  C   UNL     1       3.707 -13.031  -3.878  0.00  0.00    +0.012 C 
ENDBRANCH  27  30
ENDBRANCH  21  24
ENDBRANCH   1  18
BRANCH   1  33
ATOM     33  C   UNL     1      -0.453  -5.460  -0.750  0.00  0.00    +0.069 C 
BRANCH  33  34
ATOM     34  C   UNL     1      -0.126  -6.910  -0.505  0.00  0.00    -0.020 A 
ATOM     35  C   UNL     1      -0.635  -7.965  -1.160  0.00  0.00    +0.087 A 
ATOM     36  N   UNL     1      -0.104  -9.124  -0.663  0.00  0.00    -0.360 N 
ATOM     37  H   UNL     1      -0.320 -10.016  -0.978  0.00  0.00    +0.165 HD
ATOM     38  C   UNL     1       0.782  -8.836   0.351  0.00  0.00    +0.047 A 
ATOM     39  C   UNL     1       0.812  -7.436   0.490  0.00  0.00    +0.003 A 
ATOM     40  C   UNL     1       1.637  -6.849   1.450  0.00  0.00    +0.010 A 
ATOM     41  C   UNL     1       2.417  -7.638   2.249  0.00  0.00    +0.001 A 
ATOM     42  C   UNL     1       2.394  -9.020   2.113  0.00  0.00    +0.002 A 
ATOM     43  C   UNL     1       1.579  -9.620   1.177  0.00  0.00    +0.026 A 
ENDBRANCH  33  34
ENDBRANCH   1  33
TORSDOF 7
