REMARK  Name = ZINC08791455
REMARK  5 active torsions:
REMARK  status: ('A' for Active; 'I' for Inactive)
REMARK    1  A    between atoms: C_1  and  C_2
REMARK    2  A    between atoms: C_2  and  C_4
REMARK    3  A    between atoms: C_2  and  N_13
REMARK    4  A    between atoms: N_6  and  C_7
REMARK    5  A    between atoms: C_14  and  C_16
REMARK                            x       y       z     vdW  Elec       q    Type
REMARK                         _______ _______ _______ _____ _____    ______ ____
ROOT
ATOM      1  C   UNL     1       6.618   0.096   2.782  0.00  0.00    +0.167 C 
ATOM      2  C   UNL     1       5.832  -0.470   3.973  0.00  0.00    +0.069 C 
ATOM      3  C   UNL     1       5.773   0.542   5.088  0.00  0.00    -0.015 A 
ATOM      4  C   UNL     1       4.882   0.537   6.235  0.00  0.00    +0.003 A 
ATOM      5  C   UNL     1       3.865  -0.336   6.636  0.00  0.00    +0.010 A 
ATOM      6  C   UNL     1       3.210  -0.030   7.803  0.00  0.00    +0.001 A 
ATOM      7  C   UNL     1       3.532   1.087   8.556  0.00  0.00    +0.002 A 
ATOM      8  C   UNL     1       4.533   1.967   8.183  0.00  0.00    +0.026 A 
ATOM      9  C   UNL     1       5.215   1.681   7.002  0.00  0.00    +0.047 A 
ATOM     10  N   UNL     1       6.233   2.321   6.355  0.00  0.00    -0.356 N 
ATOM     11  H   UNL     1       6.664   3.134   6.660  0.00  0.00    +0.166 HD
ATOM     12  C   UNL     1       6.552   1.640   5.212  0.00  0.00    +0.046 A 
ATOM     13  C   UNL     1       7.597   2.025   4.192  0.00  0.00    +0.155 C 
ATOM     14  N   UNL     1       7.763   0.842   3.315  0.00  0.00    -0.273 N 
ATOM     15  C   UNL     1       9.073   0.602   3.167  0.00  0.00    +0.248 C 
ATOM     16  O   UNL     1       9.558  -0.158   2.353  0.00  0.00    -0.270 OA
ATOM     17  C   UNL     1       9.831   1.398   4.138  0.00  0.00    +0.042 A 
ATOM     18  C   UNL     1       8.936   2.259   4.805  0.00  0.00    -0.009 A 
ATOM     19  C   UNL     1       9.358   3.100   5.810  0.00  0.00    +0.006 A 
ATOM     20  C   UNL     1      10.712   3.073   6.130  0.00  0.00    +0.000 A 
ATOM     21  C   UNL     1      11.599   2.244   5.474  0.00  0.00    +0.001 A 
ATOM     22  C   UNL     1      11.189   1.386   4.464  0.00  0.00    +0.013 A 
ENDROOT
BRANCH   1  24
ATOM     23  N   UNL     1       4.602   0.550   1.423  0.00  0.00    -0.303 N 
ATOM     24  C   UNL     1       5.736   1.019   1.981  0.00  0.00    +0.235 C 
ATOM     25  O   UNL     1       6.047   2.182   1.838  0.00  0.00    -0.274 OA
ATOM     26  H   UNL     1       4.354  -0.380   1.537  0.00  0.00    +0.149 HD
BRANCH  23  28
ATOM     27  C   UNL     1       4.253   1.514  -0.798  0.00  0.00    +0.038 C 
ATOM     28  C   UNL     1       3.745   1.447   0.644  0.00  0.00    +0.156 C 
BRANCH  28  29
ATOM     29  C   UNL     1       2.331   0.926   0.654  0.00  0.00    +0.233 C 
ATOM     30  O   UNL     1       2.066  -0.095   1.254  0.00  0.00    -0.274 OA
ATOM     31  N   UNL     1       1.362   1.593  -0.002  0.00  0.00    -0.311 N 
ATOM     32  H   UNL     1       1.574   2.409  -0.482  0.00  0.00    +0.149 HD
BRANCH  31  33
ATOM     33  C   UNL     1      -0.013   1.086   0.008  0.00  0.00    +0.073 C 
ATOM     34  C   UNL     1      -0.729   1.579   1.267  0.00  0.00    +0.022 C 
ATOM     35  C   UNL     1      -2.164   1.050   1.278  0.00  0.00    +0.002 C 
ATOM     36  C   UNL     1      -2.904   1.556   0.038  0.00  0.00    +0.000 C 
ATOM     37  C   UNL     1      -2.188   1.063  -1.221  0.00  0.00    +0.002 C 
ATOM     38  C   UNL     1      -0.753   1.593  -1.232  0.00  0.00    +0.022 C 
ENDBRANCH  31  33
ENDBRANCH  28  29
ENDBRANCH  23  28
ENDBRANCH   1  24
TORSDOF 4
