REMARK  Name = ZINC38684337
REMARK  17 active torsions:
REMARK  status: ('A' for Active; 'I' for Inactive)
REMARK    1  A    between atoms: C_1  and  C_2
REMARK    2  A    between atoms: C_2  and  O_3
REMARK    3  A    between atoms: O_3  and  C_4
REMARK    4  A    between atoms: C_6  and  C_16
REMARK    5  A    between atoms: C_9  and  O_10
REMARK    6  A    between atoms: O_10  and  C_11
REMARK    7  A    between atoms: C_11  and  C_12
REMARK    8  A    between atoms: C_12  and  C_13
REMARK    9  A    between atoms: C_13  and  C_14
REMARK   10  A    between atoms: C_13  and  C_15
REMARK   11  A    between atoms: C_21  and  O_30
REMARK   12  A    between atoms: C_25  and  N_29
REMARK   13  A    between atoms: C_26  and  C_27
REMARK   14  A    between atoms: O_30  and  C_31
REMARK   15  A    between atoms: C_31  and  C_33
REMARK   16  A    between atoms: C_38  and  O_39
REMARK   17  A    between atoms: O_39  and  C_40
REMARK                            x       y       z     vdW  Elec       q    Type
REMARK                         _______ _______ _______ _____ _____    ______ ____
ROOT
ATOM      1  C   UNL     1      -0.217  -4.925  -0.589  0.00  0.00    +0.098 C 
ATOM      2  C   UNL     1       0.878  -5.778  -1.173  0.00  0.00    +0.008 A 
ATOM      3  C   UNL     1       1.686  -5.259  -2.168  0.00  0.00    +0.012 A 
ATOM      4  C   UNL     1       2.696  -6.026  -2.716  0.00  0.00    +0.047 A 
ATOM      5  C   UNL     1       2.902  -7.323  -2.267  0.00  0.00    +0.135 A 
ATOM      6  C   UNL     1       2.095  -7.845  -1.269  0.00  0.00    +0.093 A 
ATOM      7  C   UNL     1       1.080  -7.072  -0.720  0.00  0.00    +0.138 A 
ATOM      8  O   UNL     1       0.299  -7.598   0.255  0.00  0.00    -0.441 OA
ATOM      9  C   UNL     1      -0.897  -7.048   0.525  0.00  0.00    +0.199 C 
ATOM     10  C   UNL     1      -1.202  -5.786   0.153  0.00  0.00    +0.098 C 
ENDROOT
BRANCH   1  13
ATOM     11  C   UNL     1       0.779  -1.645   0.998  0.00  0.00    +0.162 A 
ATOM     12  C   UNL     1       0.227  -2.569   0.126  0.00  0.00    +0.054 A 
ATOM     13  C   UNL     1       0.384  -3.922   0.362  0.00  0.00    -0.031 A 
ATOM     14  C   UNL     1       1.090  -4.356   1.468  0.00  0.00    +0.008 A 
ATOM     15  C   UNL     1       1.643  -3.440   2.343  0.00  0.00    +0.050 A 
ATOM     16  C   UNL     1       1.495  -2.082   2.109  0.00  0.00    +0.162 A 
BRANCH  11  17
ATOM     17  O   UNL     1       0.626  -0.313   0.767  0.00  0.00    -0.489 OA
BRANCH  17  19
ATOM     18  C   UNL     1      -0.185   1.588  -0.484  0.00  0.00    +0.048 C 
ATOM     19  C   UNL     1      -0.121   0.062  -0.391  0.00  0.00    +0.226 C 
ENDBRANCH  17  19
ENDBRANCH  11  17
BRANCH  16  20
ATOM     20  O   UNL     1       2.043  -1.179   2.965  0.00  0.00    -0.488 OA
BRANCH  20  21
ATOM     21  C   UNL     1       2.764  -1.701   4.083  0.00  0.00    +0.229 C 
BRANCH  21  22
ATOM     22  C   UNL     1       3.303  -0.544   4.927  0.00  0.00    +0.044 C 
BRANCH  22  23
ATOM     23  C   UNL     1       4.076  -1.102   6.124  0.00  0.00    -0.014 C 
ATOM     24  C   UNL     1       5.313  -1.852   5.627  0.00  0.00    +0.007 C 
ATOM     25  C   UNL     1       4.508   0.050   7.034  0.00  0.00    +0.007 C 
ENDBRANCH  22  23
ENDBRANCH  21  22
ENDBRANCH  20  21
ENDBRANCH  16  20
ENDBRANCH   1  13
BRANCH   9  26
ATOM     26  N   UNL     1      -1.834  -7.790   1.200  0.00  0.00    -0.328 N 
ATOM     27  H   UNL     1      -1.629  -8.697   1.475  0.00  0.00    +0.145 HD
ATOM     28  H   UNL     1      -2.702  -7.406   1.403  0.00  0.00    +0.145 HD
ENDBRANCH   9  26
BRANCH  10  29
ATOM     29  C   UNL     1      -2.494  -5.258   0.472  0.00  0.00    +0.101 C 
ATOM     30  N   UNL     1      -3.519  -4.839   0.726  0.00  0.00    -0.191 NA
ENDBRANCH  10  29
BRANCH   5  31
ATOM     31  O   UNL     1       3.895  -8.079  -2.805  0.00  0.00    -0.422 OA
BRANCH  31  32
ATOM     32  C   UNL     1       5.170  -7.733  -2.538  0.00  0.00    +0.348 C 
ATOM     33  O   UNL     1       5.404  -6.836  -1.753  0.00  0.00    -0.244 OA
BRANCH  32  34
ATOM     34  C   UNL     1       6.280  -8.443  -3.199  0.00  0.00    +0.101 A 
ATOM     35  C   UNL     1       6.015  -9.472  -4.107  0.00  0.00    +0.018 A 
ATOM     36  C   UNL     1       7.057 -10.131  -4.721  0.00  0.00    +0.001 A 
ATOM     37  C   UNL     1       8.368  -9.779  -4.442  0.00  0.00    +0.004 A 
ATOM     38  C   UNL     1       8.644  -8.765  -3.547  0.00  0.00    +0.046 A 
ATOM     39  C   UNL     1       7.608  -8.086  -2.924  0.00  0.00    +0.134 A 
BRANCH  39  40
ATOM     40  O   UNL     1       7.877  -7.086  -2.049  0.00  0.00    -0.494 OA
ATOM     41  C   UNL     1       9.254  -6.778  -1.819  0.00  0.00    +0.277 C 
ENDBRANCH  39  40
ENDBRANCH  32  34
ENDBRANCH  31  32
ENDBRANCH   5  31
TORSDOF 13
