REMARK  Name = ZINC33897816
REMARK  6 active torsions:
REMARK  status: ('A' for Active; 'I' for Inactive)
REMARK    1  A    between atoms: C_13  and  N_14
REMARK    2  A    between atoms: C_15  and  C_17
REMARK    3  A    between atoms: C_20  and  CA_22
REMARK    4  A    between atoms: CA_22  and  C_24
REMARK    5  A    between atoms: CA_22  and  N_26
REMARK    6  A    between atoms: C_24  and  O_25
REMARK                            x       y       z     vdW  Elec       q    Type
REMARK                         _______ _______ _______ _____ _____    ______ ____
ROOT
ATOM      1  N   UNL     1       4.379  -0.781   1.156  0.00  0.00    -0.299 N 
ATOM      2  C   UNL     1       5.672  -1.161   1.135  0.00  0.00    +0.266 C 
ATOM      3  O   UNL     1       6.148  -1.643   0.125  0.00  0.00    -0.268 OA
ATOM      4  H   UNL     1       4.000  -0.396   1.961  0.00  0.00    +0.150 HD
ENDROOT
BRANCH   1  17
ATOM      5  C   UNL     1      -0.017   1.375   0.010  0.00  0.00    +0.001 A 
ATOM      6  C   UNL     1       1.169   2.088   0.002  0.00  0.00    +0.000 A 
ATOM      7  C   UNL     1       2.380   1.420  -0.013  0.00  0.00    +0.006 A 
ATOM      8  C   UNL     1       2.408   0.042  -0.021  0.00  0.00    -0.015 A 
ATOM      9  C   UNL     1       1.221  -0.685  -0.013  0.00  0.00    -0.012 A 
ATOM     10  C   UNL     1       0.002  -0.004   0.002  0.00  0.00    +0.009 A 
ATOM     11  C   UNL     1       1.530  -2.136  -0.025  0.00  0.00    -0.012 A 
ATOM     12  C   UNL     1       0.694  -3.254  -0.023  0.00  0.00    +0.009 A 
ATOM     13  C   UNL     1       1.238  -4.521  -0.035  0.00  0.00    +0.001 A 
ATOM     14  C   UNL     1       2.611  -4.690  -0.050  0.00  0.00    +0.000 A 
ATOM     15  C   UNL     1       3.445  -3.587  -0.052  0.00  0.00    +0.006 A 
ATOM     16  C   UNL     1       2.910  -2.316  -0.040  0.00  0.00    -0.015 A 
ATOM     17  C   UNL     1       3.547  -0.948  -0.038  0.00  0.00    +0.135 C 
ENDBRANCH   1  17
BRANCH   2  18
ATOM     18  C   UNL     1       6.510  -0.992   2.336  0.00  0.00    +0.163 A 
ATOM     19  C   UNL     1       7.824  -1.323   2.458  0.00  0.00    +0.230 A 
ATOM     20  O   UNL     1       8.193  -1.004   3.709  0.00  0.00    -0.449 OA
ATOM     21  C   UNL     1       7.129  -0.489   4.342  0.00  0.00    +0.184 A 
ATOM     22  N   UNL     1       6.115  -0.471   3.530  0.00  0.00    -0.210 NA
BRANCH  21  23
ATOM     23  CA  UNL     1       7.114  -0.002   5.768  0.00  0.00    +0.039 C 
BRANCH  23  24
ATOM     24  N   UNL     1       7.801  -0.977   6.626  0.00  0.00    +0.387 N 
ATOM     25  H1  UNL     1       8.755  -1.083   6.317  0.00  0.00    -0.089 HD
ATOM     26  H2  UNL     1       7.790  -0.651   7.581  0.00  0.00    -0.089 HD
ATOM     27  H3  UNL     1       7.328  -1.867   6.569  0.00  0.00    -0.089 HD
ENDBRANCH  23  24
BRANCH  23  28
ATOM     28  C   UNL     1       7.830   1.347   5.855  0.00  0.00    +0.149 C 
BRANCH  28  29
ATOM     29  O   UNL     1       7.714   1.863   7.182  0.00  0.00    -0.396 OA
ATOM     30  H   UNL     1       8.146   2.719   7.311  0.00  0.00    +0.209 HD
ENDBRANCH  28  29
ENDBRANCH  23  28
ENDBRANCH  21  23
ENDBRANCH   2  18
TORSDOF 6
