REMARK  Name = ZINC20394786
REMARK  16 active torsions:
REMARK  status: ('A' for Active; 'I' for Inactive)
REMARK    1  A    between atoms: C_1  and  C_2
REMARK    2  A    between atoms: C_5  and  N_9
REMARK    3  A    between atoms: C_7  and  C_8
REMARK    4  A    between atoms: N_9  and  C_10
REMARK    5  A    between atoms: C_10  and  N_12
REMARK    6  A    between atoms: N_12  and  C_13
REMARK    7  A    between atoms: C_13  and  C_14
REMARK    8  A    between atoms: C_14  and  C_35
REMARK    9  A    between atoms: C_16  and  N_23
REMARK   10  A    between atoms: C_19  and  C_21
REMARK   11  A    between atoms: C_19  and  C_22
REMARK   12  A    between atoms: N_23  and  C_24
REMARK   13  A    between atoms: C_24  and  N_26
REMARK   14  A    between atoms: N_26  and  C_27
REMARK   15  A    between atoms: C_30  and  C_34
REMARK   16  A    between atoms: C_31  and  C_33
REMARK                            x       y       z     vdW  Elec       q    Type
REMARK                         _______ _______ _______ _____ _____    ______ ____
ROOT
ATOM      1  C   UNL     1       0.180  -9.525   0.368  0.00  0.00    -0.014 C 
ATOM      2  C   UNL     1       0.632  -8.739   1.590  0.00  0.00    +0.030 C 
ATOM      3  C   UNL     1      -0.291  -7.585   1.940  0.00  0.00    +0.073 C 
ATOM      4  C   UNL     1      -1.738  -8.026   2.060  0.00  0.00    +0.028 C 
ATOM      5  C   UNL     1      -2.240  -8.833   0.875  0.00  0.00    -0.033 C 
ATOM      6  C   UNL     1      -1.282  -9.926   0.443  0.00  0.00    +0.014 C 
ATOM      7  C   UNL     1      -2.594  -7.912  -0.296  0.00  0.00    +0.011 C 
ATOM      8  C   UNL     1      -3.558  -9.520   1.313  0.00  0.00    +0.011 C 
ATOM      9  C   UNL     1       0.488  -8.765  -0.923  0.00  0.00    +0.013 C 
ENDROOT
BRANCH   3  10
ATOM     10  N   UNL     1      -0.137  -6.460   1.024  0.00  0.00    -0.323 N 
ATOM     11  H   UNL     1      -0.848  -6.323   0.195  0.00  0.00    +0.148 HD
BRANCH  10  12
ATOM     12  C   UNL     1       0.877  -5.588   1.192  0.00  0.00    +0.135 C 
ATOM     13  S   UNL     1       1.983  -5.800   2.482  0.00  0.00    -0.019 S 
BRANCH  12  14
ATOM     14  N   UNL     1       1.019  -4.548   0.346  0.00  0.00    -0.297 N 
ATOM     15  H   UNL     1       0.251  -4.350  -0.416  0.00  0.00    +0.154 HD
BRANCH  14  16
ATOM     16  C   UNL     1       2.144  -3.722   0.437  0.00  0.00    +0.033 A 
ATOM     17  C   UNL     1       3.384  -4.265   0.747  0.00  0.00    +0.023 A 
ATOM     18  C   UNL     1       4.492  -3.447   0.837  0.00  0.00    +0.005 A 
ATOM     19  C   UNL     1       4.369  -2.087   0.618  0.00  0.00    -0.047 A 
ATOM     20  C   UNL     1       3.135  -1.542   0.314  0.00  0.00    -0.046 A 
ATOM     21  C   UNL     1       2.023  -2.356   0.218  0.00  0.00    +0.027 A 
ATOM     22  C   UNL     1       3.004  -0.058   0.082  0.00  0.00    +0.044 C 
ATOM     23  C   UNL     1       5.581  -1.196   0.717  0.00  0.00    +0.044 C 
ENDBRANCH  14  16
ENDBRANCH  12  14
ENDBRANCH  10  12
ENDBRANCH   3  10
BRANCH   1  24
ATOM     24  C   UNL     1       1.015 -10.829   0.330  0.00  0.00    +0.110 C 
BRANCH  24  25
ATOM     25  N   UNL     1       2.438 -10.496   0.232  0.00  0.00    -0.326 N 
ATOM     26  H   UNL     1       2.755  -9.443   0.198  0.00  0.00    +0.148 HD
BRANCH  25  27
ATOM     27  C   UNL     1       3.358 -11.479   0.184  0.00  0.00    +0.135 C 
ATOM     28  S   UNL     1       2.865 -13.118   0.237  0.00  0.00    -0.019 S 
BRANCH  27  29
ATOM     29  N   UNL     1       4.668 -11.173   0.094  0.00  0.00    -0.297 N 
ATOM     30  H   UNL     1       4.992 -10.123   0.149  0.00  0.00    +0.154 HD
BRANCH  29  35
ATOM     31  C   UNL     1       8.508 -15.296  -0.564  0.00  0.00    +0.044 C 
ATOM     32  C   UNL     1       7.488 -14.201  -0.389  0.00  0.00    -0.047 A 
ATOM     33  C   UNL     1       6.312 -14.230  -1.116  0.00  0.00    +0.005 A 
ATOM     34  C   UNL     1       5.375 -13.228  -0.959  0.00  0.00    +0.023 A 
ATOM     35  C   UNL     1       5.615 -12.190  -0.068  0.00  0.00    +0.033 A 
ATOM     36  C   UNL     1       6.799 -12.160   0.657  0.00  0.00    +0.027 A 
ATOM     37  C   UNL     1       7.729 -13.169   0.499  0.00  0.00    -0.046 A 
ATOM     38  C   UNL     1       9.012 -13.141   1.290  0.00  0.00    +0.044 C 
ENDBRANCH  29  35
ENDBRANCH  27  29
ENDBRANCH  25  27
ENDBRANCH  24  25
ENDBRANCH   1  24
TORSDOF 9
