REMARK  Name = ZINC38979665
REMARK  6 active torsions:
REMARK  status: ('A' for Active; 'I' for Inactive)
REMARK    1  A    between atoms: C_1  and  C_2
REMARK    2  A    between atoms: C_6  and  C_7
REMARK    3  A    between atoms: N_8  and  N_9
REMARK    4  A    between atoms: C_10  and  C_17
REMARK    5  A    between atoms: C_14  and  S_16
REMARK    6  A    between atoms: C_20  and  C_23
REMARK                            x       y       z     vdW  Elec       q    Type
REMARK                         _______ _______ _______ _____ _____    ______ ____
ROOT
ATOM      1  N   UNL     1      -0.049  -0.587   4.874  0.00  0.00    -0.207 N 
ATOM      2  C   UNL     1      -0.036  -1.395   6.106  0.00  0.00    +0.206 C 
ATOM      3  N   UNL     1      -0.167  -0.447   7.235  0.00  0.00    -0.231 NA
ATOM      4  N   UNL     1      -0.811   0.737   6.645  0.00  0.00    -0.225 NA
ATOM      5  C   UNL     1      -0.181   0.821   5.299  0.00  0.00    +0.231 C 
ATOM      6  H   UNL     1      -0.734  -0.838   7.972  0.00  0.00    +0.143 HD
ATOM      7  H   UNL     1      -1.809   0.608   6.574  0.00  0.00    +0.143 HD
ENDROOT
BRANCH   2   8
ATOM      8  C   UNL     1       1.283  -2.163   6.216  0.00  0.00    +0.190 C 
ATOM      9  C   UNL     1       1.288  -3.050   7.448  0.00  0.00    +0.029 C 
ATOM     10  C   UNL     1       2.301  -2.580   8.179  0.00  0.00    +0.058 C 
ATOM     11  N   UNL     1       2.899  -1.540   7.557  0.00  0.00    -0.159 NA
ATOM     12  N   UNL     1       2.404  -1.240   6.463  0.00  0.00    -0.177 NA
ATOM     13  C   UNL     1       2.721  -3.133   9.516  0.00  0.00    +0.067 C 
ENDBRANCH   2   8
BRANCH   1  15
ATOM     14  C   UNL     1       0.057  -2.340   3.328  0.00  0.00    +0.145 C 
ATOM     15  N   UNL     1       0.051  -1.061   3.559  0.00  0.00    -0.188 NA
BRANCH  14  21
ATOM     16  C   UNL     1       0.130  -5.299   2.460  0.00  0.00    +0.045 C 
ATOM     17  C   UNL     1       0.329  -4.144   1.512  0.00  0.00    -0.035 A 
ATOM     18  C   UNL     1       0.553  -4.363   0.171  0.00  0.00    +0.011 A 
ATOM     19  C   UNL     1       0.728  -3.300  -0.655  0.00  0.00    +0.046 A 
ATOM     20  S   UNL     1       0.577  -1.918   0.465  0.00  0.00    -0.095 S 
ATOM     21  C   UNL     1       0.284  -2.839   1.966  0.00  0.00    +0.035 A 
ENDBRANCH  14  21
ENDBRANCH   1  15
BRANCH   5  22
ATOM     22  S   UNL     1      -1.253   1.731   4.153  0.00  0.00    -0.138 S 
ATOM     23  H   UNL     1      -1.282   2.978   4.656  0.00  0.00    +0.105 HD
ENDBRANCH   5  22
TORSDOF 4
