REMARK  Name = ZINC09102567
REMARK  16 active torsions:
REMARK  status: ('A' for Active; 'I' for Inactive)
REMARK    1  A    between atoms: C_1  and  C_2
REMARK    2  A    between atoms: C_3  and  C_32
REMARK    3  A    between atoms: C_4  and  C_31
REMARK    4  A    between atoms: C_7  and  C_8
REMARK    5  A    between atoms: C_8  and  C_10
REMARK    6  A    between atoms: C_10  and  C_12
REMARK    7  A    between atoms: C_10  and  S_13
REMARK    8  A    between atoms: S_13  and  C_14
REMARK    9  A    between atoms: C_17  and  C_26
REMARK   10  A    between atoms: N_18  and  C_19
REMARK   11  A    between atoms: C_26  and  C_28
REMARK   12  A    between atoms: C_26  and  N_61
REMARK   13  A    between atoms: C_29  and  N_61
REMARK   14  A    between atoms: C_30  and  N_61
REMARK   15  A    between atoms: C_32  and  O_34
REMARK   16  A    between atoms: O_34  and  C_35
REMARK                            x       y       z     vdW  Elec       q    Type
REMARK                         _______ _______ _______ _____ _____    ______ ____
ROOT
ATOM      1  C   UNL     1      -1.996   4.519   4.346  0.00  0.00    +0.197 A 
ATOM      2  N   UNL     1      -2.890   3.600   4.064  0.00  0.00    -0.122 NA
ATOM      3  N   UNL     1      -2.564   2.989   2.981  0.00  0.00    -0.135 NA
ATOM      4  C   UNL     1      -1.451   3.475   2.510  0.00  0.00    +0.125 A 
ATOM      5  N   UNL     1      -1.044   4.465   3.365  0.00  0.00    -0.275 N 
ENDROOT
BRANCH   5   6
ATOM      6  C   UNL     1       0.107   5.259   3.256  0.00  0.00    +0.050 A 
ATOM      7  C   UNL     1       1.364   4.679   3.360  0.00  0.00    +0.028 A 
ATOM      8  C   UNL     1       2.496   5.462   3.248  0.00  0.00    +0.022 A 
ATOM      9  C   UNL     1       2.378   6.826   3.043  0.00  0.00    +0.041 A 
ATOM     10  C   UNL     1       1.126   7.407   2.943  0.00  0.00    +0.022 A 
ATOM     11  C   UNL     1      -0.009   6.627   3.050  0.00  0.00    +0.028 A 
ATOM     12 CL   UNL     1       3.803   7.809   2.909  0.00  0.00    -0.084 Cl
ENDBRANCH   5   6
BRANCH   4  13
ATOM     13  C   UNL     1      -0.740   3.027   1.259  0.00  0.00    -0.003 C 
ATOM     14  C   UNL     1      -1.486   3.553   0.032  0.00  0.00    -0.005 C 
BRANCH  13  17
ATOM     15  C   UNL     1      -0.013   1.086   0.008  0.00  0.00    -0.096 C 
ATOM     16  C   UNL     1      -0.072   1.015   2.428  0.00  0.00    -0.096 C 
ATOM     17  N   UNL     1      -0.727   1.550   1.216  0.00  0.00    +0.382 N 
ATOM     18  H   UNL     1      -1.695   1.209   1.182  0.00  0.00    -0.082 HD
ENDBRANCH  13  17
ENDBRANCH   4  13
BRANCH   1  19
ATOM     19  S   UNL     1      -2.014   5.610   5.729  0.00  0.00    -0.074 S 
BRANCH  19  20
ATOM     20  C   UNL     1      -3.542   5.070   6.535  0.00  0.00    +0.124 C 
ATOM     21  C   UNL     1      -4.734   5.375   5.626  0.00  0.00    +0.028 C 
BRANCH  20  22
ATOM     22  C   UNL     1      -3.706   5.801   7.843  0.00  0.00    +0.192 C 
ATOM     23  O   UNL     1      -3.180   6.884   8.002  0.00  0.00    -0.289 OA
BRANCH  22  30
ATOM     24  C   UNL     1      -4.191   7.112  10.620  0.00  0.00    +0.047 C 
ATOM     25  C   UNL     1      -4.704   5.785  10.123  0.00  0.00    -0.008 A 
ATOM     26  C   UNL     1      -5.514   4.875  10.836  0.00  0.00    +0.083 A 
ATOM     27  C   UNL     1      -5.747   3.795  10.003  0.00  0.00    +0.028 A 
ATOM     28  N   UNL     1      -5.128   4.013   8.834  0.00  0.00    -0.355 N 
ATOM     29  H   UNL     1      -5.136   3.410   8.073  0.00  0.00    +0.166 HD
ATOM     30  C   UNL     1      -4.474   5.227   8.884  0.00  0.00    +0.087 A 
ATOM     31  C   UNL     1      -6.567   2.579  10.350  0.00  0.00    +0.064 C 
BRANCH  26  32
ATOM     32  C   UNL     1      -6.017   5.045  12.210  0.00  0.00    +0.341 C 
ATOM     33  O   UNL     1      -7.087   5.589  12.403  0.00  0.00    -0.245 OA
BRANCH  32  34
ATOM     34  O   UNL     1      -5.291   4.596  13.253  0.00  0.00    -0.464 OA
ATOM     35  C   UNL     1      -5.849   4.797  14.579  0.00  0.00    +0.280 C 
ENDBRANCH  32  34
ENDBRANCH  26  32
ENDBRANCH  22  30
ENDBRANCH  20  22
ENDBRANCH  19  20
ENDBRANCH   1  19
TORSDOF 9
