REMARK  Name = ZINC59293555
REMARK  13 active torsions:
REMARK  status: ('A' for Active; 'I' for Inactive)
REMARK    1  A    between atoms: C_1  and  C_2
REMARK    2  A    between atoms: C_2  and  C_3
REMARK    3  A    between atoms: C_3  and  N_4
REMARK    4  A    between atoms: N_4  and  C_5
REMARK    5  A    between atoms: C_5  and  C_6
REMARK    6  A    between atoms: C_6  and  C_7
REMARK    7  A    between atoms: C_8  and  C_10
REMARK    8  A    between atoms: C_16  and  C_17
REMARK    9  A    between atoms: C_20  and  C_23
REMARK   10  A    between atoms: C_25  and  N_38
REMARK   11  A    between atoms: C_26  and  C_36
REMARK   12  A    between atoms: C_27  and  C_29
REMARK   13  A    between atoms: C_32  and  C_35
REMARK                            x       y       z     vdW  Elec       q    Type
REMARK                         _______ _______ _______ _____ _____    ______ ____
ROOT
ATOM      1  C   UNL     1      -0.856  -1.833   2.504  0.00  0.00    +0.058 C 
ATOM      2  C   UNL     1      -1.818  -2.596   3.086  0.00  0.00    +0.099 A 
ATOM      3  N   UNL     1      -2.944  -2.091   3.704  0.00  0.00    -0.257 N 
ATOM      4  C   UNL     1      -3.813  -2.973   4.238  0.00  0.00    +0.271 A 
ATOM      5  O   UNL     1      -4.824  -2.590   4.796  0.00  0.00    -0.266 OA
ATOM      6  C   UNL     1      -3.510  -4.405   4.130  0.00  0.00    +0.079 A 
ATOM      7  C   UNL     1      -4.217  -5.472   4.580  0.00  0.00    +0.028 C 
ATOM      8  S   UNL     1      -1.959  -4.365   3.246  0.00  0.00    -0.065 S 
ATOM      9  C   UNL     1      -3.132  -0.705   3.750  0.00  0.00    +0.118 C 
ATOM     10  C   UNL     1      -2.268   0.188   3.218  0.00  0.00    +0.079 C 
ATOM     11  C   UNL     1      -1.017  -0.326   2.535  0.00  0.00    +0.100 C 
ENDROOT
BRANCH   7  12
ATOM     12  C   UNL     1      -5.565  -5.279   5.134  0.00  0.00    -0.024 A 
ATOM     13  C   UNL     1      -6.446  -4.368   4.540  0.00  0.00    +0.008 A 
ATOM     14  C   UNL     1      -7.709  -4.194   5.065  0.00  0.00    +0.004 A 
ATOM     15  C   UNL     1      -8.106  -4.916   6.176  0.00  0.00    -0.050 A 
ATOM     16  C   UNL     1      -7.241  -5.819   6.770  0.00  0.00    +0.004 A 
ATOM     17  C   UNL     1      -5.977  -6.010   6.254  0.00  0.00    +0.008 A 
ATOM     18  C   UNL     1      -9.488  -4.718   6.744  0.00  0.00    +0.044 C 
ENDBRANCH   7  12
BRANCH  11  19
ATOM     19  C   UNL     1      -1.020   0.177   1.114  0.00  0.00    -0.035 A 
ATOM     20  C   UNL     1      -2.043  -0.179   0.257  0.00  0.00    +0.005 A 
ATOM     21  C   UNL     1      -2.046   0.282  -1.046  0.00  0.00    +0.003 A 
ATOM     22  C   UNL     1      -1.024   1.101  -1.492  0.00  0.00    -0.050 A 
ATOM     23  C   UNL     1      -0.001   1.457  -0.634  0.00  0.00    +0.003 A 
ATOM     24  C   UNL     1      -0.001   0.999   0.671  0.00  0.00    +0.005 A 
ATOM     25  C   UNL     1      -1.026   1.603  -2.912  0.00  0.00    +0.044 C 
ENDBRANCH  11  19
BRANCH   1  27
ATOM     26  N   UNL     1       1.267  -2.906   2.653  0.00  0.00    -0.298 N 
ATOM     27  C   UNL     1       0.262  -2.425   1.895  0.00  0.00    +0.246 C 
ATOM     28  O   UNL     1       0.324  -2.504   0.680  0.00  0.00    -0.270 OA
BRANCH  26  29
ATOM     29  C   UNL     1       1.240  -2.724   4.106  0.00  0.00    +0.108 C 
BRANCH  29  31
ATOM     30  C   UNL     1       1.955  -1.241   5.986  0.00  0.00    +0.005 C 
ATOM     31  C   UNL     1       1.869  -1.377   4.464  0.00  0.00    +0.016 C 
ENDBRANCH  29  31
ENDBRANCH  26  29
BRANCH  26  32
ATOM     32  C   UNL     1       2.387  -3.611   2.024  0.00  0.00    +0.108 C 
BRANCH  32  33
ATOM     33  C   UNL     1       2.071  -5.106   1.947  0.00  0.00    +0.016 C 
ATOM     34  C   UNL     1       3.240  -5.841   1.290  0.00  0.00    +0.005 C 
ENDBRANCH  32  33
ENDBRANCH  26  32
ENDBRANCH   1  27
BRANCH   9  35
ATOM     35  N   UNL     1      -4.261  -0.224   4.369  0.00  0.00    -0.343 N 
ATOM     36  H   UNL     1      -4.654  -0.715   5.108  0.00  0.00    +0.144 HD
ATOM     37  H   UNL     1      -4.663   0.606   4.069  0.00  0.00    +0.144 HD
ENDBRANCH   9  35
BRANCH  10  38
ATOM     38  C   UNL     1      -2.528   1.593   3.303  0.00  0.00    +0.099 C 
ATOM     39  N   UNL     1      -2.734   2.708   3.370  0.00  0.00    -0.191 NA
ENDBRANCH  10  38
TORSDOF 9
