REMARK  Name = ZINC54477965
REMARK  8 active torsions:
REMARK  status: ('A' for Active; 'I' for Inactive)
REMARK    1  A    between atoms: C_1  and  C_2
REMARK    2  A    between atoms: C_2  and  C_3
REMARK    3  A    between atoms: N_15  and  C_16
REMARK    4  A    between atoms: C_19  and  C_22
REMARK    5  A    between atoms: N_24  and  C_25
REMARK    6  A    between atoms: C_25  and  C_27
REMARK    7  A    between atoms: C_25  and  C_28
REMARK    8  A    between atoms: C_28  and  C_29
REMARK                            x       y       z     vdW  Elec       q    Type
REMARK                         _______ _______ _______ _____ _____    ______ ____
ROOT
ATOM      1  C   UNL     1       2.961  -0.868   0.325  0.00  0.00    +0.108 C 
ATOM      2  C   UNL     1       2.683  -1.073  -1.163  0.00  0.00    -0.017 A 
ATOM      3  C   UNL     1       3.470  -1.880  -1.983  0.00  0.00    +0.013 A 
ATOM      4  C   UNL     1       3.162  -2.019  -3.292  0.00  0.00    +0.046 A 
ATOM      5  S   UNL     1       1.707  -0.993  -3.439  0.00  0.00    -0.101 S 
ATOM      6  C   UNL     1       1.623  -0.455  -1.751  0.00  0.00    -0.004 A 
ATOM      7  C   UNL     1       0.629   0.463  -1.118  0.00  0.00    +0.062 C 
ATOM      8  C   UNL     1       0.720   0.312   0.408  0.00  0.00    +0.115 C 
ATOM      9  N   UNL     1       2.142   0.262   0.784  0.00  0.00    -0.278 N 
ATOM     10  C   UNL     1       2.686   1.239   1.538  0.00  0.00    +0.307 C 
ATOM     11  O   UNL     1       2.027   2.218   1.831  0.00  0.00    -0.252 OA
ATOM     12  N   UNL     1       3.959   1.130   1.966  0.00  0.00    -0.269 N 
ATOM     13  H   UNL     1       4.517   0.403   1.649  0.00  0.00    +0.156 HD
ENDROOT
BRANCH  12  14
ATOM     14  C   UNL     1       4.474   2.063   2.864  0.00  0.00    +0.035 A 
ATOM     15  C   UNL     1       3.648   2.623   3.833  0.00  0.00    +0.024 A 
ATOM     16  C   UNL     1       4.154   3.545   4.722  0.00  0.00    +0.015 A 
ATOM     17  C   UNL     1       5.499   3.918   4.650  0.00  0.00    +0.037 A 
ATOM     18  C   UNL     1       6.326   3.353   3.676  0.00  0.00    +0.015 A 
ATOM     19  C   UNL     1       5.815   2.428   2.793  0.00  0.00    +0.024 A 
BRANCH  17  20
ATOM     20  C   UNL     1       6.045   4.906   5.601  0.00  0.00    +0.244 C 
ATOM     21  O   UNL     1       5.324   5.397   6.448  0.00  0.00    -0.270 OA
ATOM     22  N   UNL     1       7.342   5.264   5.530  0.00  0.00    -0.309 N 
ATOM     23  H   UNL     1       7.917   4.872   4.854  0.00  0.00    +0.149 HD
BRANCH  22  24
ATOM     24  C   UNL     1       7.884   6.245   6.474  0.00  0.00    +0.070 C 
ATOM     25  C   UNL     1       8.302   5.535   7.763  0.00  0.00    +0.028 C 
BRANCH  24  26
ATOM     26  C   UNL     1       9.101   6.932   5.853  0.00  0.00    +0.018 C 
ATOM     27  C   UNL     1       8.661   7.744   4.633  0.00  0.00    +0.005 C 
ENDBRANCH  24  26
ENDBRANCH  22  24
ENDBRANCH  17  20
ENDBRANCH  12  14
BRANCH   1  29
ATOM     28  C   UNL     1       2.963  -1.955   2.574  0.00  0.00    +0.006 C 
ATOM     29  C   UNL     1       2.584  -2.130   1.102  0.00  0.00    +0.024 C 
ENDBRANCH   1  29
TORSDOF 5
