REMARK  Name = ZINC22909639
REMARK  9 active torsions:
REMARK  status: ('A' for Active; 'I' for Inactive)
REMARK    1  A    between atoms: C_1  and  C_2
REMARK    2  A    between atoms: C_7  and  N_8
REMARK    3  A    between atoms: C_9  and  C_11
REMARK    4  A    between atoms: C_11  and  N_12
REMARK    5  A    between atoms: N_12  and  C_13
REMARK    6  A    between atoms: C_16  and  S_19
REMARK    7  A    between atoms: S_19  and  N_22
REMARK    8  A    between atoms: C_24  and  C_31
REMARK    9  A    between atoms: C_27  and  C_30
REMARK                            x       y       z     vdW  Elec       q    Type
REMARK                         _______ _______ _______ _____ _____    ______ ____
ROOT
ATOM      1  C   UNL     1      -1.754   2.920   3.998  0.00  0.00    +0.028 A 
ATOM      2  C   UNL     1      -0.385   2.732   3.862  0.00  0.00    +0.025 A 
ATOM      3  C   UNL     1       0.138   2.328   2.650  0.00  0.00    +0.030 A 
ATOM      4  C   UNL     1      -0.700   2.110   1.571  0.00  0.00    +0.106 A 
ATOM      5  C   UNL     1      -2.063   2.301   1.702  0.00  0.00    +0.030 A 
ATOM      6  C   UNL     1      -2.593   2.700   2.913  0.00  0.00    +0.025 A 
ENDROOT
BRANCH   4   7
ATOM      7  S   UNL     1      -0.028   1.594   0.026  0.00  0.00    +0.061 S 
ATOM      8  O   UNL     1       1.328   2.018   0.011  0.00  0.00    -0.153 OA
ATOM      9  O   UNL     1      -0.960   1.985  -0.972  0.00  0.00    -0.153 OA
BRANCH   7  10
ATOM     10  N   UNL     1      -0.006  -0.062   0.030  0.00  0.00    -0.172 NA
ATOM     11  C   UNL     1      -1.155  -0.836  -0.466  0.00  0.00    +0.140 C 
ATOM     12  C   UNL     1      -0.641  -1.873  -1.471  0.00  0.00    +0.131 C 
ATOM     13  O   UNL     1       0.419  -2.623  -0.874  0.00  0.00    -0.371 OA
ATOM     14  C   UNL     1       1.564  -1.841  -0.524  0.00  0.00    +0.131 C 
ATOM     15  C   UNL     1       1.165  -0.803   0.525  0.00  0.00    +0.140 C 
ATOM     16  C   UNL     1       2.652  -2.754   0.045  0.00  0.00    +0.039 C 
ATOM     17  C   UNL     1      -1.781  -2.817  -1.859  0.00  0.00    +0.039 C 
ENDBRANCH   7  10
ENDBRANCH   4   7
BRANCH   1  18
ATOM     18  N   UNL     1      -2.286   3.329   5.223  0.00  0.00    -0.335 N 
ATOM     19  H   UNL     1      -1.621   3.503   6.081  0.00  0.00    +0.147 HD
BRANCH  18  20
ATOM     20  C   UNL     1      -3.731   3.527   5.364  0.00  0.00    +0.198 C 
BRANCH  20  22
ATOM     21  N   UNL     1      -5.317   4.208   7.136  0.00  0.00    -0.284 N 
ATOM     22  C   UNL     1      -4.043   3.965   6.772  0.00  0.00    +0.234 C 
ATOM     23  O   UNL     1      -3.146   4.099   7.578  0.00  0.00    -0.274 OA
ATOM     24  H   UNL     1      -6.120   4.175   6.384  0.00  0.00    +0.155 HD
BRANCH  21  31
ATOM     25  C   UNL     1      -7.663   5.724   7.678  0.00  0.00    +0.046 C 
ATOM     26  C   UNL     1      -6.756   5.239   8.779  0.00  0.00    -0.028 A 
ATOM     27  C   UNL     1      -7.056   5.523  10.098  0.00  0.00    +0.020 A 
ATOM     28  C   UNL     1      -6.220   5.084  11.108  0.00  0.00    +0.018 A 
ATOM     29  C   UNL     1      -5.085   4.353  10.803  0.00  0.00    +0.017 A 
ATOM     30  C   UNL     1      -4.784   4.061   9.487  0.00  0.00    +0.024 A 
ATOM     31  C   UNL     1      -5.621   4.502   8.470  0.00  0.00    +0.036 A 
ATOM     32 BR   UNL     1      -6.629   5.481  12.911  0.00  0.00    -0.050 Br
ENDBRANCH  21  31
ENDBRANCH  20  22
ENDBRANCH  18  20
ENDBRANCH   1  18
TORSDOF 6
