REMARK  Name = ZINC33033401
REMARK  12 active torsions:
REMARK  status: ('A' for Active; 'I' for Inactive)
REMARK    1  A    between atoms: C_1  and  C_2
REMARK    2  A    between atoms: C_2  and  C_3
REMARK    3  A    between atoms: C_2  and  C_4
REMARK    4  A    between atoms: C_7  and  S_10
REMARK    5  A    between atoms: S_10  and  N_13
REMARK    6  A    between atoms: N_13  and  C_14
REMARK    7  A    between atoms: C_16  and  C_26
REMARK    8  A    between atoms: C_19  and  N_20
REMARK    9  A    between atoms: N_28  and  C_29
REMARK   10  A    between atoms: N_28  and  C_30
REMARK   11  A    between atoms: C_30  and  C_31
REMARK   12  A    between atoms: N_33  and  C_34
REMARK                            x       y       z     vdW  Elec       q    Type
REMARK                         _______ _______ _______ _____ _____    ______ ____
ROOT
ATOM      1  C   UNL     1      -4.242   2.456  -0.001  0.00  0.00    +0.070 A 
ATOM      2  C   UNL     1      -3.048   1.766   0.094  0.00  0.00    +0.039 A 
ATOM      3  C   UNL     1      -1.843   2.419  -0.185  0.00  0.00    +0.039 A 
ATOM      4  C   UNL     1      -1.850   3.767  -0.554  0.00  0.00    +0.015 A 
ATOM      5  C   UNL     1      -3.043   4.449  -0.652  0.00  0.00    +0.026 A 
ATOM      6  C   UNL     1      -4.242   3.803  -0.375  0.00  0.00    +0.052 A 
ENDROOT
BRANCH   6   7
ATOM      7  N   UNL     1      -5.446   4.498  -0.470  0.00  0.00    -0.332 N 
ATOM      8  C   UNL     1      -5.209   5.934  -0.677  0.00  0.00    +0.086 C 
ATOM      9  C   UNL     1      -6.550   6.671  -0.697  0.00  0.00    -0.063 C 
ATOM     10  N   UNL     1      -7.394   6.119  -1.766  0.00  0.00    +0.381 N 
ATOM     11  C   UNL     1      -7.630   4.684  -1.559  0.00  0.00    -0.063 C 
ATOM     12  C   UNL     1      -6.289   3.946  -1.539  0.00  0.00    +0.086 C 
ATOM     13  H   UNL     1      -8.363   6.640  -1.774  0.00  0.00    -0.086 HD
ATOM     14  H   UNL     1      -6.895   6.260  -2.736  0.00  0.00    -0.086 HD
ENDBRANCH   6   7
BRANCH   3  15
ATOM     15  C   UNL     1      -0.566   1.687  -0.086  0.00  0.00    +0.247 C 
ATOM     16  O   UNL     1      -0.478   0.714   0.639  0.00  0.00    -0.270 OA
ATOM     17  N   UNL     1       0.501   2.093  -0.802  0.00  0.00    -0.292 N 
ATOM     18  C   UNL     1       0.366   3.197  -1.755  0.00  0.00    +0.133 C 
BRANCH  17  19
ATOM     19  C   UNL     1       1.796   1.431  -0.626  0.00  0.00    +0.203 C 
BRANCH  19  20
ATOM     20  C   UNL     1       1.905   0.278  -1.590  0.00  0.00    +0.230 C 
ATOM     21  O   UNL     1       0.991   0.033  -2.349  0.00  0.00    -0.274 OA
ATOM     22  N   UNL     1       3.018  -0.482  -1.609  0.00  0.00    -0.317 N 
ATOM     23  C   UNL     1       3.124  -1.603  -2.547  0.00  0.00    +0.128 C 
ATOM     24  H   UNL     1       3.846  -0.261  -0.921  0.00  0.00    +0.148 HD
ENDBRANCH  19  20
ENDBRANCH  17  19
ENDBRANCH   3  15
BRANCH   1  25
ATOM     25  N   UNL     1      -5.450   1.806   0.278  0.00  0.00    -0.214 N 
ATOM     26  H   UNL     1      -6.067   1.414  -0.545  0.00  0.00    +0.174 HD
BRANCH  25  27
ATOM     27  S   UNL     1      -5.952   1.627   1.846  0.00  0.00    +0.072 S 
ATOM     28  O   UNL     1      -7.208   0.964   1.798  0.00  0.00    -0.150 OA
ATOM     29  O   UNL     1      -4.845   1.111   2.571  0.00  0.00    -0.150 OA
BRANCH  27  33
ATOM     30  C   UNL     1      -6.744   5.775   3.479  0.00  0.00    -0.045 A 
ATOM     31  C   UNL     1      -7.759   5.071   2.858  0.00  0.00    +0.006 A 
ATOM     32  C   UNL     1      -7.517   3.804   2.359  0.00  0.00    +0.029 A 
ATOM     33  C   UNL     1      -6.261   3.242   2.481  0.00  0.00    +0.109 A 
ATOM     34  C   UNL     1      -5.247   3.943   3.107  0.00  0.00    +0.029 A 
ATOM     35  C   UNL     1      -5.488   5.212   3.602  0.00  0.00    +0.006 A 
BRANCH  30  37
ATOM     36  C   UNL     1      -6.742   7.171   5.528  0.00  0.00    +0.012 C 
ATOM     37  C   UNL     1      -7.007   7.156   4.021  0.00  0.00    +0.013 C 
ATOM     38  C   UNL     1      -6.083   8.160   3.330  0.00  0.00    +0.012 C 
ENDBRANCH  30  37
ENDBRANCH  27  33
ENDBRANCH  25  27
ENDBRANCH   1  25
TORSDOF 8
