REMARK  Name = ZINC36050468
REMARK  11 active torsions:
REMARK  status: ('A' for Active; 'I' for Inactive)
REMARK    1  A    between atoms: C_1  and  C_2
REMARK    2  A    between atoms: C_3  and  C_30
REMARK    3  A    between atoms: C_4  and  C_23
REMARK    4  A    between atoms: C_7  and  C_12
REMARK    5  A    between atoms: C_13  and  N_15
REMARK    6  A    between atoms: N_15  and  C_16
REMARK    7  A    between atoms: C_16  and  C_17
REMARK    8  A    between atoms: C_30  and  O_32
REMARK    9  A    between atoms: O_32  and  C_33
REMARK   10  A    between atoms: C_33  and  C_34
REMARK   11  A    between atoms: C_33  and  C_35
REMARK                            x       y       z     vdW  Elec       q    Type
REMARK                         _______ _______ _______ _____ _____    ______ ____
ROOT
ATOM      1  C   UNL     1       0.070   1.819   0.013  0.00  0.00    +0.066 C 
ATOM      2  C   UNL     1       0.071   0.312   0.025  0.00  0.00    +0.053 C 
ATOM      3  C   UNL     1      -1.127  -0.374   0.076  0.00  0.00    +0.083 C 
ATOM      4  C   UNL     1      -1.073  -1.886   0.086  0.00  0.00    +0.151 C 
ATOM      5  N   UNL     1       0.273  -2.515   0.040  0.00  0.00    -0.267 N 
ATOM      6  C   UNL     1       0.559  -3.866   0.039  0.00  0.00    +0.048 C 
ATOM      7  C   UNL     1       1.859  -4.231  -0.008  0.00  0.00    +0.072 C 
ATOM      8  S   UNL     1       2.685  -2.653  -0.051  0.00  0.00    -0.060 S 
ATOM      9  C   UNL     1       1.335  -1.656  -0.007  0.00  0.00    +0.166 C 
ATOM     10  N   UNL     1       1.219  -0.344  -0.018  0.00  0.00    -0.230 NA
ENDROOT
BRANCH   4  11
ATOM     11  C   UNL     1      -1.767  -2.366   1.334  0.00  0.00    -0.004 A 
ATOM     12  C   UNL     1      -3.015  -2.955   1.249  0.00  0.00    +0.007 A 
ATOM     13  C   UNL     1      -3.651  -3.396   2.394  0.00  0.00    +0.000 A 
ATOM     14  C   UNL     1      -3.040  -3.248   3.625  0.00  0.00    +0.001 A 
ATOM     15  C   UNL     1      -1.793  -2.660   3.712  0.00  0.00    +0.020 A 
ATOM     16  C   UNL     1      -1.153  -2.224   2.565  0.00  0.00    +0.046 A 
ATOM     17 CL   UNL     1       0.417  -1.490   2.673  0.00  0.00    -0.083 Cl
ENDBRANCH   4  11
BRANCH   6  18
ATOM     18  C   UNL     1      -0.512  -4.871   0.088  0.00  0.00    +0.091 C 
ATOM     19  C   UNL     1      -0.206  -6.176   0.219  0.00  0.00    +0.239 C 
ATOM     20  O   UNL     1       1.089  -6.574   0.195  0.00  0.00    -0.271 OA
BRANCH  19  21
ATOM     21  N   UNL     1      -1.215  -7.111   0.377  0.00  0.00    -0.308 N 
ATOM     22  H   UNL     1      -2.142  -6.827   0.394  0.00  0.00    +0.149 HD
BRANCH  21  23
ATOM     23  C   UNL     1      -0.882  -8.531   0.520  0.00  0.00    +0.139 C 
BRANCH  23  24
ATOM     24  C   UNL     1      -2.149  -9.331   0.676  0.00  0.00    -0.030 A 
ATOM     25  C   UNL     1      -2.671  -9.559   1.936  0.00  0.00    +0.005 A 
ATOM     26  C   UNL     1      -3.833 -10.293   2.080  0.00  0.00    +0.000 A 
ATOM     27  C   UNL     1      -4.474 -10.798   0.964  0.00  0.00    +0.000 A 
ATOM     28  C   UNL     1      -3.953 -10.569  -0.295  0.00  0.00    +0.000 A 
ATOM     29  C   UNL     1      -2.793  -9.832  -0.440  0.00  0.00    +0.005 A 
ENDBRANCH  23  24
ENDBRANCH  21  23
ENDBRANCH  19  21
ENDBRANCH   6  18
BRANCH   3  30
ATOM     30  C   UNL     1      -2.350   0.306   0.117  0.00  0.00    +0.339 C 
ATOM     31  O   UNL     1      -2.368   1.521   0.215  0.00  0.00    -0.245 OA
BRANCH  30  32
ATOM     32  O   UNL     1      -3.510  -0.384   0.048  0.00  0.00    -0.459 OA
BRANCH  32  33
ATOM     33  C   UNL     1      -4.720   0.375   0.096  0.00  0.00    +0.171 C 
ATOM     34  C   UNL     1      -5.136   0.763  -1.325  0.00  0.00    +0.052 C 
ATOM     35  C   UNL     1      -5.824  -0.466   0.739  0.00  0.00    +0.052 C 
ENDBRANCH  32  33
ENDBRANCH  30  32
ENDBRANCH   3  30
TORSDOF 8
