REMARK  Name = ZINC39927308
REMARK  5 active torsions:
REMARK  status: ('A' for Active; 'I' for Inactive)
REMARK    1  A    between atoms: C_9  and  C_11
REMARK    2  A    between atoms: C_11  and  S_12
REMARK    3  A    between atoms: S_12  and  C_13
REMARK    4  A    between atoms: C_16  and  C_19
REMARK    5  A    between atoms: N_17  and  N_18
REMARK                            x       y       z     vdW  Elec       q    Type
REMARK                         _______ _______ _______ _____ _____    ______ ____
ROOT
ATOM      1  C   UNL     1       5.368  -5.406  -1.418  0.00  0.00    +0.270 C 
ATOM      2  N   UNL     1       6.354  -5.682  -0.365  0.00  0.00    -0.183 NA
ATOM      3  N   UNL     1       6.131  -6.766   0.182  0.00  0.00    -0.288 N 
ATOM      4  C   UNL     1       4.955  -7.424  -0.401  0.00  0.00    +0.217 C 
ATOM      5  N   UNL     1       4.254  -6.351  -1.151  0.00  0.00    -0.184 NA
ATOM      6  H   UNL     1       6.665  -7.136   0.902  0.00  0.00    +0.184 HD
ENDROOT
BRANCH   4   7
ATOM      7  C   UNL     1       5.379  -8.527  -1.336  0.00  0.00    +0.010 A 
ATOM      8  C   UNL     1       6.628  -9.106  -1.201  0.00  0.00    +0.010 A 
ATOM      9  C   UNL     1       7.017 -10.117  -2.058  0.00  0.00    +0.020 A 
ATOM     10  C   UNL     1       6.158 -10.552  -3.051  0.00  0.00    +0.042 A 
ATOM     11  C   UNL     1       4.909  -9.974  -3.187  0.00  0.00    +0.040 A 
ATOM     12  C   UNL     1       4.517  -8.965  -2.325  0.00  0.00    +0.049 A 
ATOM     13 CL   UNL     1       2.947  -8.243  -2.491  0.00  0.00    -0.083 Cl
ATOM     14 CL   UNL     1       6.649 -11.823  -4.128  0.00  0.00    -0.083 Cl
ENDBRANCH   4   7
BRANCH   5  15
ATOM     15  N   UNL     1       3.227  -5.728  -0.333  0.00  0.00    -0.263 NA
ATOM     16  H   UNL     1       2.768  -4.982  -0.834  0.00  0.00    +0.137 HD
ATOM     17  H   UNL     1       2.558  -6.412  -0.010  0.00  0.00    +0.137 HD
ENDBRANCH   5  15
BRANCH   1  18
ATOM     18  S   UNL     1       4.783  -3.693  -1.303  0.00  0.00    -0.108 S 
BRANCH  18  19
ATOM     19  C   UNL     1       6.102  -2.725  -2.088  0.00  0.00    +0.146 C 
BRANCH  19  28
ATOM     20  C   UNL     1       4.779   3.140  -1.700  0.00  0.00    +0.002 A 
ATOM     21  C   UNL     1       4.199   2.904  -2.938  0.00  0.00    +0.002 A 
ATOM     22  C   UNL     1       4.232   1.658  -3.497  0.00  0.00    +0.030 A 
ATOM     23  C   UNL     1       4.856   0.607  -2.819  0.00  0.00    +0.089 A 
ATOM     24  C   UNL     1       5.445   0.846  -1.566  0.00  0.00    +0.066 A 
ATOM     25  C   UNL     1       5.401   2.119  -1.013  0.00  0.00    +0.028 A 
ATOM     26  N   UNL     1       5.972  -0.362  -1.156  0.00  0.00    -0.341 N 
ATOM     27  H   UNL     1       6.446  -0.531  -0.326  0.00  0.00    +0.167 HD
ATOM     28  C   UNL     1       5.702  -1.273  -2.130  0.00  0.00    +0.118 A 
ATOM     29  N   UNL     1       5.050  -0.707  -3.103  0.00  0.00    -0.232 NA
ENDBRANCH  19  28
ENDBRANCH  18  19
ENDBRANCH   1  18
TORSDOF 5
