REMARK  Name = ZINC21226940
REMARK  7 active torsions:
REMARK  status: ('A' for Active; 'I' for Inactive)
REMARK    1  A    between atoms: C_1  and  C_2
REMARK    2  A    between atoms: C_2  and  O_3
REMARK    3  A    between atoms: O_3  and  C_4
REMARK    4  A    between atoms: C_7  and  C_12
REMARK    5  A    between atoms: C_9  and  O_10
REMARK    6  A    between atoms: O_10  and  C_11
REMARK    7  A    between atoms: C_17  and  C_27
REMARK                            x       y       z     vdW  Elec       q    Type
REMARK                         _______ _______ _______ _____ _____    ______ ____
ROOT
ATOM      1  C   UNL     1       0.826  -0.513   0.494  0.00  0.00    +0.032 C 
ATOM      2  C   UNL     1       2.074   0.013  -0.211  0.00  0.00    +0.059 C 
ATOM      3  C   UNL     1       2.137   1.527  -0.097  0.00  0.00    +0.017 C 
ATOM      4  C   UNL     1       1.008   2.253  -0.054  0.00  0.00    +0.036 C 
ATOM      5  C   UNL     1       0.924   3.756   0.064  0.00  0.00    +0.137 C 
ATOM      6  N   UNL     1       2.184   4.441  -0.130  0.00  0.00    -0.331 N 
ATOM      7  C   UNL     1       3.243   4.257   0.755  0.00  0.00    +0.049 A 
ATOM      8  C   UNL     1       3.688   5.287   1.571  0.00  0.00    +0.025 A 
ATOM      9  C   UNL     1       4.690   5.040   2.493  0.00  0.00    +0.002 A 
ATOM     10  C   UNL     1       5.247   3.779   2.602  0.00  0.00    +0.002 A 
ATOM     11  C   UNL     1       4.822   2.755   1.773  0.00  0.00    +0.025 A 
ATOM     12  C   UNL     1       3.834   3.006   0.838  0.00  0.00    +0.052 A 
ATOM     13  N   UNL     1       3.394   2.038  -0.060  0.00  0.00    -0.316 N 
ATOM     14  C   UNL     1      -0.254   1.615  -0.110  0.00  0.00    +0.163 C 
ATOM     15  O   UNL     1      -1.258   2.300  -0.103  0.00  0.00    -0.292 OA
ATOM     16  C   UNL     1      -0.395   0.124  -0.181  0.00  0.00    +0.088 C 
ATOM     17  H   UNL     1       2.316   5.120  -0.986  0.00  0.00    +0.147 HD
ATOM     18  H   UNL     1       4.152   1.688  -0.778  0.00  0.00    +0.152 HD
ENDROOT
BRANCH   5  19
ATOM     19  C   UNL     1       0.401   4.096   1.435  0.00  0.00    -0.004 A 
ATOM     20  C   UNL     1       0.509   3.179   2.464  0.00  0.00    +0.008 A 
ATOM     21  C   UNL     1       0.034   3.493   3.723  0.00  0.00    +0.020 A 
ATOM     22  C   UNL     1      -0.561   4.721   3.952  0.00  0.00    +0.042 A 
ATOM     23  C   UNL     1      -0.674   5.637   2.923  0.00  0.00    +0.040 A 
ATOM     24  C   UNL     1      -0.193   5.325   1.663  0.00  0.00    +0.048 A 
ATOM     25 CL   UNL     1      -0.335   6.474   0.370  0.00  0.00    -0.083 Cl
ATOM     26 CL   UNL     1      -1.164   5.112   5.532  0.00  0.00    -0.083 Cl
ENDBRANCH   5  19
BRANCH   1  30
ATOM     27  C   UNL     1       0.632  -4.769   0.119  0.00  0.00    +0.162 A 
ATOM     28  C   UNL     1       0.670  -3.971  -1.013  0.00  0.00    +0.050 A 
ATOM     29  C   UNL     1       0.732  -2.596  -0.889  0.00  0.00    +0.008 A 
ATOM     30  C   UNL     1       0.757  -2.013   0.364  0.00  0.00    -0.040 A 
ATOM     31  C   UNL     1       0.725  -2.802   1.499  0.00  0.00    +0.053 A 
ATOM     32  C   UNL     1       0.656  -4.181   1.381  0.00  0.00    +0.162 A 
BRANCH  32  33
ATOM     33  O   UNL     1       0.619  -4.960   2.495  0.00  0.00    -0.491 OA
ATOM     34  C   UNL     1       0.648  -4.288   3.757  0.00  0.00    +0.277 C 
ENDBRANCH  32  33
BRANCH  27  35
ATOM     35  O   UNL     1       0.572  -6.122  -0.001  0.00  0.00    -0.489 OA
BRANCH  35  37
ATOM     36  C   UNL     1       0.481  -8.181  -1.262  0.00  0.00    +0.048 C 
ATOM     37  C   UNL     1       0.550  -6.654  -1.327  0.00  0.00    +0.226 C 
ENDBRANCH  35  37
ENDBRANCH  27  35
ENDBRANCH   1  30
TORSDOF 5
