REMARK  Name = ZINC35245207
REMARK  11 active torsions:
REMARK  status: ('A' for Active; 'I' for Inactive)
REMARK    1  A    between atoms: C_1  and  C_2
REMARK    2  A    between atoms: C_7  and  C_8
REMARK    3  A    between atoms: C_8  and  N_9
REMARK    4  A    between atoms: N_9  and  C_10
REMARK    5  A    between atoms: N_9  and  C_17
REMARK    6  A    between atoms: C_10  and  C_11
REMARK    7  A    between atoms: C_17  and  C_18
REMARK    8  A    between atoms: C_21  and  C_23
REMARK    9  A    between atoms: N_28  and  C_31
REMARK   10  A    between atoms: C_31  and  C_32
REMARK   11  A    between atoms: C_33  and  C_34
REMARK                            x       y       z     vdW  Elec       q    Type
REMARK                         _______ _______ _______ _____ _____    ______ ____
ROOT
ATOM      1  C   UNL     1      -2.096  -1.490   1.646  0.00  0.00    +0.090 A 
ATOM      2  C   UNL     1      -1.144  -2.402   1.351  0.00  0.00    +0.043 A 
ATOM      3  C   UNL     1      -1.413  -2.876   0.058  0.00  0.00    +0.055 A 
ATOM      4  C   UNL     1      -2.530  -2.221  -0.376  0.00  0.00    +0.190 A 
ATOM      5  O   UNL     1      -2.933  -1.387   0.605  0.00  0.00    -0.457 OA
ENDROOT
BRANCH   4   6
ATOM      6  C   UNL     1      -3.181  -2.397  -1.679  0.00  0.00    +0.282 C 
ATOM      7  O   UNL     1      -2.803  -3.273  -2.434  0.00  0.00    -0.267 OA
ATOM      8  N   UNL     1      -4.197  -1.589  -2.039  0.00  0.00    -0.293 N 
ATOM      9  C   UNL     1      -4.950  -1.829  -3.279  0.00  0.00    +0.123 C 
ATOM     10  C   UNL     1      -6.446  -1.842  -2.946  0.00  0.00    +0.103 C 
ATOM     11  N   UNL     1      -6.797  -0.605  -2.237  0.00  0.00    -0.296 NA
ATOM     12  C   UNL     1      -6.093  -0.510  -0.951  0.00  0.00    +0.103 C 
ATOM     13  C   UNL     1      -4.587  -0.446  -1.199  0.00  0.00    +0.123 C 
BRANCH  11  14
ATOM     14  C   UNL     1      -8.250  -0.498  -2.051  0.00  0.00    +0.111 C 
BRANCH  14  15
ATOM     15  C   UNL     1      -8.593   0.880  -1.547  0.00  0.00    -0.011 C 
ATOM     16  C   UNL     1      -9.473   1.625  -2.201  0.00  0.00    +0.005 C 
BRANCH  16  17
ATOM     17  C   UNL     1      -9.809   2.977  -1.707  0.00  0.00    -0.025 A 
ATOM     18  C   UNL     1      -9.197   3.474  -0.555  0.00  0.00    +0.008 A 
ATOM     19  C   UNL     1      -9.515   4.737  -0.100  0.00  0.00    +0.001 A 
ATOM     20  C   UNL     1     -10.438   5.510  -0.781  0.00  0.00    +0.000 A 
ATOM     21  C   UNL     1     -11.049   5.022  -1.923  0.00  0.00    +0.001 A 
ATOM     22  C   UNL     1     -10.734   3.764  -2.393  0.00  0.00    +0.008 A 
ENDBRANCH  16  17
ENDBRANCH  14  15
ENDBRANCH  11  14
ENDBRANCH   4   6
BRANCH   1  23
ATOM     23  C   UNL     1      -2.204  -0.719   2.937  0.00  0.00    -0.002 C 
BRANCH  23  24
ATOM     24  N   UNL     1      -1.353   0.476   2.866  0.00  0.00    +0.390 N 
ATOM     25  H   UNL     1      -0.411   0.204   2.627  0.00  0.00    -0.080 HD
BRANCH  24  26
ATOM     26  C   UNL     1      -1.351   1.154   4.169  0.00  0.00    -0.042 C 
BRANCH  26  33
ATOM     27  C   UNL     1       1.526   0.895   4.221  0.00  0.00    +0.044 C 
ATOM     28  C   UNL     1       0.684   0.145   5.220  0.00  0.00    -0.049 A 
ATOM     29  C   UNL     1       1.289  -0.663   6.165  0.00  0.00    +0.003 A 
ATOM     30  C   UNL     1       0.517  -1.351   7.082  0.00  0.00    +0.000 A 
ATOM     31  C   UNL     1      -0.860  -1.232   7.054  0.00  0.00    +0.000 A 
ATOM     32  C   UNL     1      -1.465  -0.423   6.110  0.00  0.00    +0.002 A 
ATOM     33  C   UNL     1      -0.692   0.269   5.196  0.00  0.00    -0.061 A 
ENDBRANCH  26  33
ENDBRANCH  24  26
BRANCH  24  34
ATOM     34  C   UNL     1      -1.874   1.388   1.840  0.00  0.00    -0.042 C 
BRANCH  34  35
ATOM     35  C   UNL     1      -0.934   2.555   1.681  0.00  0.00    -0.064 A 
ATOM     36  C   UNL     1      -1.103   3.689   2.453  0.00  0.00    +0.002 A 
ATOM     37  C   UNL     1      -0.241   4.760   2.308  0.00  0.00    +0.000 A 
ATOM     38  C   UNL     1       0.791   4.696   1.390  0.00  0.00    +0.000 A 
ATOM     39  C   UNL     1       0.961   3.562   0.618  0.00  0.00    +0.000 A 
ATOM     40  C   UNL     1       0.101   2.490   0.767  0.00  0.00    +0.002 A 
ENDBRANCH  34  35
ENDBRANCH  24  34
ENDBRANCH  23  24
ENDBRANCH   1  23
TORSDOF 10
