REMARK  Name = ZINC36832806
REMARK  12 active torsions:
REMARK  status: ('A' for Active; 'I' for Inactive)
REMARK    1  A    between atoms: C_1  and  C_2
REMARK    2  A    between atoms: C_2  and  C_3
REMARK    3  A    between atoms: C_2  and  C_4
REMARK    4  A    between atoms: C_4  and  C_5
REMARK    5  A    between atoms: C_5  and  N_6
REMARK    6  A    between atoms: C_16  and  S_17
REMARK    7  A    between atoms: S_17  and  C_18
REMARK    8  A    between atoms: C_18  and  C_19
REMARK    9  A    between atoms: C_19  and  C_21
REMARK   10  A    between atoms: C_21  and  C_31
REMARK   11  A    between atoms: C_31  and  O_33
REMARK   12  A    between atoms: O_33  and  C_34
REMARK                            x       y       z     vdW  Elec       q    Type
REMARK                         _______ _______ _______ _____ _____    ______ ____
ROOT
ATOM      1  C   UNL     1      -3.901  -2.570  -4.069  0.00  0.00    +0.157 C 
ENDROOT
BRANCH   1   2
ATOM      2  C   UNL     1      -3.329  -2.221  -5.418  0.00  0.00    +0.183 C 
ATOM      3  O   UNL     1      -2.194  -1.795  -5.505  0.00  0.00    -0.291 OA
BRANCH   2   4
ATOM      4  C   UNL     1      -4.107  -2.390  -6.577  0.00  0.00    +0.138 C 
ATOM      5  C   UNL     1      -3.572  -2.064  -7.839  0.00  0.00    +0.110 C 
ATOM      6  N   UNL     1      -2.322  -1.588  -8.062  0.00  0.00    -0.301 N 
ATOM      7  C   UNL     1      -2.168  -1.389  -9.429  0.00  0.00    +0.054 A 
ATOM      8  C   UNL     1      -1.116  -0.927 -10.208  0.00  0.00    +0.025 A 
ATOM      9  C   UNL     1      -1.262  -0.837 -11.577  0.00  0.00    +0.002 A 
ATOM     10  C   UNL     1      -2.454  -1.207 -12.178  0.00  0.00    +0.002 A 
ATOM     11  C   UNL     1      -3.506  -1.668 -11.413  0.00  0.00    +0.025 A 
ATOM     12  C   UNL     1      -3.370  -1.762 -10.035  0.00  0.00    +0.054 A 
ATOM     13  N   UNL     1      -4.224  -2.183  -9.023  0.00  0.00    -0.301 N 
ATOM     14  H   UNL     1      -1.650  -1.415  -7.383  0.00  0.00    +0.153 HD
ATOM     15  H   UNL     1      -5.131  -2.505  -9.142  0.00  0.00    +0.153 HD
BRANCH   4  16
ATOM     16  C   UNL     1      -5.472  -2.902  -6.473  0.00  0.00    +0.345 C 
ATOM     17  O   UNL     1      -6.146  -3.048  -7.476  0.00  0.00    -0.245 OA
BRANCH  16  18
ATOM     18  O   UNL     1      -5.985  -3.214  -5.265  0.00  0.00    -0.464 OA
ATOM     19  C   UNL     1      -7.325  -3.710  -5.237  0.00  0.00    +0.280 C 
ENDBRANCH  16  18
ENDBRANCH   4  16
ENDBRANCH   2   4
ENDBRANCH   1   2
BRANCH   1  20
ATOM     20  S   UNL     1      -2.663  -2.245  -2.784  0.00  0.00    -0.080 S 
BRANCH  20  31
ATOM     21  N   UNL     1      -2.790  -2.565  -0.111  0.00  0.00    -0.287 N 
ATOM     22  C   UNL     1      -3.376  -2.894   1.064  0.00  0.00    +0.262 A 
ATOM     23  O   UNL     1      -2.782  -2.778   2.120  0.00  0.00    -0.267 OA
ATOM     24  C   UNL     1      -4.755  -3.397   1.016  0.00  0.00    +0.065 A 
ATOM     25  C   UNL     1      -5.447  -3.763   2.171  0.00  0.00    +0.015 A 
ATOM     26  C   UNL     1      -6.730  -4.225   2.070  0.00  0.00    +0.001 A 
ATOM     27  C   UNL     1      -7.350  -4.333   0.831  0.00  0.00    +0.002 A 
ATOM     28  C   UNL     1      -6.696  -3.981  -0.316  0.00  0.00    +0.028 A 
ATOM     29  C   UNL     1      -5.383  -3.506  -0.246  0.00  0.00    +0.079 A 
ATOM     30  N   UNL     1      -4.702  -3.147  -1.352  0.00  0.00    -0.223 NA
ATOM     31  C   UNL     1      -3.473  -2.696  -1.286  0.00  0.00    +0.173 A 
BRANCH  21  32
ATOM     32  C   UNL     1      -1.416  -2.058  -0.121  0.00  0.00    +0.127 C 
BRANCH  32  33
ATOM     33  C   UNL     1      -1.433  -0.534   0.013  0.00  0.00    +0.025 C 
BRANCH  33  35
ATOM     34  C   UNL     1      -0.019   1.526   0.010  0.00  0.00    +0.007 C 
ATOM     35  C   UNL     1       0.002  -0.004   0.002  0.00  0.00    -0.016 C 
ATOM     36  C   UNL     1       0.742  -0.511   1.242  0.00  0.00    +0.007 C 
ENDBRANCH  33  35
ENDBRANCH  32  33
ENDBRANCH  21  32
ENDBRANCH  20  31
ENDBRANCH   1  20
TORSDOF 9
