REMARK  Name = ZINC14283662
REMARK  7 active torsions:
REMARK  status: ('A' for Active; 'I' for Inactive)
REMARK    1  A    between atoms: C_1  and  C_2
REMARK    2  A    between atoms: C_2  and  C_4
REMARK    3  A    between atoms: C_2  and  O_27
REMARK    4  A    between atoms: N_6  and  N_7
REMARK    5  A    between atoms: C_8  and  C_10
REMARK    6  A    between atoms: N_13  and  C_15
REMARK    7  A    between atoms: O_27  and  C_28
REMARK                            x       y       z     vdW  Elec       q    Type
REMARK                         _______ _______ _______ _____ _____    ______ ____
ROOT
ATOM      1  N   UNL     1       0.034   0.931   0.522  0.00  0.00    -0.229 N 
ATOM      2  C   UNL     1      -1.152   1.570   0.570  0.00  0.00    +0.281 C 
ATOM      3  O   UNL     1      -1.201   2.774   0.408  0.00  0.00    -0.267 OA
ATOM      4  H   UNL     1       0.073  -0.029   0.651  0.00  0.00    +0.173 HD
ENDROOT
BRANCH   2   5
ATOM      5  C   UNL     1      -2.392   0.807   0.818  0.00  0.00    +0.152 A 
ATOM      6  C   UNL     1      -3.698   1.331   0.901  0.00  0.00    +0.006 A 
ATOM      7  C   UNL     1      -4.506   0.275   1.146  0.00  0.00    +0.049 A 
ATOM      8  N   UNL     1      -3.718  -0.826   1.200  0.00  0.00    -0.236 N 
ATOM      9  N   UNL     1      -2.489  -0.496   1.011  0.00  0.00    -0.161 NA
ATOM     10  C   UNL     1      -5.999   0.343   1.338  0.00  0.00    +0.056 C 
ATOM     11  C   UNL     1      -6.610   1.198   0.223  0.00  0.00    +0.006 C 
ATOM     12  C   UNL     1      -6.629   2.664   0.648  0.00  0.00    +0.001 C 
ATOM     13  C   UNL     1      -5.420   2.991   1.521  0.00  0.00    +0.005 C 
ATOM     14  C   UNL     1      -4.131   2.760   0.725  0.00  0.00    +0.039 C 
BRANCH   8  15
ATOM     15  C   UNL     1      -4.175  -2.132   1.429  0.00  0.00    +0.066 A 
ATOM     16  C   UNL     1      -5.241  -2.354   2.290  0.00  0.00    +0.030 A 
ATOM     17  C   UNL     1      -5.692  -3.641   2.511  0.00  0.00    +0.040 A 
ATOM     18  C   UNL     1      -5.075  -4.709   1.881  0.00  0.00    +0.124 A 
ATOM     19  C   UNL     1      -4.008  -4.489   1.025  0.00  0.00    +0.040 A 
ATOM     20  C   UNL     1      -3.558  -3.204   0.799  0.00  0.00    +0.030 A 
ATOM     21  F   UNL     1      -5.515  -5.968   2.102  0.00  0.00    -0.205 F 
ENDBRANCH   8  15
ENDBRANCH   2   5
BRANCH   1  24
ATOM     22  C   UNL     1       2.395   1.015   0.228  0.00  0.00    +0.270 C 
ATOM     23  O   UNL     1       2.444  -0.186   0.390  0.00  0.00    -0.270 OA
ATOM     24  N   UNL     1       1.210   1.654   0.281  0.00  0.00    -0.231 N 
ATOM     25  H   UNL     1       1.171   2.615   0.152  0.00  0.00    +0.173 HD
BRANCH  22  27
ATOM     26  C   UNL     1       3.918   2.750   1.134  0.00  0.00    +0.062 C 
ATOM     27  C   UNL     1       3.660   1.792  -0.031  0.00  0.00    +0.257 C 
BRANCH  27  28
ATOM     28  O   UNL     1       4.758   0.887  -0.156  0.00  0.00    -0.477 OA
BRANCH  28  29
ATOM     29  C   UNL     1       5.829   1.312  -0.878  0.00  0.00    +0.157 A 
ATOM     30  C   UNL     1       5.871   2.612  -1.359  0.00  0.00    +0.048 A 
ATOM     31  C   UNL     1       6.960   3.042  -2.092  0.00  0.00    +0.004 A 
ATOM     32  C   UNL     1       8.009   2.178  -2.347  0.00  0.00    +0.003 A 
ATOM     33  C   UNL     1       7.972   0.881  -1.869  0.00  0.00    +0.042 A 
ATOM     34  C   UNL     1       6.886   0.447  -1.131  0.00  0.00    +0.165 A 
ATOM     35  F   UNL     1       6.851  -0.819  -0.659  0.00  0.00    -0.202 F 
ENDBRANCH  28  29
ENDBRANCH  27  28
ENDBRANCH  22  27
ENDBRANCH   1  24
TORSDOF 6
