REMARK  Name = ZINC21249833
REMARK  7 active torsions:
REMARK  status: ('A' for Active; 'I' for Inactive)
REMARK    1  A    between atoms: C_1  and  C_2
REMARK    2  A    between atoms: C_2  and  O_3
REMARK    3  A    between atoms: O_3  and  C_4
REMARK    4  A    between atoms: C_6  and  C_14
REMARK    5  A    between atoms: C_8  and  N_11
REMARK    6  A    between atoms: C_9  and  O_10
REMARK    7  A    between atoms: C_19  and  C_24
REMARK                            x       y       z     vdW  Elec       q    Type
REMARK                         _______ _______ _______ _____ _____    ______ ____
ROOT
ATOM      1  C   UNL     1      -6.576   0.203  -0.034  0.00  0.00    +0.136 C 
ATOM      2  C   UNL     1      -5.272   0.943   0.150  0.00  0.00    +0.036 C 
ATOM      3  C   UNL     1      -4.674   1.205   1.324  0.00  0.00    +0.017 C 
ATOM      4  C   UNL     1      -3.369   1.983   1.365  0.00  0.00    +0.059 C 
ATOM      5  C   UNL     1      -2.537   1.668   0.122  0.00  0.00    +0.033 C 
ATOM      6  C   UNL     1      -3.359   2.077  -1.106  0.00  0.00    +0.088 C 
ATOM      7  C   UNL     1      -4.674   1.359  -1.063  0.00  0.00    +0.163 C 
ATOM      8  O   UNL     1      -5.249   1.126  -2.108  0.00  0.00    -0.292 OA
ATOM      9  N   UNL     1      -5.146   0.826   2.539  0.00  0.00    -0.316 N 
ATOM     10  C   UNL     1      -6.461   0.979   2.960  0.00  0.00    +0.052 A 
ATOM     11  C   UNL     1      -6.800   1.762   4.050  0.00  0.00    +0.025 A 
ATOM     12  C   UNL     1      -8.114   1.787   4.485  0.00  0.00    +0.002 A 
ATOM     13  C   UNL     1      -9.078   1.036   3.837  0.00  0.00    +0.002 A 
ATOM     14  C   UNL     1      -8.744   0.268   2.735  0.00  0.00    +0.025 A 
ATOM     15  C   UNL     1      -7.433   0.255   2.286  0.00  0.00    +0.049 A 
ATOM     16  N   UNL     1      -7.058  -0.467   1.155  0.00  0.00    -0.331 N 
ATOM     17  H   UNL     1      -4.470   0.359   3.270  0.00  0.00    +0.152 HD
ATOM     18  H   UNL     1      -7.132  -1.565   1.175  0.00  0.00    +0.147 HD
ENDROOT
BRANCH   5  19
ATOM     19  C   UNL     1      -1.249   2.449   0.158  0.00  0.00    -0.025 A 
ATOM     20  C   UNL     1      -1.279   3.830   0.197  0.00  0.00    +0.005 A 
ATOM     21  C   UNL     1      -0.097   4.547   0.224  0.00  0.00    +0.000 A 
ATOM     22  C   UNL     1       1.115   3.882   0.218  0.00  0.00    +0.001 A 
ATOM     23  C   UNL     1       1.146   2.501   0.185  0.00  0.00    +0.020 A 
ATOM     24  C   UNL     1      -0.036   1.783   0.158  0.00  0.00    +0.044 A 
ATOM     25 CL   UNL     1       0.002   0.048   0.116  0.00  0.00    -0.083 Cl
ENDBRANCH   5  19
BRANCH   1  28
ATOM     26  C   UNL     1      -9.174   1.953  -2.146  0.00  0.00    +0.164 A 
ATOM     27  C   UNL     1      -8.207   1.052  -1.732  0.00  0.00    +0.055 A 
ATOM     28  C   UNL     1      -7.624   1.188  -0.486  0.00  0.00    -0.017 A 
ATOM     29  C   UNL     1      -7.996   2.228   0.345  0.00  0.00    +0.042 A 
ATOM     30  C   UNL     1      -8.957   3.134  -0.064  0.00  0.00    +0.171 A 
ATOM     31  C   UNL     1      -9.550   3.000  -1.309  0.00  0.00    +0.189 A 
BRANCH  30  32
ATOM     32  N   UNL     1      -9.354   4.246   0.829  0.00  0.00    +0.060 N 
ATOM     33  O   UNL     1      -8.833   4.364   1.923  0.00  0.00    -0.126 OA
ATOM     34  O   UNL     1     -10.201   5.044   0.468  0.00  0.00    -0.126 OA
ENDBRANCH  30  32
BRANCH  31  35
ATOM     35  O   UNL     1     -10.496   3.890  -1.713  0.00  0.00    -0.502 OA
ATOM     36  H   UNL     1     -10.791   4.717  -1.051  0.00  0.00    +0.292 HD
ENDBRANCH  31  35
BRANCH  26  37
ATOM     37  O   UNL     1      -9.753   1.818  -3.369  0.00  0.00    -0.488 OA
BRANCH  37  39
ATOM     38  C   UNL     1     -10.075   0.731  -5.504  0.00  0.00    +0.048 C 
ATOM     39  C   UNL     1      -9.318   0.720  -4.174  0.00  0.00    +0.226 C 
ENDBRANCH  37  39
ENDBRANCH  26  37
ENDBRANCH   1  28
TORSDOF 6
