REMARK  Name = ZINC08957363
REMARK  9 active torsions:
REMARK  status: ('A' for Active; 'I' for Inactive)
REMARK    1  A    between atoms: C_1  and  C_2
REMARK    2  A    between atoms: N_8  and  C_31
REMARK    3  A    between atoms: N_10  and  C_11
REMARK    4  A    between atoms: C_11  and  C_13
REMARK    5  A    between atoms: C_16  and  S_19
REMARK    6  A    between atoms: S_19  and  N_22
REMARK    7  A    between atoms: N_22  and  C_23
REMARK    8  A    between atoms: N_22  and  C_24
REMARK    9  A    between atoms: C_31  and  C_32
REMARK                            x       y       z     vdW  Elec       q    Type
REMARK                         _______ _______ _______ _____ _____    ______ ____
ROOT
ATOM      1  C   UNL     1      -4.975  -3.155   4.148  0.00  0.00    +0.269 C 
ATOM      2  O   UNL     1      -5.186  -3.155   5.348  0.00  0.00    -0.268 OA
ENDROOT
BRANCH   1  12
ATOM      3  C   UNL     1      -8.837  -8.068   2.026  0.00  0.00    +0.047 C 
ATOM      4  C   UNL     1      -8.819  -7.747   3.498  0.00  0.00    -0.008 A 
ATOM      5  C   UNL     1      -9.601  -8.478   4.363  0.00  0.00    +0.046 A 
ATOM      6  C   UNL     1      -9.609  -8.211   5.723  0.00  0.00    +0.021 A 
ATOM      7  C   UNL     1      -8.816  -7.189   6.216  0.00  0.00    +0.018 A 
ATOM      8  C   UNL     1      -8.035  -6.459   5.352  0.00  0.00    +0.039 A 
ATOM      9  C   UNL     1      -8.005  -6.706   3.971  0.00  0.00    +0.062 A 
ATOM     10  N   UNL     1      -7.170  -5.875   3.249  0.00  0.00    -0.317 N 
ATOM     11  C   UNL     1      -6.447  -4.915   3.886  0.00  0.00    +0.167 A 
ATOM     12  N   UNL     1      -5.598  -4.037   3.360  0.00  0.00    -0.152 NA
ATOM     13  S   UNL     1      -6.903  -5.106   5.548  0.00  0.00    -0.052 S 
ATOM     14 CL   UNL     1     -10.595  -9.757   3.740  0.00  0.00    -0.083 Cl
BRANCH  10  15
ATOM     15  C   UNL     1      -7.060  -6.031   1.796  0.00  0.00    +0.151 C 
BRANCH  15  16
ATOM     16  C   UNL     1      -8.146  -5.234   1.122  0.00  0.00    -0.013 C 
ATOM     17  C   UNL     1      -7.837  -4.345   0.210  0.00  0.00    +0.005 C 
ENDBRANCH  15  16
ENDBRANCH  10  15
ENDBRANCH   1  12
BRANCH   1  18
ATOM     18  C   UNL     1      -4.030  -2.177   3.562  0.00  0.00    +0.039 A 
ATOM     19  C   UNL     1      -3.378  -1.255   4.381  0.00  0.00    +0.015 A 
ATOM     20  C   UNL     1      -2.499  -0.347   3.829  0.00  0.00    +0.029 A 
ATOM     21  C   UNL     1      -2.262  -0.349   2.466  0.00  0.00    +0.109 A 
ATOM     22  C   UNL     1      -2.910  -1.257   1.647  0.00  0.00    +0.029 A 
ATOM     23  C   UNL     1      -3.787  -2.174   2.188  0.00  0.00    +0.015 A 
BRANCH  21  24
ATOM     24  S   UNL     1      -1.138   0.815   1.769  0.00  0.00    +0.074 S 
ATOM     25  O   UNL     1      -0.958   1.837   2.739  0.00  0.00    -0.150 OA
ATOM     26  O   UNL     1      -1.599   1.086   0.452  0.00  0.00    -0.150 OA
BRANCH  24  27
ATOM     27  N   UNL     1       0.322   0.050   1.610  0.00  0.00    -0.206 N 
ATOM     28  C   UNL     1       0.662  -0.627   0.356  0.00  0.00    +0.157 C 
BRANCH  27  29
ATOM     29  C   UNL     1       1.230   0.050   2.672  0.00  0.00    +0.051 A 
ATOM     30  C   UNL     1       0.773   0.173   3.978  0.00  0.00    +0.025 A 
ATOM     31  C   UNL     1       1.672   0.168   5.026  0.00  0.00    +0.002 A 
ATOM     32  C   UNL     1       3.027   0.051   4.776  0.00  0.00    +0.000 A 
ATOM     33  C   UNL     1       3.486  -0.066   3.476  0.00  0.00    +0.002 A 
ATOM     34  C   UNL     1       2.591  -0.067   2.424  0.00  0.00    +0.025 A 
ENDBRANCH  27  29
ENDBRANCH  24  27
ENDBRANCH  21  24
ENDBRANCH   1  18
TORSDOF 7
