REMARK  Name = ZINC16044359
REMARK  11 active torsions:
REMARK  status: ('A' for Active; 'I' for Inactive)
REMARK    1  A    between atoms: C_1  and  C_2
REMARK    2  A    between atoms: C_2  and  C_4
REMARK    3  A    between atoms: C_2  and  N_14
REMARK    4  A    between atoms: N_14  and  S_15
REMARK    5  A    between atoms: S_15  and  C_18
REMARK    6  A    between atoms: C_22  and  C_24
REMARK    7  A    between atoms: C_24  and  O_26
REMARK    8  A    between atoms: O_26  and  C_27
REMARK    9  A    between atoms: C_27  and  C_28
REMARK   10  A    between atoms: N_30  and  C_31
REMARK   11  A    between atoms: C_32  and  C_36
REMARK                            x       y       z     vdW  Elec       q    Type
REMARK                         _______ _______ _______ _____ _____    ______ ____
ROOT
ATOM      1  C   UNL     1      -7.208   0.220   0.037  0.00  0.00    +0.106 A 
ATOM      2  C   UNL     1      -7.004  -1.149   0.028  0.00  0.00    +0.028 A 
ATOM      3  C   UNL     1      -5.720  -1.663   0.019  0.00  0.00    +0.003 A 
ATOM      4  C   UNL     1      -4.633  -0.814   0.014  0.00  0.00    +0.015 A 
ATOM      5  C   UNL     1      -4.831   0.568   0.028  0.00  0.00    +0.061 A 
ATOM      6  C   UNL     1      -6.130   1.081   0.037  0.00  0.00    +0.043 A 
ENDROOT
BRANCH   1   7
ATOM      7  S   UNL     1      -8.848   0.865   0.049  0.00  0.00    +0.059 S 
ATOM      8  O   UNL     1      -9.679  -0.149   0.598  0.00  0.00    -0.153 OA
ATOM      9  O   UNL     1      -8.767   2.169   0.607  0.00  0.00    -0.153 OA
BRANCH   7  10
ATOM     10  N   UNL     1      -9.311   1.054  -1.530  0.00  0.00    -0.187 NA
ATOM     11  H   UNL     1      -9.483   1.941  -1.882  0.00  0.00    +0.148 HD
BRANCH  10  13
ATOM     12  C   UNL     1     -10.924  -0.565  -2.400  0.00  0.00    +0.026 C 
ATOM     13  C   UNL     1      -9.461  -0.119  -2.395  0.00  0.00    +0.080 C 
BRANCH  13  14
ATOM     14  C   UNL     1      -9.031   0.239  -3.819  0.00  0.00    -0.012 C 
ATOM     15  C   UNL     1      -7.568   0.685  -3.813  0.00  0.00    +0.012 C 
ATOM     16  C   UNL     1      -7.138   1.043  -5.237  0.00  0.00    -0.010 C 
ATOM     17  C   UNL     1      -7.295  -0.182  -6.141  0.00  0.00    +0.007 C 
ATOM     18  C   UNL     1      -8.758  -0.628  -6.146  0.00  0.00    -0.010 C 
ATOM     19  C   UNL     1      -9.188  -0.986  -4.722  0.00  0.00    +0.012 C 
ATOM     20  C   UNL     1      -9.636   0.509  -6.673  0.00  0.00    +0.007 C 
ATOM     21  C   UNL     1      -9.479   1.734  -5.769  0.00  0.00    -0.010 C 
ATOM     22  C   UNL     1      -8.016   2.180  -5.764  0.00  0.00    +0.007 C 
ATOM     23  C   UNL     1      -9.909   1.376  -4.345  0.00  0.00    +0.012 C 
ENDBRANCH  13  14
ENDBRANCH  10  13
ENDBRANCH   7  10
ENDBRANCH   1   7
BRANCH   5  24
ATOM     24  C   UNL     1      -3.672   1.484   0.028  0.00  0.00    +0.340 C 
ATOM     25  O   UNL     1      -3.847   2.686   0.035  0.00  0.00    -0.245 OA
BRANCH  24  26
ATOM     26  O   UNL     1      -2.420   0.986   0.019  0.00  0.00    -0.452 OA
BRANCH  26  27
ATOM     27  C   UNL     1      -1.330   1.944   0.019  0.00  0.00    +0.328 C 
BRANCH  27  28
ATOM     28  C   UNL     1      -0.014   1.209   0.009  0.00  0.00    +0.255 C 
ATOM     29  O   UNL     1       0.002  -0.004   0.002  0.00  0.00    -0.272 OA
ATOM     30  N   UNL     1       1.143   1.898   0.001  0.00  0.00    -0.276 N 
ATOM     31  H   UNL     1       1.130   2.868   0.007  0.00  0.00    +0.155 HD
BRANCH  30  32
ATOM     32  C   UNL     1       2.355   1.221  -0.014  0.00  0.00    +0.089 A 
ATOM     33  C   UNL     1       3.639   1.750  -0.029  0.00  0.00    +0.080 A 
ATOM     34  C   UNL     1       4.731   0.806  -0.038  0.00  0.00    +0.028 A 
ATOM     35  C   UNL     1       4.412  -0.502  -0.043  0.00  0.00    +0.048 A 
ATOM     36  S   UNL     1       2.631  -0.489  -0.026  0.00  0.00    -0.081 S 
BRANCH  33  37
ATOM     37  C   UNL     1       3.869   3.163  -0.031  0.00  0.00    +0.102 C 
ATOM     38  N   UNL     1       4.051   4.284  -0.033  0.00  0.00    -0.191 NA
ENDBRANCH  33  37
ENDBRANCH  30  32
ENDBRANCH  27  28
ENDBRANCH  26  27
ENDBRANCH  24  26
ENDBRANCH   5  24
TORSDOF 10
