REMARK  Name = ZINC16398898
REMARK  5 active torsions:
REMARK  status: ('A' for Active; 'I' for Inactive)
REMARK    1  A    between atoms: C_3  and  N_8
REMARK    2  A    between atoms: C_12  and  C_13
REMARK    3  A    between atoms: N_17  and  C_18
REMARK    4  A    between atoms: C_21  and  S_24
REMARK    5  A    between atoms: S_24  and  N_27
REMARK                            x       y       z     vdW  Elec       q    Type
REMARK                         _______ _______ _______ _____ _____    ______ ____
ROOT
ATOM      1  C   UNL     1       3.457   3.343  -0.006  0.00  0.00    +0.047 A 
ATOM      2  C   UNL     1       4.072   4.589   0.010  0.00  0.00    +0.027 A 
ATOM      3  C   UNL     1       5.447   4.367  -0.054  0.00  0.00    +0.020 A 
ATOM      4  C   UNL     1       5.655   3.027  -0.115  0.00  0.00    +0.092 A 
ATOM      5  N   UNL     1       4.456   2.392  -0.087  0.00  0.00    -0.316 N 
ENDROOT
BRANCH   1  10
ATOM      6  N   UNL     1       1.115   1.189  -2.868  0.00  0.00    -0.184 N 
ATOM      7  C   UNL     1       2.073   1.863  -2.204  0.00  0.00    +0.272 C 
ATOM      8  O   UNL     1       3.221   2.037  -2.567  0.00  0.00    -0.268 OA
ATOM      9  C   UNL     1       1.465   2.350  -0.954  0.00  0.00    +0.104 C 
ATOM     10  C   UNL     1       2.075   3.095   0.045  0.00  0.00    +0.044 C 
ATOM     11  C   UNL     1       0.072   1.876  -0.993  0.00  0.00    +0.266 C 
ATOM     12  O   UNL     1      -0.783   2.066  -0.148  0.00  0.00    -0.268 OA
ATOM     13  N   UNL     1      -0.078   1.196  -2.146  0.00  0.00    -0.223 N 
ATOM     14  H   UNL     1      -0.901   0.771  -2.434  0.00  0.00    +0.174 HD
BRANCH   6  17
ATOM     15  C   UNL     1       2.643   0.142  -6.044  0.00  0.00    +0.003 A 
ATOM     16  C   UNL     1       2.468   0.762  -4.822  0.00  0.00    +0.025 A 
ATOM     17  C   UNL     1       1.293   0.567  -4.108  0.00  0.00    +0.058 A 
ATOM     18  C   UNL     1       0.292  -0.242  -4.631  0.00  0.00    +0.045 A 
ATOM     19  C   UNL     1       0.471  -0.855  -5.856  0.00  0.00    +0.043 A 
ATOM     20  C   UNL     1       1.646  -0.663  -6.562  0.00  0.00    +0.020 A 
ATOM     21 CL   UNL     1      -0.780  -1.865  -6.511  0.00  0.00    -0.083 Cl
ENDBRANCH   6  17
ENDBRANCH   1  10
BRANCH   5  22
ATOM     22  C   UNL     1       4.264   1.005  -0.133  0.00  0.00    +0.047 A 
ATOM     23  C   UNL     1       3.533   0.371   0.864  0.00  0.00    +0.028 A 
ATOM     24  C   UNL     1       3.341  -0.996   0.814  0.00  0.00    +0.030 A 
ATOM     25  C   UNL     1       3.885  -1.734  -0.221  0.00  0.00    +0.105 A 
ATOM     26  C   UNL     1       4.618  -1.107  -1.212  0.00  0.00    +0.030 A 
ATOM     27  C   UNL     1       4.809   0.261  -1.171  0.00  0.00    +0.028 A 
BRANCH  25  28
ATOM     28  S   UNL     1       3.644  -3.479  -0.278  0.00  0.00    +0.056 S 
ATOM     29  O   UNL     1       2.404  -3.738   0.366  0.00  0.00    -0.153 OA
ATOM     30  O   UNL     1       3.907  -3.882  -1.614  0.00  0.00    -0.153 OA
BRANCH  28  31
ATOM     31  N   UNL     1       4.819  -4.166   0.665  0.00  0.00    -0.204 NA
ATOM     32  H   UNL     1       5.468  -3.605   1.117  0.00  0.00    +0.144 HD
ATOM     33  H   UNL     1       4.858  -5.130   0.765  0.00  0.00    +0.144 HD
ENDBRANCH  28  31
ENDBRANCH  25  28
ENDBRANCH   5  22
TORSDOF 5
