REMARK  Name = ZINC36631505
REMARK  9 active torsions:
REMARK  status: ('A' for Active; 'I' for Inactive)
REMARK    1  A    between atoms: C_1  and  C_2
REMARK    2  A    between atoms: C_2  and  C_3
REMARK    3  A    between atoms: N_9  and  S_10
REMARK    4  A    between atoms: S_10  and  C_13
REMARK    5  A    between atoms: C_16  and  C_19
REMARK    6  A    between atoms: C_19  and  N_21
REMARK    7  A    between atoms: N_23  and  C_33
REMARK    8  A    between atoms: C_25  and  C_32
REMARK    9  A    between atoms: C_33  and  C_34
REMARK                            x       y       z     vdW  Elec       q    Type
REMARK                         _______ _______ _______ _____ _____    ______ ____
ROOT
ATOM      1  C   UNL     1       0.488   1.815  -5.955  0.00  0.00    +0.106 A 
ATOM      2  C   UNL     1       1.803   1.525  -5.637  0.00  0.00    +0.029 A 
ATOM      3  C   UNL     1       2.412   0.403  -6.160  0.00  0.00    +0.015 A 
ATOM      4  C   UNL     1       1.698  -0.441  -7.011  0.00  0.00    +0.039 A 
ATOM      5  C   UNL     1       0.373  -0.145  -7.328  0.00  0.00    +0.015 A 
ATOM      6  C   UNL     1      -0.226   0.978  -6.795  0.00  0.00    +0.029 A 
ENDROOT
BRANCH   1   7
ATOM      7  S   UNL     1      -0.282   3.250  -5.284  0.00  0.00    +0.061 S 
ATOM      8  O   UNL     1      -1.225   3.695  -6.250  0.00  0.00    -0.153 OA
ATOM      9  O   UNL     1       0.763   4.082  -4.799  0.00  0.00    -0.153 OA
BRANCH   7  15
ATOM     10  C   UNL     1      -0.493   2.559  -2.665  0.00  0.00    +0.080 C 
ATOM     11  C   UNL     1      -0.827   1.154  -2.155  0.00  0.00    +0.021 C 
ATOM     12  C   UNL     1      -2.346   0.975  -2.122  0.00  0.00    +0.003 C 
ATOM     13  C   UNL     1      -2.910   1.123  -3.538  0.00  0.00    +0.017 C 
ATOM     14  C   UNL     1      -2.599   2.528  -4.062  0.00  0.00    +0.110 C 
ATOM     15  N   UNL     1      -1.153   2.765  -3.961  0.00  0.00    -0.174 NA
BRANCH  10  17
ATOM     16  C   UNL     1       1.716   2.340  -1.517  0.00  0.00    +0.005 C 
ATOM     17  C   UNL     1       1.022   2.698  -2.833  0.00  0.00    +0.017 C 
ENDBRANCH  10  17
ENDBRANCH   7  15
ENDBRANCH   1   7
BRANCH   4  18
ATOM     18  C   UNL     1       2.346  -1.648  -7.576  0.00  0.00    +0.269 C 
ATOM     19  O   UNL     1       3.504  -1.905  -7.297  0.00  0.00    -0.268 OA
BRANCH  18  20
ATOM     20  N   UNL     1       1.660  -2.455  -8.391  0.00  0.00    -0.152 NA
ATOM     21  C   UNL     1       2.240  -3.537  -8.898  0.00  0.00    +0.167 A 
ATOM     22  N   UNL     1       1.700  -4.456  -9.739  0.00  0.00    -0.317 N 
ATOM     23  C   UNL     1       2.461  -5.528 -10.167  0.00  0.00    +0.062 A 
ATOM     24  C   UNL     1       2.106  -6.579 -11.024  0.00  0.00    -0.008 A 
ATOM     25  C   UNL     1       3.014  -7.566 -11.335  0.00  0.00    +0.046 A 
ATOM     26  C   UNL     1       4.298  -7.550 -10.813  0.00  0.00    +0.021 A 
ATOM     27  C   UNL     1       4.672  -6.522  -9.965  0.00  0.00    +0.018 A 
ATOM     28  C   UNL     1       3.766  -5.536  -9.654  0.00  0.00    +0.039 A 
ATOM     29  S   UNL     1       3.813  -4.075  -8.649  0.00  0.00    -0.052 S 
ATOM     30 CL   UNL     1       2.542  -8.854 -12.399  0.00  0.00    -0.083 Cl
ATOM     31  C   UNL     1       0.719  -6.629 -11.610  0.00  0.00    +0.047 C 
BRANCH  22  32
ATOM     32  C   UNL     1       0.314  -4.312 -10.191  0.00  0.00    +0.151 C 
BRANCH  32  33
ATOM     33  C   UNL     1      -0.599  -5.070  -9.262  0.00  0.00    -0.013 C 
ATOM     34  C   UNL     1      -1.603  -4.457  -8.685  0.00  0.00    +0.005 C 
ENDBRANCH  32  33
ENDBRANCH  22  32
ENDBRANCH  18  20
ENDBRANCH   4  18
TORSDOF 7
