REMARK  Name = ZINC32655343
REMARK  11 active torsions:
REMARK  status: ('A' for Active; 'I' for Inactive)
REMARK    1  A    between atoms: C_1  and  C_2
REMARK    2  A    between atoms: C_2  and  O_3
REMARK    3  A    between atoms: O_3  and  C_4
REMARK    4  A    between atoms: C_7  and  C_10
REMARK    5  A    between atoms: C_17  and  S_28
REMARK    6  A    between atoms: C_21  and  C_27
REMARK    7  A    between atoms: C_22  and  C_23
REMARK    8  A    between atoms: C_23  and  O_25
REMARK    9  A    between atoms: O_25  and  C_26
REMARK   10  A    between atoms: S_28  and  C_29
REMARK   11  A    between atoms: C_29  and  C_30
REMARK                            x       y       z     vdW  Elec       q    Type
REMARK                         _______ _______ _______ _____ _____    ______ ____
ROOT
ATOM      1  C   UNL     1       1.211   3.494   0.117  0.00  0.00    +0.096 C 
ATOM      2  C   UNL     1       1.143   1.993   0.133  0.00  0.00    +0.069 A 
ATOM      3  C   UNL     1       2.316   1.237   0.239  0.00  0.00    +0.258 A 
ATOM      4  O   UNL     1       3.404   1.786   0.314  0.00  0.00    -0.267 OA
ATOM      5  N   UNL     1       2.221  -0.109   0.258  0.00  0.00    -0.302 N 
ATOM      6  H   UNL     1       3.131  -0.723   0.338  0.00  0.00    +0.171 HD
ATOM      7  C   UNL     1       1.002  -0.710   0.176  0.00  0.00    +0.171 A 
ATOM      8  N   UNL     1      -0.105  -0.003   0.076  0.00  0.00    -0.208 NA
ATOM      9  C   UNL     1      -0.072   1.334   0.049  0.00  0.00    +0.135 A 
ATOM     10  N   UNL     1      -1.245   2.056  -0.069  0.00  0.00    -0.302 N 
ATOM     11  C   UNL     1      -1.209   3.368  -0.452  0.00  0.00    +0.017 C 
ATOM     12  C   UNL     1      -0.075   4.083  -0.386  0.00  0.00    +0.065 C 
ATOM     13  C   UNL     1      -2.468   4.024  -0.958  0.00  0.00    +0.061 C 
ATOM     14  H   UNL     1      -2.211   1.575   0.145  0.00  0.00    +0.153 HD
ENDROOT
BRANCH   1  18
ATOM     15  C   UNL     1       1.950   4.909   4.081  0.00  0.00    +0.121 A 
ATOM     16  C   UNL     1       2.846   5.196   3.062  0.00  0.00    +0.046 A 
ATOM     17  C   UNL     1       2.605   4.738   1.781  0.00  0.00    +0.008 A 
ATOM     18  C   UNL     1       1.471   3.993   1.515  0.00  0.00    -0.035 A 
ATOM     19  C   UNL     1       0.573   3.710   2.527  0.00  0.00    +0.008 A 
ATOM     20  C   UNL     1       0.813   4.162   3.811  0.00  0.00    +0.046 A 
BRANCH  15  21
ATOM     21  O   UNL     1       2.185   5.359   5.341  0.00  0.00    -0.492 OA
BRANCH  21  23
ATOM     22  C   UNL     1       1.652   5.614   7.685  0.00  0.00    +0.048 C 
ATOM     23  C   UNL     1       1.219   5.025   6.340  0.00  0.00    +0.225 C 
ENDBRANCH  21  23
ENDBRANCH  15  21
ENDBRANCH   1  18
BRANCH  12  24
ATOM     24  C   UNL     1      -0.092   5.433  -0.803  0.00  0.00    +0.337 C 
ATOM     25  O   UNL     1       0.308   5.732  -1.913  0.00  0.00    -0.245 OA
BRANCH  24  26
ATOM     26  O   UNL     1      -0.552   6.391   0.029  0.00  0.00    -0.465 OA
ATOM     27  C   UNL     1      -0.540   7.734  -0.459  0.00  0.00    +0.280 C 
ENDBRANCH  24  26
ENDBRANCH  12  24
BRANCH   7  28
ATOM     28  S   UNL     1       0.903  -2.469   0.207  0.00  0.00    -0.083 S 
BRANCH  28  29
ATOM     29  C   UNL     1      -0.889  -2.685   0.073  0.00  0.00    +0.115 C 
BRANCH  29  30
ATOM     30  C   UNL     1      -1.220  -4.156   0.080  0.00  0.00    -0.002 A 
ATOM     31  C   UNL     1      -1.285  -4.855  -1.111  0.00  0.00    +0.007 A 
ATOM     32  C   UNL     1      -1.582  -6.205  -1.105  0.00  0.00    +0.000 A 
ATOM     33  C   UNL     1      -1.826  -6.855   0.091  0.00  0.00    +0.003 A 
ATOM     34  C   UNL     1      -1.767  -6.157   1.282  0.00  0.00    +0.038 A 
ATOM     35  C   UNL     1      -1.464  -4.805   1.278  0.00  0.00    +0.127 A 
ATOM     36  F   UNL     1      -1.406  -4.122   2.442  0.00  0.00    -0.205 F 
ENDBRANCH  29  30
ENDBRANCH  28  29
ENDBRANCH   7  28
TORSDOF 8
