REMARK  Name = ZINC38687579
REMARK  13 active torsions:
REMARK  status: ('A' for Active; 'I' for Inactive)
REMARK    1  A    between atoms: C_1  and  C_2
REMARK    2  A    between atoms: C_2  and  C_3
REMARK    3  A    between atoms: C_3  and  C_4
REMARK    4  A    between atoms: C_4  and  O_5
REMARK    5  A    between atoms: O_5  and  C_6
REMARK    6  A    between atoms: C_9  and  C_12
REMARK    7  A    between atoms: C_17  and  O_26
REMARK    8  A    between atoms: C_21  and  N_25
REMARK    9  A    between atoms: C_22  and  C_23
REMARK   10  A    between atoms: O_26  and  C_27
REMARK   11  A    between atoms: C_27  and  C_29
REMARK   12  A    between atoms: C_32  and  O_36
REMARK   13  A    between atoms: O_36  and  C_37
REMARK                            x       y       z     vdW  Elec       q    Type
REMARK                         _______ _______ _______ _____ _____    ______ ____
ROOT
ATOM      1  C   UNL     1       1.837  -8.094  -3.170  0.00  0.00    +0.098 C 
ATOM      2  C   UNL     1       3.294  -8.470  -3.208  0.00  0.00    +0.008 A 
ATOM      3  C   UNL     1       4.042  -8.414  -2.045  0.00  0.00    +0.012 A 
ATOM      4  C   UNL     1       5.380  -8.755  -2.061  0.00  0.00    +0.047 A 
ATOM      5  C   UNL     1       5.979  -9.157  -3.246  0.00  0.00    +0.135 A 
ATOM      6  C   UNL     1       5.233  -9.214  -4.412  0.00  0.00    +0.093 A 
ATOM      7  C   UNL     1       3.888  -8.870  -4.395  0.00  0.00    +0.138 A 
ATOM      8  O   UNL     1       3.171  -8.932  -5.544  0.00  0.00    -0.441 OA
ATOM      9  C   UNL     1       1.830  -8.988  -5.495  0.00  0.00    +0.199 C 
ATOM     10  C   UNL     1       1.140  -8.604  -4.399  0.00  0.00    +0.098 C 
ENDROOT
BRANCH   1  14
ATOM     11  C   UNL     1       1.476  -3.840  -2.998  0.00  0.00    +0.121 A 
ATOM     12  C   UNL     1       0.959  -4.622  -1.976  0.00  0.00    +0.046 A 
ATOM     13  C   UNL     1       1.076  -5.998  -2.034  0.00  0.00    +0.008 A 
ATOM     14  C   UNL     1       1.709  -6.594  -3.109  0.00  0.00    -0.034 A 
ATOM     15  C   UNL     1       2.226  -5.816  -4.129  0.00  0.00    +0.008 A 
ATOM     16  C   UNL     1       2.106  -4.441  -4.079  0.00  0.00    +0.046 A 
BRANCH  11  17
ATOM     17  O   UNL     1       1.361  -2.486  -2.944  0.00  0.00    -0.492 OA
BRANCH  17  18
ATOM     18  C   UNL     1       0.701  -1.937  -1.802  0.00  0.00    +0.229 C 
BRANCH  18  19
ATOM     19  C   UNL     1       0.668  -0.411  -1.917  0.00  0.00    +0.041 C 
BRANCH  19  21
ATOM     20  C   UNL     1      -0.071   1.702  -0.809  0.00  0.00    +0.004 C 
ATOM     21  C   UNL     1      -0.038   0.177  -0.694  0.00  0.00    -0.000 C 
ENDBRANCH  19  21
ENDBRANCH  18  19
ENDBRANCH  17  18
ENDBRANCH  11  17
ENDBRANCH   1  14
BRANCH   9  22
ATOM     22  N   UNL     1       1.142  -9.446  -6.591  0.00  0.00    -0.328 N 
ATOM     23  H   UNL     1       1.625  -9.724  -7.385  0.00  0.00    +0.145 HD
ATOM     24  H   UNL     1       0.174  -9.492  -6.572  0.00  0.00    +0.145 HD
ENDBRANCH   9  22
BRANCH  10  25
ATOM     25  C   UNL     1      -0.290  -8.687  -4.412  0.00  0.00    +0.101 C 
ATOM     26  N   UNL     1      -1.424  -8.753  -4.422  0.00  0.00    -0.191 NA
ENDBRANCH  10  25
BRANCH   5  27
ATOM     27  O   UNL     1       7.296  -9.494  -3.263  0.00  0.00    -0.422 OA
BRANCH  27  28
ATOM     28  C   UNL     1       8.151  -8.674  -3.906  0.00  0.00    +0.344 C 
ATOM     29  O   UNL     1       7.756  -7.617  -4.357  0.00  0.00    -0.245 OA
BRANCH  28  30
ATOM     30  C   UNL     1       9.566  -9.059  -4.061  0.00  0.00    +0.061 A 
ATOM     31  C   UNL     1      10.021 -10.277  -3.548  0.00  0.00    +0.018 A 
ATOM     32  C   UNL     1      11.342 -10.634  -3.696  0.00  0.00    +0.048 A 
ATOM     33  C   UNL     1      12.224  -9.785  -4.354  0.00  0.00    +0.138 A 
ATOM     34  C   UNL     1      11.776  -8.572  -4.867  0.00  0.00    +0.083 A 
ATOM     35  C   UNL     1      10.454  -8.210  -4.728  0.00  0.00    +0.038 A 
ATOM     36 CL   UNL     1      12.883  -7.516  -5.688  0.00  0.00    -0.080 Cl
BRANCH  33  37
ATOM     37  O   UNL     1      13.526 -10.140  -4.497  0.00  0.00    -0.494 OA
ATOM     38  C   UNL     1      13.919 -11.399  -3.947  0.00  0.00    +0.277 C 
ENDBRANCH  33  37
ENDBRANCH  28  30
ENDBRANCH  27  28
ENDBRANCH   5  27
TORSDOF 11
