REMARK  Name = ZINC29689519
REMARK  8 active torsions:
REMARK  status: ('A' for Active; 'I' for Inactive)
REMARK    1  A    between atoms: C_1  and  C_2
REMARK    2  A    between atoms: C_2  and  C_4
REMARK    3  A    between atoms: C_2  and  N_11
REMARK    4  A    between atoms: N_14  and  C_17
REMARK    5  A    between atoms: C_17  and  C_19
REMARK    6  A    between atoms: C_17  and  C_20
REMARK    7  A    between atoms: N_26  and  C_27
REMARK    8  A    between atoms: N_26  and  C_28
REMARK                            x       y       z     vdW  Elec       q    Type
REMARK                         _______ _______ _______ _____ _____    ______ ____
ROOT
ATOM      1  N   UNL     1      -3.175   2.686  -2.291  0.00  0.00    -0.299 NA
ATOM      2  C   UNL     1      -3.113   1.227  -2.126  0.00  0.00    +0.066 C 
ATOM      3  C   UNL     1      -2.244   0.890  -0.912  0.00  0.00    -0.062 C 
ATOM      4  N   UNL     1      -0.900   1.453  -1.103  0.00  0.00    +0.388 N 
ATOM      5  C   UNL     1      -0.962   2.912  -1.269  0.00  0.00    -0.062 C 
ATOM      6  C   UNL     1      -1.831   3.249  -2.483  0.00  0.00    +0.066 C 
ATOM      7  H   UNL     1      -0.481   1.023  -2.025  0.00  0.00    -0.081 HD
ENDROOT
BRANCH   1   9
ATOM      8  C   UNL     1      -5.473   2.531  -3.123  0.00  0.00    +0.029 C 
ATOM      9  C   UNL     1      -4.062   3.053  -3.403  0.00  0.00    +0.085 C 
BRANCH   9  10
ATOM     10  C   UNL     1      -4.100   4.553  -3.542  0.00  0.00    -0.012 A 
ATOM     11  C   UNL     1      -3.728   5.355  -2.479  0.00  0.00    +0.006 A 
ATOM     12  C   UNL     1      -3.759   6.731  -2.607  0.00  0.00    +0.000 A 
ATOM     13  C   UNL     1      -4.169   7.306  -3.796  0.00  0.00    +0.001 A 
ATOM     14  C   UNL     1      -4.546   6.505  -4.857  0.00  0.00    +0.020 A 
ATOM     15  C   UNL     1      -4.511   5.128  -4.731  0.00  0.00    +0.046 A 
ATOM     16 CL   UNL     1      -4.984   4.122  -6.064  0.00  0.00    -0.083 Cl
ENDBRANCH   9  10
ENDBRANCH   1   9
BRANCH   4  17
ATOM     17  C   UNL     1      -0.013   1.086   0.008  0.00  0.00    -0.002 C 
ATOM     18  C   UNL     1       1.399   1.602  -0.275  0.00  0.00    -0.005 C 
BRANCH  17  19
ATOM     19  C   UNL     1       0.020  -0.414   0.151  0.00  0.00    +0.123 A 
ATOM     20  N   UNL     1       0.185  -1.174  -0.918  0.00  0.00    -0.201 NA
ATOM     21  C   UNL     1       0.215  -2.499  -0.796  0.00  0.00    +0.217 A 
ATOM     22  N   UNL     1       0.079  -3.058   0.402  0.00  0.00    -0.181 NA
ATOM     23  C   UNL     1      -0.087  -2.290   1.474  0.00  0.00    +0.222 A 
ATOM     24  N   UNL     1      -0.111  -0.966   1.344  0.00  0.00    -0.201 NA
ATOM     25  N   UNL     1      -0.230  -2.865   2.720  0.00  0.00    -0.306 N 
ATOM     26  C   UNL     1      -0.198  -4.323   2.862  0.00  0.00    +0.132 C 
ATOM     27  C   UNL     1      -0.412  -2.018   3.901  0.00  0.00    +0.132 C 
ATOM     28  N   UNL     1       0.387  -3.292  -1.912  0.00  0.00    -0.327 N 
ATOM     29  H   UNL     1       0.412  -4.387  -1.810  0.00  0.00    +0.145 HD
ATOM     30  H   UNL     1       0.500  -2.829  -2.903  0.00  0.00    +0.145 HD
ENDBRANCH  17  19
ENDBRANCH   4  17
TORSDOF 4
