REMARK  Name = ZINC08624279
REMARK  3 active torsions:
REMARK  status: ('A' for Active; 'I' for Inactive)
REMARK    1  A    between atoms: N_13  and  C_17
REMARK    2  A    between atoms: C_17  and  C_18
REMARK    3  A    between atoms: N_20  and  C_21
REMARK                            x       y       z     vdW  Elec       q    Type
REMARK                         _______ _______ _______ _____ _____    ______ ____
ROOT
ATOM      1  C   UNL     1       0.827  -6.007   1.449  0.00  0.00    +0.000 A 
ATOM      2  C   UNL     1       0.701  -5.004   0.506  0.00  0.00    +0.000 A 
ATOM      3  C   UNL     1      -0.554  -4.596   0.103  0.00  0.00    +0.006 A 
ATOM      4  C   UNL     1      -1.693  -5.184   0.637  0.00  0.00    -0.012 A 
ATOM      5  C   UNL     1      -1.567  -6.186   1.575  0.00  0.00    -0.042 A 
ATOM      6  C   UNL     1      -0.303  -6.594   1.980  0.00  0.00    +0.004 A 
ATOM      7  C   UNL     1      -2.759  -6.872   2.189  0.00  0.00    +0.035 C 
ATOM      8  C   UNL     1      -4.021  -6.034   1.998  0.00  0.00    +0.008 C 
ATOM      9  C   UNL     1      -4.144  -5.672   0.512  0.00  0.00    +0.040 C 
ATOM     10  C   UNL     1      -3.031  -4.693   0.160  0.00  0.00    +0.138 C 
ATOM     11  C   UNL     1      -3.326  -3.330   0.746  0.00  0.00    +0.251 C 
ATOM     12  O   UNL     1      -3.444  -3.046   1.919  0.00  0.00    -0.272 OA
ATOM     13  N   UNL     1      -3.429  -2.498  -0.310  0.00  0.00    -0.215 N 
ATOM     14  C   UNL     1      -3.247  -3.144  -1.467  0.00  0.00    +0.310 C 
ATOM     15  O   UNL     1      -3.299  -2.608  -2.557  0.00  0.00    -0.252 OA
ATOM     16  N   UNL     1      -2.998  -4.455  -1.290  0.00  0.00    -0.281 N 
ATOM     17  H   UNL     1      -2.833  -5.114  -1.982  0.00  0.00    +0.152 HD
ENDROOT
BRANCH  13  18
ATOM     18  C   UNL     1      -3.711  -1.064  -0.203  0.00  0.00    +0.214 C 
BRANCH  18  19
ATOM     19  C   UNL     1      -2.414  -0.304  -0.091  0.00  0.00    +0.235 C 
ATOM     20  O   UNL     1      -1.359  -0.901  -0.099  0.00  0.00    -0.274 OA
ATOM     21  N   UNL     1      -2.428   1.039   0.019  0.00  0.00    -0.283 N 
ATOM     22  H   UNL     1      -3.271   1.510   0.106  0.00  0.00    +0.155 HD
BRANCH  21  23
ATOM     23  C   UNL     1      -1.224   1.755   0.006  0.00  0.00    +0.053 A 
ATOM     24  C   UNL     1      -0.102   1.218  -0.610  0.00  0.00    +0.046 A 
ATOM     25  C   UNL     1       1.083   1.929  -0.626  0.00  0.00    +0.061 A 
ATOM     26  C   UNL     1       1.153   3.174  -0.023  0.00  0.00    +0.061 A 
ATOM     27  C   UNL     1       0.038   3.709   0.596  0.00  0.00    +0.043 A 
ATOM     28  C   UNL     1      -1.150   3.002   0.616  0.00  0.00    +0.064 A 
ATOM     29 CL   UNL     1      -2.549   3.673   1.394  0.00  0.00    -0.082 Cl
ATOM     30 CL   UNL     1       2.643   4.065  -0.046  0.00  0.00    -0.082 Cl
ATOM     31 CL   UNL     1       2.484   1.261  -1.403  0.00  0.00    -0.082 Cl
ENDBRANCH  21  23
ENDBRANCH  18  19
ENDBRANCH  13  18
TORSDOF 3
