REMARK  Name = ZINC63515546
REMARK  10 active torsions:
REMARK  status: ('A' for Active; 'I' for Inactive)
REMARK    1  A    between atoms: C_1  and  C_2
REMARK    2  A    between atoms: C_4  and  C_13
REMARK    3  A    between atoms: C_13  and  C_14
REMARK    4  A    between atoms: C_14  and  N_15
REMARK    5  A    between atoms: N_15  and  S_16
REMARK    6  A    between atoms: S_16  and  C_19
REMARK    7  A    between atoms: C_21  and  O_28
REMARK    8  A    between atoms: C_24  and  O_25
REMARK    9  A    between atoms: O_25  and  C_26
REMARK   10  A    between atoms: O_28  and  C_29
REMARK                            x       y       z     vdW  Elec       q    Type
REMARK                         _______ _______ _______ _____ _____    ______ ____
ROOT
ATOM      1  N   UNL     1       1.014  -0.312  -5.128  0.00  0.00    -0.190 NA
ATOM      2  H   UNL     1       1.250   0.489  -5.621  0.00  0.00    +0.148 HD
ENDROOT
BRANCH   1   3
ATOM      3  S   UNL     1       0.192  -1.537  -5.883  0.00  0.00    +0.062 S 
ATOM      4  O   UNL     1      -0.066  -1.096  -7.209  0.00  0.00    -0.153 OA
ATOM      5  O   UNL     1       0.902  -2.735  -5.603  0.00  0.00    -0.153 OA
BRANCH   3   6
ATOM      6  C   UNL     1      -1.373  -1.681  -5.087  0.00  0.00    +0.150 A 
ATOM      7  C   UNL     1      -2.525  -1.312  -5.756  0.00  0.00    +0.079 A 
ATOM      8  C   UNL     1      -3.757  -1.426  -5.130  0.00  0.00    +0.140 A 
ATOM      9  C   UNL     1      -3.833  -1.911  -3.832  0.00  0.00    +0.086 A 
ATOM     10  C   UNL     1      -2.682  -2.280  -3.163  0.00  0.00    +0.071 A 
ATOM     11  C   UNL     1      -1.450  -2.170  -3.792  0.00  0.00    +0.148 A 
ATOM     12 CL   UNL     1      -5.376  -2.053  -3.047  0.00  0.00    -0.080 Cl
BRANCH  11  13
ATOM     13  O   UNL     1      -0.317  -2.538  -3.136  0.00  0.00    -0.493 OA
ATOM     14  C   UNL     1      -0.478  -3.136  -1.848  0.00  0.00    +0.277 C 
ENDBRANCH  11  13
BRANCH   8  15
ATOM     15  O   UNL     1      -4.890  -1.062  -5.788  0.00  0.00    -0.494 OA
ATOM     16  C   UNL     1      -4.737  -0.571  -7.122  0.00  0.00    +0.277 C 
ENDBRANCH   8  15
ENDBRANCH   3   6
ENDBRANCH   1   3
BRANCH   1  17
ATOM     17  C   UNL     1       1.384  -0.440  -3.717  0.00  0.00    +0.110 C 
BRANCH  17  18
ATOM     18  C   UNL     1       0.330   0.250  -2.849  0.00  0.00    +0.050 C 
BRANCH  18  21
ATOM     19  C   UNL     1       0.034   2.414  -0.453  0.00  0.00    +0.035 C 
ATOM     20  C   UNL     1       0.089   0.900  -0.237  0.00  0.00    +0.103 C 
ATOM     21  C   UNL     1       0.774   0.231  -1.409  0.00  0.00    -0.037 C 
ATOM     22  C   UNL     1       1.865  -0.387  -0.903  0.00  0.00    +0.001 A 
ATOM     23  C   UNL     1       2.926  -1.196  -1.514  0.00  0.00    +0.010 A 
ATOM     24  C   UNL     1       3.913  -1.695  -0.740  0.00  0.00    +0.002 A 
ATOM     25  C   UNL     1       3.969  -1.471   0.642  0.00  0.00    +0.022 A 
ATOM     26  C   UNL     1       3.041  -0.740   1.300  0.00  0.00    +0.064 A 
ATOM     27  C   UNL     1       1.923  -0.149   0.558  0.00  0.00    +0.062 A 
ATOM     28  N   UNL     1       0.907   0.586   0.941  0.00  0.00    -0.377 N 
ATOM     29 CL   UNL     1       3.173  -0.503   3.015  0.00  0.00    -0.081 Cl
ATOM     30  H   UNL     1       0.725   0.875   1.849  0.00  0.00    +0.160 HD
ENDBRANCH  18  21
ENDBRANCH  17  18
ENDBRANCH   1  17
TORSDOF 7
