REMARK  Name = ZINC03899445
REMARK  8 active torsions:
REMARK  status: ('A' for Active; 'I' for Inactive)
REMARK    1  A    between atoms: C_1  and  C_2
REMARK    2  A    between atoms: C_2  and  C_3
REMARK    3  A    between atoms: C_3  and  C_4
REMARK    4  A    between atoms: C_6  and  C_13
REMARK    5  A    between atoms: C_7  and  O_12
REMARK    6  A    between atoms: C_9  and  O_10
REMARK    7  A    between atoms: O_10  and  C_11
REMARK    8  A    between atoms: C_14  and  C_19
REMARK                            x       y       z     vdW  Elec       q    Type
REMARK                         _______ _______ _______ _____ _____    ______ ____
ROOT
ATOM      1  C   UNL     1      -1.658  -5.029  -2.389  0.00  0.00    +0.077 A 
ATOM      2  C   UNL     1      -0.598  -5.585  -3.095  0.00  0.00    +0.027 A 
ATOM      3  C   UNL     1      -1.081  -5.932  -4.369  0.00  0.00    +0.143 A 
ATOM      4  N   UNL     1      -2.346  -5.612  -4.436  0.00  0.00    -0.181 NA
ATOM      5  N   UNL     1      -2.741  -5.051  -3.216  0.00  0.00    -0.276 N 
ATOM      6  H   UNL     1      -3.631  -4.731  -2.998  0.00  0.00    +0.189 HD
ENDROOT
BRANCH   2   7
ATOM      7  C   UNL     1       0.785  -5.775  -2.597  0.00  0.00    -0.011 A 
ATOM      8  C   UNL     1       1.504  -4.690  -2.096  0.00  0.00    +0.012 A 
ATOM      9  C   UNL     1       2.791  -4.870  -1.635  0.00  0.00    +0.050 A 
ATOM     10  C   UNL     1       3.376  -6.128  -1.666  0.00  0.00    +0.162 A 
ATOM     11  C   UNL     1       2.663  -7.215  -2.162  0.00  0.00    +0.163 A 
ATOM     12  C   UNL     1       1.369  -7.040  -2.623  0.00  0.00    +0.058 A 
ATOM     13  O   UNL     1       3.219  -8.457  -2.192  0.00  0.00    -0.485 OA
ATOM     14  C   UNL     1       4.643  -8.528  -2.064  0.00  0.00    +0.270 C 
ATOM     15  C   UNL     1       5.068  -7.617  -0.905  0.00  0.00    +0.270 C 
ATOM     16  O   UNL     1       4.650  -6.281  -1.209  0.00  0.00    -0.485 OA
ENDBRANCH   2   7
BRANCH   1  19
ATOM     17  C   UNL     1      -1.770  -2.686   0.541  0.00  0.00    -0.005 A 
ATOM     18  C   UNL     1      -1.806  -3.159  -0.754  0.00  0.00    +0.020 A 
ATOM     19  C   UNL     1      -1.620  -4.519  -1.004  0.00  0.00    +0.042 A 
ATOM     20  C   UNL     1      -1.398  -5.399   0.064  0.00  0.00    +0.129 A 
ATOM     21  C   UNL     1      -1.364  -4.914   1.359  0.00  0.00    +0.092 A 
ATOM     22  C   UNL     1      -1.544  -3.558   1.598  0.00  0.00    +0.127 A 
BRANCH  22  23
ATOM     23  O   UNL     1      -1.504  -3.084   2.870  0.00  0.00    -0.495 OA
ATOM     24  C   UNL     1      -1.267  -4.036   3.910  0.00  0.00    +0.277 C 
ENDBRANCH  22  23
BRANCH  20  25
ATOM     25  O   UNL     1      -1.216  -6.724  -0.172  0.00  0.00    -0.506 OA
ATOM     26  H   UNL     1      -0.293  -6.976  -0.313  0.00  0.00    +0.292 HD
ENDBRANCH  20  25
BRANCH  17  27
ATOM     27  C   UNL     1      -1.970  -1.217   0.810  0.00  0.00    +0.038 C 
BRANCH  27  29
ATOM     28  C   UNL     1      -0.813   0.968   1.173  0.00  0.00    +0.004 C 
ATOM     29  C   UNL     1      -0.609  -0.524   0.900  0.00  0.00    +0.001 C 
ENDBRANCH  27  29
ENDBRANCH  17  27
ENDBRANCH   1  19
TORSDOF 6
