REMARK  Name = ZINC21237008
REMARK  8 active torsions:
REMARK  status: ('A' for Active; 'I' for Inactive)
REMARK    1  A    between atoms: C_1  and  C_2
REMARK    2  A    between atoms: C_2  and  C_4
REMARK    3  A    between atoms: C_2  and  O_12
REMARK    4  A    between atoms: O_12  and  C_13
REMARK    5  A    between atoms: C_13  and  C_15
REMARK    6  A    between atoms: C_20  and  O_21
REMARK    7  A    between atoms: O_21  and  C_22
REMARK    8  A    between atoms: C_22  and  C_23
REMARK                            x       y       z     vdW  Elec       q    Type
REMARK                         _______ _______ _______ _____ _____    ______ ____
ROOT
ATOM      1  C   UNL     1      -0.693   1.960  -3.321  0.00  0.00    +0.101 A 
ATOM      2  C   UNL     1      -0.018   1.692  -4.515  0.00  0.00    +0.018 A 
ATOM      3  C   UNL     1       1.198   1.045  -4.487  0.00  0.00    +0.001 A 
ATOM      4  C   UNL     1       1.757   0.660  -3.279  0.00  0.00    +0.004 A 
ATOM      5  C   UNL     1       1.104   0.924  -2.091  0.00  0.00    +0.046 A 
ATOM      6  C   UNL     1      -0.124   1.569  -2.101  0.00  0.00    +0.135 A 
ENDROOT
BRANCH   1   7
ATOM      7  C   UNL     1      -1.994   2.652  -3.344  0.00  0.00    +0.343 C 
ATOM      8  O   UNL     1      -2.577   2.884  -2.303  0.00  0.00    -0.245 OA
BRANCH   7   9
ATOM      9  O   UNL     1      -2.538   3.027  -4.518  0.00  0.00    -0.449 OA
BRANCH   9  11
ATOM     10  C   UNL     1      -4.946   2.670  -4.540  0.00  0.00    +0.062 C 
ATOM     11  C   UNL     1      -3.821   3.704  -4.465  0.00  0.00    +0.259 C 
BRANCH  11  12
ATOM     12  C   UNL     1      -3.936   4.656  -5.627  0.00  0.00    +0.264 C 
ATOM     13  O   UNL     1      -3.101   4.642  -6.507  0.00  0.00    -0.271 OA
ATOM     14  N   UNL     1      -4.965   5.523  -5.689  0.00  0.00    -0.221 N 
ATOM     15  C   UNL     1      -5.985   5.711  -4.646  0.00  0.00    +0.137 C 
ATOM     16  C   UNL     1      -6.906   6.804  -5.222  0.00  0.00    +0.125 C 
ATOM     17  N   UNL     1      -6.308   7.115  -6.529  0.00  0.00    -0.297 N 
ATOM     18  C   UNL     1      -5.220   6.355  -6.707  0.00  0.00    +0.309 C 
ATOM     19  O   UNL     1      -4.528   6.412  -7.705  0.00  0.00    -0.252 OA
ATOM     20  H   UNL     1      -6.769   7.875  -7.178  0.00  0.00    +0.150 HD
ENDBRANCH  11  12
ENDBRANCH   9  11
ENDBRANCH   7   9
ENDBRANCH   1   7
BRANCH   6  21
ATOM     21  O   UNL     1      -0.769   1.824  -0.935  0.00  0.00    -0.487 OA
BRANCH  21  22
ATOM     22  C   UNL     1      -0.128   1.395   0.268  0.00  0.00    +0.266 C 
BRANCH  22  23
ATOM     23  C   UNL     1      -0.985   1.761   1.452  0.00  0.00    +0.008 A 
ATOM     24  C   UNL     1      -2.189   2.413   1.258  0.00  0.00    +0.010 A 
ATOM     25  C   UNL     1      -2.976   2.749   2.343  0.00  0.00    +0.020 A 
ATOM     26  C   UNL     1      -2.559   2.433   3.625  0.00  0.00    +0.042 A 
ATOM     27  C   UNL     1      -1.355   1.781   3.819  0.00  0.00    +0.040 A 
ATOM     28  C   UNL     1      -0.571   1.440   2.732  0.00  0.00    +0.049 A 
ATOM     29 CL   UNL     1       0.938   0.616   2.975  0.00  0.00    -0.083 Cl
ATOM     30 CL   UNL     1      -3.548   2.856   4.988  0.00  0.00    -0.083 Cl
ENDBRANCH  22  23
ENDBRANCH  21  22
ENDBRANCH   6  21
TORSDOF 7
