REMARK  Name = ZINC66403191
REMARK  3 active torsions:
REMARK  status: ('A' for Active; 'I' for Inactive)
REMARK    1  A    between atoms: C_1  and  C_2
REMARK    2  A    between atoms: C_2  and  N_3
REMARK    3  A    between atoms: N_22  and  C_23
REMARK                            x       y       z     vdW  Elec       q    Type
REMARK                         _______ _______ _______ _____ _____    ______ ____
ROOT
ATOM      1  N   UNL     1       0.688  -0.476  -1.203  0.00  0.00    -0.268 N 
ATOM      2  C   UNL     1       0.052  -0.731  -2.405  0.00  0.00    +0.044 A 
ATOM      3  C   UNL     1      -1.299  -0.609  -2.736  0.00  0.00    +0.024 A 
ATOM      4  C   UNL     1      -1.665  -0.935  -4.033  0.00  0.00    +0.002 A 
ATOM      5  C   UNL     1      -0.744  -1.364  -4.966  0.00  0.00    +0.001 A 
ATOM      6  C   UNL     1       0.604  -1.491  -4.649  0.00  0.00    +0.010 A 
ATOM      7  C   UNL     1       0.976  -1.168  -3.362  0.00  0.00    +0.024 A 
ATOM      8  C   UNL     1       2.309  -1.185  -2.682  0.00  0.00    +0.208 C 
ATOM      9  C   UNL     1       2.015  -0.709  -1.274  0.00  0.00    +0.267 C 
ATOM     10  O   UNL     1       2.820  -0.566  -0.378  0.00  0.00    -0.271 OA
ATOM     11  N   UNL     1       3.235  -0.253  -3.330  0.00  0.00    -0.312 N 
ATOM     12  C   UNL     1       3.881  -0.659  -4.492  0.00  0.00    +0.041 A 
ATOM     13  C   UNL     1       4.275   0.245  -5.464  0.00  0.00    +0.024 A 
ATOM     14  C   UNL     1       4.913  -0.210  -6.602  0.00  0.00    +0.002 A 
ATOM     15  C   UNL     1       5.161  -1.562  -6.779  0.00  0.00    +0.001 A 
ATOM     16  C   UNL     1       4.775  -2.476  -5.820  0.00  0.00    +0.015 A 
ATOM     17  C   UNL     1       4.133  -2.032  -4.667  0.00  0.00    +0.058 A 
ATOM     18  C   UNL     1       3.708  -2.967  -3.609  0.00  0.00    +0.250 C 
ATOM     19  O   UNL     1       4.115  -4.112  -3.601  0.00  0.00    -0.270 OA
ATOM     20  N   UNL     1       2.863  -2.536  -2.649  0.00  0.00    -0.268 N 
ATOM     21  C   UNL     1       2.494  -3.439  -1.556  0.00  0.00    +0.135 C 
ATOM     22  H   UNL     1       3.393   0.628  -2.957  0.00  0.00    +0.149 HD
ENDROOT
BRANCH   1  24
ATOM     23  C   UNL     1      -0.019   1.526   0.010  0.00  0.00    +0.025 C 
ATOM     24  C   UNL     1       0.002  -0.004   0.002  0.00  0.00    +0.110 C 
ENDBRANCH   1  24
TORSDOF 1
