REMARK  Name = ZINC24764567
REMARK  10 active torsions:
REMARK  status: ('A' for Active; 'I' for Inactive)
REMARK    1  A    between atoms: C_1  and  C_2
REMARK    2  A    between atoms: C_2  and  C_27
REMARK    3  A    between atoms: N_5  and  N_9
REMARK    4  A    between atoms: C_10  and  C_12
REMARK    5  A    between atoms: C_12  and  N_13
REMARK    6  A    between atoms: N_13  and  C_14
REMARK    7  A    between atoms: C_14  and  C_15
REMARK    8  A    between atoms: C_14  and  C_21
REMARK    9  A    between atoms: C_30  and  O_33
REMARK   10  A    between atoms: O_33  and  C_34
REMARK                            x       y       z     vdW  Elec       q    Type
REMARK                         _______ _______ _______ _____ _____    ______ ____
ROOT
ATOM      1  N   UNL     1       4.532   7.292  -2.875  0.00  0.00    -0.225 N 
ATOM      2  C   UNL     1       3.457   6.725  -2.292  0.00  0.00    +0.213 C 
ATOM      3  O   UNL     1       2.350   7.178  -2.491  0.00  0.00    -0.276 OA
ATOM      4  H   UNL     1       5.536   6.881  -2.695  0.00  0.00    +0.173 HD
ENDROOT
BRANCH   1   9
ATOM      5  C   UNL     1       3.270  11.551  -4.212  0.00  0.00    +0.047 C 
ATOM      6  C   UNL     1       4.345  10.522  -4.566  0.00  0.00    +0.137 C 
ATOM      7  C   UNL     1       4.683   9.667  -3.361  0.00  0.00    +0.267 C 
ATOM      8  O   UNL     1       5.139  10.041  -2.302  0.00  0.00    -0.271 OA
ATOM      9  N   UNL     1       4.370   8.403  -3.712  0.00  0.00    -0.137 N 
ATOM     10  C   UNL     1       3.891   8.342  -4.960  0.00  0.00    +0.327 C 
ATOM     11  O   UNL     1       3.545   7.310  -5.500  0.00  0.00    -0.251 OA
ATOM     12  N   UNL     1       3.833   9.550  -5.548  0.00  0.00    -0.280 N 
ATOM     13  H   UNL     1       3.501   9.893  -6.539  0.00  0.00    +0.152 HD
BRANCH   6  14
ATOM     14  C   UNL     1       5.580  11.207  -5.093  0.00  0.00    -0.015 A 
ATOM     15  C   UNL     1       6.604  11.545  -4.228  0.00  0.00    +0.010 A 
ATOM     16  C   UNL     1       7.739  12.168  -4.709  0.00  0.00    +0.046 A 
ATOM     17  C   UNL     1       7.846  12.465  -6.060  0.00  0.00    +0.120 A 
ATOM     18  C   UNL     1       6.815  12.130  -6.925  0.00  0.00    +0.046 A 
ATOM     19  C   UNL     1       5.684  11.502  -6.440  0.00  0.00    +0.010 A 
BRANCH  17  20
ATOM     20  O   UNL     1       8.960  13.083  -6.535  0.00  0.00    -0.495 OA
ATOM     21  C   UNL     1       9.982  13.397  -5.587  0.00  0.00    +0.277 C 
ENDBRANCH  17  20
ENDBRANCH   6  14
ENDBRANCH   1   9
BRANCH   2  22
ATOM     22  C   UNL     1       3.631   5.529  -1.392  0.00  0.00    +0.018 C 
BRANCH  22  23
ATOM     23  N   UNL     1       2.320   5.103  -0.884  0.00  0.00    +0.392 N 
ATOM     24  H   UNL     1       1.862   5.926  -0.316  0.00  0.00    -0.084 HD
ATOM     25  H   UNL     1       1.669   4.835  -1.730  0.00  0.00    -0.084 HD
BRANCH  23  26
ATOM     26  C   UNL     1       2.451   3.937  -0.001  0.00  0.00    -0.009 C 
BRANCH  26  27
ATOM     27  C   UNL     1       1.156   3.165   0.008  0.00  0.00    -0.057 A 
ATOM     28  C   UNL     1       1.175   1.783   0.000  0.00  0.00    +0.002 A 
ATOM     29  C   UNL     1      -0.013   1.076   0.008  0.00  0.00    +0.000 A 
ATOM     30  C   UNL     1      -1.219   1.751   0.017  0.00  0.00    +0.000 A 
ATOM     31  C   UNL     1      -1.238   3.133   0.030  0.00  0.00    +0.000 A 
ATOM     32  C   UNL     1      -0.050   3.840   0.022  0.00  0.00    +0.002 A 
ENDBRANCH  26  27
BRANCH  26  33
ATOM     33  C   UNL     1       2.770   4.399   1.397  0.00  0.00    -0.057 A 
ATOM     34  C   UNL     1       2.151   5.522   1.912  0.00  0.00    +0.002 A 
ATOM     35  C   UNL     1       2.439   5.943   3.197  0.00  0.00    +0.000 A 
ATOM     36  C   UNL     1       3.356   5.247   3.963  0.00  0.00    +0.000 A 
ATOM     37  C   UNL     1       3.979   4.126   3.446  0.00  0.00    +0.000 A 
ATOM     38  C   UNL     1       3.686   3.702   2.163  0.00  0.00    +0.002 A 
ENDBRANCH  26  33
ENDBRANCH  23  26
ENDBRANCH  22  23
ENDBRANCH   2  22
TORSDOF 8
