REMARK  Name = ZINC22752043
REMARK  15 active torsions:
REMARK  status: ('A' for Active; 'I' for Inactive)
REMARK    1  A    between atoms: C_1  and  C_2
REMARK    2  A    between atoms: C_2  and  C_3
REMARK    3  A    between atoms: C_3  and  C_4
REMARK    4  A    between atoms: C_3  and  C_5
REMARK    5  A    between atoms: C_3  and  C_6
REMARK    6  A    between atoms: N_14  and  C_18
REMARK    7  A    between atoms: C_18  and  C_19
REMARK    8  A    between atoms: N_21  and  C_22
REMARK    9  A    between atoms: C_22  and  C_23
REMARK   10  A    between atoms: C_23  and  C_25
REMARK   11  A    between atoms: C_23  and  N_31
REMARK   12  A    between atoms: N_31  and  C_32
REMARK   13  A    between atoms: N_31  and  C_34
REMARK   14  A    between atoms: C_32  and  C_33
REMARK   15  A    between atoms: C_34  and  C_35
REMARK                            x       y       z     vdW  Elec       q    Type
REMARK                         _______ _______ _______ _____ _____    ______ ____
ROOT
ATOM      1  C   UNL     1      -0.642   2.921   5.450  0.00  0.00    +0.213 C 
ENDROOT
BRANCH   1  10
ATOM      2  C   UNL     1      -3.816   4.746  10.276  0.00  0.00    -0.005 C 
ATOM      3  C   UNL     1      -4.296   4.818   8.825  0.00  0.00    +0.006 C 
ATOM      4  C   UNL     1      -3.366   5.734   8.026  0.00  0.00    +0.035 C 
ATOM      5  C   UNL     1      -1.943   5.188   8.081  0.00  0.00    +0.113 C 
ATOM      6  C   UNL     1      -1.458   5.091   9.523  0.00  0.00    +0.035 C 
ATOM      7  C   UNL     1      -2.396   4.178  10.318  0.00  0.00    +0.006 C 
ATOM      8  C   UNL     1      -1.871   3.836   7.409  0.00  0.00    +0.247 C 
ATOM      9  O   UNL     1      -2.461   2.826   7.728  0.00  0.00    -0.273 OA
ATOM     10  N   UNL     1      -1.012   3.990   6.381  0.00  0.00    -0.215 N 
ATOM     11  C   UNL     1      -0.536   5.240   6.319  0.00  0.00    +0.310 C 
ATOM     12  O   UNL     1       0.259   5.620   5.482  0.00  0.00    -0.252 OA
ATOM     13  N   UNL     1      -1.038   6.029   7.288  0.00  0.00    -0.285 N 
ATOM     14  H   UNL     1      -0.896   7.087   7.554  0.00  0.00    +0.151 HD
BRANCH   2  15
ATOM     15  C   UNL     1      -4.751   3.839  11.079  0.00  0.00    -0.032 C 
ATOM     16  C   UNL     1      -6.171   4.408  11.040  0.00  0.00    +0.011 C 
ATOM     17  C   UNL     1      -4.747   2.436  10.470  0.00  0.00    +0.011 C 
BRANCH  15  19
ATOM     18  C   UNL     1      -5.206   2.860  13.332  0.00  0.00    +0.004 C 
ATOM     19  C   UNL     1      -4.270   3.767  12.530  0.00  0.00    +0.003 C 
ENDBRANCH  15  19
ENDBRANCH   2  15
ENDBRANCH   1  10
BRANCH   1  20
ATOM     20  C   UNL     1      -1.595   2.919   4.283  0.00  0.00    +0.231 C 
ATOM     21  O   UNL     1      -2.438   3.785   4.186  0.00  0.00    -0.274 OA
ATOM     22  N   UNL     1      -1.511   1.954   3.346  0.00  0.00    -0.315 N 
ATOM     23  H   UNL     1      -0.802   1.122   3.475  0.00  0.00    +0.149 HD
BRANCH  22  24
ATOM     24  C   UNL     1      -2.363   2.012   2.156  0.00  0.00    +0.093 C 
BRANCH  24  25
ATOM     25  C   UNL     1      -2.167   0.742   1.325  0.00  0.00    -0.020 C 
BRANCH  25  26
ATOM     26  C   UNL     1      -2.954   0.852   0.045  0.00  0.00    -0.059 A 
ATOM     27  C   UNL     1      -2.978   2.046  -0.651  0.00  0.00    +0.002 A 
ATOM     28  C   UNL     1      -3.697   2.146  -1.827  0.00  0.00    +0.000 A 
ATOM     29  C   UNL     1      -4.399   1.054  -2.303  0.00  0.00    +0.000 A 
ATOM     30  C   UNL     1      -4.378  -0.139  -1.605  0.00  0.00    +0.000 A 
ATOM     31  C   UNL     1      -3.656  -0.240  -0.431  0.00  0.00    +0.002 A 
ENDBRANCH  25  26
BRANCH  25  32
ATOM     32  N   UNL     1      -0.741   0.578   1.011  0.00  0.00    +0.385 N 
ATOM     33  H   UNL     1      -0.196   0.472   1.960  0.00  0.00    -0.081 HD
BRANCH  32  34
ATOM     34  C   UNL     1      -0.215   1.762   0.317  0.00  0.00    -0.081 C 
ATOM     35  C   UNL     1       0.272   2.782   1.348  0.00  0.00    -0.017 C 
ENDBRANCH  32  34
BRANCH  32  36
ATOM     36  C   UNL     1      -0.512  -0.639   0.221  0.00  0.00    -0.081 C 
ATOM     37  C   UNL     1      -0.710  -1.869   1.110  0.00  0.00    -0.017 C 
ENDBRANCH  32  36
ENDBRANCH  25  32
ENDBRANCH  24  25
ENDBRANCH  22  24
ENDBRANCH   1  20
TORSDOF 10
