REMARK  Name = ZINC09725961
REMARK  6 active torsions:
REMARK  status: ('A' for Active; 'I' for Inactive)
REMARK    1  A    between atoms: C_2  and  C_3
REMARK    2  A    between atoms: C_3  and  N_4
REMARK    3  A    between atoms: C_8  and  S_24
REMARK    4  A    between atoms: N_13  and  C_14
REMARK    5  A    between atoms: C_14  and  C_16
REMARK    6  A    between atoms: S_24  and  N_27
REMARK                            x       y       z     vdW  Elec       q    Type
REMARK                         _______ _______ _______ _____ _____    ______ ____
ROOT
ATOM      1  N   UNL     1       3.707   7.963   0.009  0.00  0.00    -0.310 N 
ATOM      2  C   UNL     1       4.982   8.497  -0.000  0.00  0.00    +0.059 A 
ATOM      3  C   UNL     1       5.360   9.849   0.003  0.00  0.00    +0.029 A 
ATOM      4  C   UNL     1       6.687  10.207  -0.007  0.00  0.00    +0.030 A 
ATOM      5  C   UNL     1       7.689   9.252  -0.021  0.00  0.00    +0.106 A 
ATOM      6  C   UNL     1       7.345   7.911  -0.024  0.00  0.00    +0.045 A 
ATOM      7  C   UNL     1       6.018   7.552  -0.014  0.00  0.00    +0.041 A 
ATOM      8  S   UNL     1       5.155   6.001  -0.006  0.00  0.00    -0.052 S 
ATOM      9  C   UNL     1       3.533   6.614   0.004  0.00  0.00    +0.168 A 
ATOM     10  N   UNL     1       2.393   5.930   0.011  0.00  0.00    -0.152 NA
ENDROOT
BRANCH   5  11
ATOM     11  S   UNL     1       9.383   9.736  -0.034  0.00  0.00    +0.056 S 
ATOM     12  O   UNL     1       9.436  11.043   0.523  0.00  0.00    -0.153 OA
ATOM     13  O   UNL     1      10.121   8.648   0.504  0.00  0.00    -0.153 OA
BRANCH  11  14
ATOM     14  N   UNL     1       9.839   9.879  -1.620  0.00  0.00    -0.204 NA
ATOM     15  H   UNL     1       9.199   9.701  -2.326  0.00  0.00    +0.144 HD
ATOM     16  H   UNL     1      10.746  10.140  -1.842  0.00  0.00    +0.144 HD
ENDBRANCH  11  14
ENDBRANCH   5  11
BRANCH  10  17
ATOM     17  C   UNL     1       2.416   4.594   0.004  0.00  0.00    +0.270 C 
ATOM     18  O   UNL     1       3.481   4.002  -0.009  0.00  0.00    -0.268 OA
BRANCH  17  19
ATOM     19  C   UNL     1       1.145   3.832   0.011  0.00  0.00    +0.042 A 
ATOM     20  C   UNL     1      -0.075   4.506   0.026  0.00  0.00    +0.033 A 
ATOM     21  C   UNL     1      -1.256   3.790   0.034  0.00  0.00    +0.043 A 
ATOM     22  C   UNL     1      -1.230   2.406   0.021  0.00  0.00    +0.040 A 
ATOM     23  C   UNL     1      -0.021   1.732   0.012  0.00  0.00    +0.043 A 
ATOM     24  C   UNL     1       1.166   2.437   0.004  0.00  0.00    +0.033 A 
ATOM     25 CL   UNL     1       0.002  -0.004   0.002  0.00  0.00    -0.083 Cl
ATOM     26 CL   UNL     1      -2.777   4.628   0.051  0.00  0.00    -0.083 Cl
ENDBRANCH  17  19
ENDBRANCH  10  17
BRANCH   1  27
ATOM     27  C   UNL     1       2.542   8.851   0.024  0.00  0.00    +0.212 C 
BRANCH  27  29
ATOM     28  C   UNL     1       1.864   9.374   2.528  0.00  0.00    +0.005 C 
ATOM     29  C   UNL     1       2.165   9.142   1.417  0.00  0.00    -0.084 C 
ENDBRANCH  27  29
ENDBRANCH   1  27
TORSDOF 6
