REMARK  Name = ZINC40364979
REMARK  6 active torsions:
REMARK  status: ('A' for Active; 'I' for Inactive)
REMARK    1  A    between atoms: C_2  and  S_8
REMARK    2  A    between atoms: S_8  and  N_11
REMARK    3  A    between atoms: N_11  and  C_12
REMARK    4  A    between atoms: C_12  and  C_14
REMARK    5  A    between atoms: C_12  and  C_20
REMARK    6  A    between atoms: C_20  and  N_22
REMARK                            x       y       z     vdW  Elec       q    Type
REMARK                         _______ _______ _______ _____ _____    ______ ____
ROOT
ATOM      1  N   UNL     1       1.769   4.275   1.494  0.00  0.00    -0.180 NA
ATOM      2  H   UNL     1       1.157   4.651   2.145  0.00  0.00    +0.149 HD
ENDROOT
BRANCH   1   3
ATOM      3  S   UNL     1       1.228   3.880  -0.020  0.00  0.00    +0.061 S 
ATOM      4  O   UNL     1       2.141   4.460  -0.942  0.00  0.00    -0.153 OA
ATOM      5  O   UNL     1      -0.163   4.168  -0.042  0.00  0.00    -0.153 OA
BRANCH   3   7
ATOM      6  C   UNL     1       2.254   1.592  -1.119  0.00  0.00    +0.057 A 
ATOM      7  C   UNL     1       1.383   2.133  -0.190  0.00  0.00    +0.132 A 
ATOM      8  C   UNL     1       0.652   1.298   0.589  0.00  0.00    +0.106 A 
ATOM      9  S   UNL     1       1.187  -0.306   0.016  0.00  0.00    -0.063 S 
ATOM     10  C   UNL     1       2.349   0.243  -1.222  0.00  0.00    +0.081 A 
ATOM     11 CL   UNL     1       3.343  -0.703  -2.285  0.00  0.00    -0.076 Cl
ATOM     12 CL   UNL     1      -0.505   1.688   1.824  0.00  0.00    -0.074 Cl
ENDBRANCH   3   7
ENDBRANCH   1   3
BRANCH   1  13
ATOM     13  C   UNL     1       3.173   4.057   1.850  0.00  0.00    +0.131 C 
BRANCH  13  14
ATOM     14  C   UNL     1       3.266   3.611   3.311  0.00  0.00    +0.014 C 
ATOM     15  C   UNL     1       2.673   4.695   4.214  0.00  0.00    +0.005 C 
ATOM     16  C   UNL     1       2.765   4.248   5.674  0.00  0.00    +0.000 C 
ATOM     17  C   UNL     1       4.232   4.020   6.046  0.00  0.00    +0.000 C 
ATOM     18  C   UNL     1       4.824   2.937   5.143  0.00  0.00    +0.000 C 
ATOM     19  C   UNL     1       4.732   3.383   3.683  0.00  0.00    +0.005 C 
ENDBRANCH  13  14
BRANCH  13  20
ATOM     20  C   UNL     1       3.943   5.340   1.667  0.00  0.00    +0.065 C 
ATOM     21  S   UNL     1       3.163   6.707   1.387  0.00  0.00    -0.039 S 
BRANCH  20  22
ATOM     22  N   UNL     1       5.289   5.334   1.739  0.00  0.00    -0.354 N 
ATOM     23  H   UNL     1       5.762   4.504   1.909  0.00  0.00    +0.143 HD
ATOM     24  H   UNL     1       5.785   6.159   1.622  0.00  0.00    +0.143 HD
ENDBRANCH  20  22
ENDBRANCH  13  20
ENDBRANCH   1  13
TORSDOF 6
