REMARK  Name = ZINC53625675
REMARK  8 active torsions:
REMARK  status: ('A' for Active; 'I' for Inactive)
REMARK    1  A    between atoms: C_1  and  C_2
REMARK    2  A    between atoms: C_2  and  C_3
REMARK    3  A    between atoms: C_3  and  C_5
REMARK    4  A    between atoms: C_3  and  C_6
REMARK    5  A    between atoms: C_6  and  C_8
REMARK    6  A    between atoms: C_6  and  N_24
REMARK    7  A    between atoms: N_10  and  N_11
REMARK    8  A    between atoms: C_12  and  C_14
REMARK                            x       y       z     vdW  Elec       q    Type
REMARK                         _______ _______ _______ _____ _____    ______ ____
ROOT
ATOM      1  C   UNL     1      -2.827  -2.581   0.141  0.00  0.00    +0.250 C 
ATOM      2  O   UNL     1      -3.354  -2.882   1.191  0.00  0.00    -0.272 OA
ATOM      3  N   UNL     1      -3.506  -2.712  -1.016  0.00  0.00    -0.233 N 
ATOM      4  H   UNL     1      -3.084  -2.471  -1.856  0.00  0.00    +0.173 HD
ENDROOT
BRANCH   3   5
ATOM      5  N   UNL     1      -4.820  -3.197  -1.006  0.00  0.00    -0.230 N 
ATOM      6  C   UNL     1      -5.498  -3.329  -2.163  0.00  0.00    +0.260 C 
ATOM      7  O   UNL     1      -4.970  -3.026  -3.216  0.00  0.00    -0.269 OA
ATOM      8  H   UNL     1      -5.242  -3.438  -0.167  0.00  0.00    +0.173 HD
BRANCH   6   9
ATOM      9  C   UNL     1      -6.883  -3.840  -2.153  0.00  0.00    +0.042 A 
ATOM     10  C   UNL     1      -7.495  -4.182  -0.944  0.00  0.00    +0.017 A 
ATOM     11  C   UNL     1      -8.786  -4.659  -0.938  0.00  0.00    +0.050 A 
ATOM     12  C   UNL     1      -9.487  -4.802  -2.130  0.00  0.00    +0.162 A 
ATOM     13  C   UNL     1      -8.884  -4.460  -3.338  0.00  0.00    +0.163 A 
ATOM     14  C   UNL     1      -7.588  -3.977  -3.351  0.00  0.00    +0.062 A 
ATOM     15  O   UNL     1      -9.559  -4.586  -4.513  0.00  0.00    -0.485 OA
ATOM     16  C   UNL     1     -10.725  -5.418  -4.499  0.00  0.00    +0.270 C 
ATOM     17  C   UNL     1     -11.560  -5.053  -3.265  0.00  0.00    +0.270 C 
ATOM     18  O   UNL     1     -10.760  -5.278  -2.099  0.00  0.00    -0.485 OA
ENDBRANCH   6   9
ENDBRANCH   3   5
BRANCH   1  19
ATOM     19  C   UNL     1      -1.413  -2.059   0.130  0.00  0.00    +0.165 C 
BRANCH  19  20
ATOM     20  N   UNL     1      -0.741  -2.444   1.374  0.00  0.00    -0.288 N 
ATOM     21  C   UNL     1      -1.231  -2.033   2.560  0.00  0.00    +0.298 C 
ATOM     22  O   UNL     1      -2.231  -1.342   2.598  0.00  0.00    -0.253 OA
ATOM     23  N   UNL     1      -0.613  -2.387   3.704  0.00  0.00    -0.313 N 
ATOM     24  H   UNL     1       0.056  -2.996   1.343  0.00  0.00    +0.151 HD
ATOM     25  H   UNL     1       0.185  -2.939   3.673  0.00  0.00    +0.146 HD
ATOM     26  H   UNL     1      -0.965  -2.091   4.558  0.00  0.00    +0.146 HD
ENDBRANCH  19  20
BRANCH  19  27
ATOM     27  C   UNL     1      -1.433  -0.534   0.013  0.00  0.00    +0.015 C 
ATOM     28  C   UNL     1      -2.135  -0.131  -1.286  0.00  0.00    +0.010 C 
BRANCH  27  30
ATOM     29  C   UNL     1      -0.019   1.526   0.010  0.00  0.00    +0.004 C 
ATOM     30  C   UNL     1       0.002  -0.004   0.002  0.00  0.00    +0.002 C 
ENDBRANCH  27  30
ENDBRANCH  19  27
ENDBRANCH   1  19
TORSDOF 6
