REMARK  Name = ZINC22192487
REMARK  15 active torsions:
REMARK  status: ('A' for Active; 'I' for Inactive)
REMARK    1  A    between atoms: C_1  and  C_2
REMARK    2  A    between atoms: C_2  and  C_3
REMARK    3  A    between atoms: C_2  and  C_4
REMARK    4  A    between atoms: C_4  and  N_5
REMARK    5  A    between atoms: C_6  and  N_34
REMARK    6  A    between atoms: C_7  and  N_14
REMARK    7  A    between atoms: N_14  and  C_15
REMARK    8  A    between atoms: C_15  and  C_16
REMARK    9  A    between atoms: C_16  and  C_17
REMARK   10  A    between atoms: C_16  and  C_18
REMARK   11  A    between atoms: C_19  and  C_21
REMARK   12  A    between atoms: C_24  and  C_27
REMARK   13  A    between atoms: C_27  and  O_28
REMARK   14  A    between atoms: O_28  and  C_29
REMARK   15  A    between atoms: C_29  and  C_30
REMARK                            x       y       z     vdW  Elec       q    Type
REMARK                         _______ _______ _______ _____ _____    ______ ____
ROOT
ATOM      1  N   UNL     1      -2.256   4.153   5.591  0.00  0.00    -0.260 N 
ATOM      2  C   UNL     1      -2.352   2.848   5.266  0.00  0.00    +0.251 C 
ATOM      3  O   UNL     1      -1.571   2.361   4.471  0.00  0.00    -0.270 OA
ENDROOT
BRANCH   1   6
ATOM      4  N   UNL     1      -5.263   5.250   7.393  0.00  0.00    -0.280 N 
ATOM      5  C   UNL     1      -4.467   4.718   6.405  0.00  0.00    +0.127 A 
ATOM      6  C   UNL     1      -3.098   4.697   6.582  0.00  0.00    +0.140 A 
ATOM      7  C   UNL     1      -2.558   5.232   7.767  0.00  0.00    +0.277 A 
ATOM      8  O   UNL     1      -1.352   5.229   7.947  0.00  0.00    -0.266 OA
ATOM      9  N   UNL     1      -3.382   5.746   8.701  0.00  0.00    -0.273 N 
ATOM     10  H   UNL     1      -2.968   6.166   9.629  0.00  0.00    +0.173 HD
ATOM     11  C   UNL     1      -4.714   5.753   8.513  0.00  0.00    +0.331 A 
ATOM     12  O   UNL     1      -5.435   6.223   9.372  0.00  0.00    -0.246 OA
BRANCH   5  13
ATOM     13  N   UNL     1      -5.028   4.210   5.258  0.00  0.00    -0.343 N 
ATOM     14  H   UNL     1      -4.385   3.786   4.473  0.00  0.00    +0.144 HD
ATOM     15  H   UNL     1      -6.120   4.227   5.126  0.00  0.00    +0.144 HD
ENDBRANCH   5  13
BRANCH   4  16
ATOM     16  C   UNL     1      -6.718   5.274   7.221  0.00  0.00    +0.131 C 
BRANCH  16  18
ATOM     17  C   UNL     1      -6.553   6.609   5.115  0.00  0.00    +0.009 C 
ATOM     18  C   UNL     1      -7.129   6.577   6.532  0.00  0.00    +0.003 C 
ATOM     19  C   UNL     1      -8.655   6.660   6.465  0.00  0.00    +0.009 C 
ENDBRANCH  16  18
ENDBRANCH   4  16
ENDBRANCH   1   6
BRANCH   2  20
ATOM     20  C   UNL     1      -3.406   2.010   5.876  0.00  0.00    +0.037 A 
ATOM     21  C   UNL     1      -3.864   0.869   5.216  0.00  0.00    +0.013 A 
ATOM     22  C   UNL     1      -4.847   0.091   5.791  0.00  0.00    +0.006 A 
ATOM     23  C   UNL     1      -5.379   0.440   7.020  0.00  0.00    -0.022 A 
ATOM     24  C   UNL     1      -4.933   1.573   7.677  0.00  0.00    +0.006 A 
ATOM     25  C   UNL     1      -3.947   2.357   7.115  0.00  0.00    +0.013 A 
BRANCH  23  26
ATOM     26  C   UNL     1      -6.453  -0.415   7.642  0.00  0.00    +0.195 C 
BRANCH  26  27
ATOM     27  O   UNL     1      -5.848  -1.422   8.456  0.00  0.00    -0.366 OA
BRANCH  27  28
ATOM     28  C   UNL     1      -6.785  -2.291   9.096  0.00  0.00    +0.273 C 
BRANCH  28  29
ATOM     29  C   UNL     1      -6.030  -3.323   9.937  0.00  0.00    +0.413 C 
ATOM     30  F   UNL     1      -5.266  -2.666  10.907  0.00  0.00    -0.168 F 
ATOM     31  F   UNL     1      -6.946  -4.175  10.563  0.00  0.00    -0.168 F 
ATOM     32  F   UNL     1      -5.188  -4.073   9.108  0.00  0.00    -0.168 F 
ENDBRANCH  28  29
ENDBRANCH  27  28
ENDBRANCH  26  27
ENDBRANCH  23  26
ENDBRANCH   2  20
BRANCH   1  33
ATOM     33  C   UNL     1      -1.275   5.006   4.915  0.00  0.00    +0.117 C 
BRANCH  33  34
ATOM     34  C   UNL     1      -1.950   5.733   3.749  0.00  0.00    +0.001 C 
ATOM     35  C   UNL     1      -0.962   6.720   3.124  0.00  0.00    +0.009 C 
ATOM     36  C   UNL     1      -2.386   4.712   2.696  0.00  0.00    +0.009 C 
ENDBRANCH  33  34
ENDBRANCH   1  33
TORSDOF 11
