REMARK  Name = ZINC67382694
REMARK  12 active torsions:
REMARK  status: ('A' for Active; 'I' for Inactive)
REMARK    1  A    between atoms: C_1  and  C_2
REMARK    2  A    between atoms: C_2  and  C_3
REMARK    3  A    between atoms: C_5  and  C_14
REMARK    4  A    between atoms: C_6  and  O_13
REMARK    5  A    between atoms: C_7  and  C_9
REMARK    6  A    between atoms: C_9  and  C_10
REMARK    7  A    between atoms: C_9  and  C_11
REMARK    8  A    between atoms: C_9  and  C_12
REMARK    9  A    between atoms: C_14  and  N_15
REMARK   10  A    between atoms: C_19  and  C_22
REMARK   11  A    between atoms: C_22  and  N_23
REMARK   12  A    between atoms: C_24  and  C_26
REMARK                            x       y       z     vdW  Elec       q    Type
REMARK                         _______ _______ _______ _____ _____    ______ ____
ROOT
ATOM      1  C   UNL     1       0.707  -0.490  -1.238  0.00  0.00    -0.047 A 
ATOM      2  C   UNL     1      -0.012  -0.718  -2.397  0.00  0.00    +0.009 A 
ATOM      3  C   UNL     1       0.632  -1.164  -3.534  0.00  0.00    -0.022 A 
ATOM      4  C   UNL     1       2.002  -1.383  -3.514  0.00  0.00    +0.122 A 
ATOM      5  C   UNL     1       2.722  -1.153  -2.350  0.00  0.00    -0.000 A 
ATOM      6  C   UNL     1       2.073  -0.702  -1.216  0.00  0.00    +0.011 A 
ENDROOT
BRANCH   5   7
ATOM      7  C   UNL     1       4.210  -1.389  -2.325  0.00  0.00    -0.009 C 
ATOM      8  C   UNL     1       4.754  -1.062  -0.933  0.00  0.00    +0.015 C 
ATOM      9  C   UNL     1       4.499  -2.855  -2.654  0.00  0.00    +0.015 C 
ATOM     10  C   UNL     1       4.887  -0.490  -3.361  0.00  0.00    +0.015 C 
ENDBRANCH   5   7
BRANCH   1  12
ATOM     11  C   UNL     1      -0.019   1.526   0.010  0.00  0.00    +0.009 C 
ATOM     12  C   UNL     1       0.002  -0.004   0.002  0.00  0.00    +0.032 C 
ENDBRANCH   1  12
BRANCH   4  13
ATOM     13  O   UNL     1       2.638  -1.822  -4.632  0.00  0.00    -0.506 OA
ATOM     14  H   UNL     1       2.959  -1.113  -5.206  0.00  0.00    +0.292 HD
ENDBRANCH   4  13
BRANCH   3  15
ATOM     15  C   UNL     1      -0.152  -1.413  -4.796  0.00  0.00    -0.039 C 
BRANCH  15  16
ATOM     16  N   UNL     1      -0.417  -2.852  -4.933  0.00  0.00    +0.383 N 
ATOM     17  C   UNL     1      -1.283  -3.295  -3.833  0.00  0.00    -0.078 C 
ATOM     18  C   UNL     1      -1.495  -4.808  -3.924  0.00  0.00    -0.018 C 
ATOM     19  C   UNL     1      -2.156  -5.145  -5.264  0.00  0.00    +0.001 C 
ATOM     20  C   UNL     1      -1.280  -4.613  -6.402  0.00  0.00    -0.011 C 
ATOM     21  C   UNL     1      -1.075  -3.107  -6.219  0.00  0.00    -0.073 C 
ATOM     22  H   UNL     1       0.455  -3.358  -4.896  0.00  0.00    -0.081 HD
BRANCH  20  23
ATOM     23  C   UNL     1      -1.968  -4.877  -7.743  0.00  0.00    +0.105 C 
BRANCH  23  24
ATOM     24  N   UNL     1      -2.060  -6.321  -7.968  0.00  0.00    -0.315 N 
ATOM     25  C   UNL     1      -2.634  -6.793  -9.093  0.00  0.00    +0.210 C 
ATOM     26  O   UNL     1      -3.074  -6.021  -9.919  0.00  0.00    -0.276 OA
ATOM     27  C   UNL     1      -2.728  -8.278  -9.325  0.00  0.00    +0.109 C 
ATOM     28  H   UNL     1      -1.708  -6.939  -7.308  0.00  0.00    +0.149 HD
ENDBRANCH  23  24
ENDBRANCH  20  23
ENDBRANCH  15  16
ENDBRANCH   3  15
TORSDOF 7
