REMARK  Name = ZINC10039845
REMARK  10 active torsions:
REMARK  status: ('A' for Active; 'I' for Inactive)
REMARK    1  A    between atoms: C_1  and  C_2
REMARK    2  A    between atoms: C_2  and  C_3
REMARK    3  A    between atoms: C_2  and  C_4
REMARK    4  A    between atoms: C_4  and  C_6
REMARK    5  A    between atoms: C_4  and  N_21
REMARK    6  A    between atoms: N_8  and  N_9
REMARK    7  A    between atoms: N_9  and  C_10
REMARK    8  A    between atoms: C_15  and  O_18
REMARK    9  A    between atoms: O_18  and  C_19
REMARK   10  A    between atoms: C_22  and  C_24
REMARK                            x       y       z     vdW  Elec       q    Type
REMARK                         _______ _______ _______ _____ _____    ______ ____
ROOT
ATOM      1  C   UNL     1       0.762  -2.018   1.233  0.00  0.00    +0.250 C 
ATOM      2  O   UNL     1       1.821  -2.610   1.220  0.00  0.00    -0.272 OA
ATOM      3  N   UNL     1      -0.395  -2.707   1.241  0.00  0.00    -0.235 N 
ATOM      4  H   UNL     1      -1.242  -2.234   1.251  0.00  0.00    +0.173 HD
ENDROOT
BRANCH   3   5
ATOM      5  N   UNL     1      -0.376  -4.108   1.233  0.00  0.00    -0.271 N 
ATOM      6  H   UNL     1       0.470  -4.582   1.222  0.00  0.00    +0.169 HD
BRANCH   5   7
ATOM      7  C   UNL     1      -1.529  -4.795   1.240  0.00  0.00    +0.099 C 
ATOM      8  C   UNL     1      -1.510  -6.191   1.232  0.00  0.00    +0.042 C 
ATOM      9  C   UNL     1      -0.285  -6.897   1.223  0.00  0.00    +0.033 C 
ATOM     10  C   UNL     1      -0.285  -8.256   1.216  0.00  0.00    +0.045 C 
ATOM     11  C   UNL     1      -1.473  -8.985   1.218  0.00  0.00    +0.069 C 
ATOM     12  C   UNL     1      -2.689  -8.366   1.227  0.00  0.00    +0.169 C 
ATOM     13  C   UNL     1      -2.761  -6.958   1.240  0.00  0.00    +0.229 C 
ATOM     14  O   UNL     1      -3.844  -6.388   1.254  0.00  0.00    -0.283 OA
ATOM     15 CL   UNL     1       1.229  -9.104   1.204  0.00  0.00    -0.083 Cl
BRANCH  12  16
ATOM     16  O   UNL     1      -3.830  -9.107   1.228  0.00  0.00    -0.491 OA
ATOM     17  C   UNL     1      -3.681 -10.528   1.220  0.00  0.00    +0.277 C 
ENDBRANCH  12  16
ENDBRANCH   5   7
ENDBRANCH   3   5
BRANCH   1  18
ATOM     18  C   UNL     1       0.742  -0.511   1.242  0.00  0.00    +0.163 C 
BRANCH  18  19
ATOM     19  N   UNL     1       2.116  -0.004   1.231  0.00  0.00    -0.300 N 
ATOM     20  C   UNL     1       2.387   1.219   1.728  0.00  0.00    +0.245 C 
ATOM     21  O   UNL     1       1.491   1.901   2.186  0.00  0.00    -0.270 OA
ATOM     22  H   UNL     1       2.832  -0.548   0.866  0.00  0.00    +0.150 HD
BRANCH  20  23
ATOM     23  C   UNL     1       3.774   1.731   1.718  0.00  0.00    +0.038 A 
ATOM     24  C   UNL     1       4.805   0.952   1.188  0.00  0.00    +0.013 A 
ATOM     25  C   UNL     1       6.097   1.435   1.181  0.00  0.00    +0.002 A 
ATOM     26  C   UNL     1       6.373   2.689   1.697  0.00  0.00    +0.020 A 
ATOM     27  C   UNL     1       5.357   3.467   2.224  0.00  0.00    +0.042 A 
ATOM     28  C   UNL     1       4.058   2.997   2.232  0.00  0.00    +0.033 A 
ATOM     29 CL   UNL     1       5.713   5.038   2.868  0.00  0.00    -0.084 Cl
ENDBRANCH  20  23
ENDBRANCH  18  19
BRANCH  18  31
ATOM     30  C   UNL     1      -0.019   1.526   0.010  0.00  0.00    +0.009 C 
ATOM     31  C   UNL     1       0.002  -0.004   0.002  0.00  0.00    +0.012 C 
ATOM     32  C   UNL     1       0.718  -0.497  -1.257  0.00  0.00    +0.009 C 
ENDBRANCH  18  31
ENDBRANCH   1  18
TORSDOF 7
