REMARK  Name = ZINC39665195
REMARK  7 active torsions:
REMARK  status: ('A' for Active; 'I' for Inactive)
REMARK    1  A    between atoms: C_1  and  C_2
REMARK    2  A    between atoms: C_2  and  C_4
REMARK    3  A    between atoms: C_2  and  O_29
REMARK    4  A    between atoms: C_4  and  N_5
REMARK    5  A    between atoms: C_6  and  C_8
REMARK    6  A    between atoms: C_19  and  C_21
REMARK    7  A    between atoms: O_29  and  C_30
REMARK                            x       y       z     vdW  Elec       q    Type
REMARK                         _______ _______ _______ _____ _____    ______ ____
ROOT
ATOM      1  C   UNL     1       1.752  -4.308  -3.337  0.00  0.00    +0.100 C 
ATOM      2  C   UNL     1       0.353  -4.952  -3.221  0.00  0.00    +0.121 C 
ATOM      3  N   UNL     1      -0.106  -5.106  -4.621  0.00  0.00    -0.296 N 
ATOM      4  C   UNL     1       1.109  -5.522  -5.363  0.00  0.00    +0.115 C 
ATOM      5  C   UNL     1       2.247  -4.688  -4.742  0.00  0.00    -0.004 C 
ATOM      6  C   UNL     1       3.521  -5.521  -4.647  0.00  0.00    -0.010 C 
ATOM      7  C   UNL     1       4.026  -5.837  -6.058  0.00  0.00    -0.082 C 
ATOM      8  N   UNL     1       4.288  -4.585  -6.778  0.00  0.00    +0.379 N 
ATOM      9  C   UNL     1       3.039  -3.833  -6.947  0.00  0.00    -0.082 C 
ATOM     10  C   UNL     1       2.493  -3.432  -5.573  0.00  0.00    -0.010 C 
ATOM     11  C   UNL     1      -1.347  -4.912  -5.111  0.00  0.00    +0.248 C 
ATOM     12  O   UNL     1      -1.587  -5.167  -6.275  0.00  0.00    -0.270 OA
ATOM     13  H   UNL     1       4.946  -4.028  -6.253  0.00  0.00    -0.086 HD
ATOM     14  H   UNL     1       4.678  -4.795  -7.685  0.00  0.00    -0.086 HD
ENDROOT
BRANCH  11  15
ATOM     15  C   UNL     1      -2.414  -4.390  -4.232  0.00  0.00    +0.057 A 
ATOM     16  C   UNL     1      -2.537  -4.860  -2.923  0.00  0.00    +0.014 A 
ATOM     17  C   UNL     1      -3.535  -4.370  -2.108  0.00  0.00    +0.002 A 
ATOM     18  C   UNL     1      -4.415  -3.413  -2.583  0.00  0.00    +0.021 A 
ATOM     19  C   UNL     1      -4.300  -2.941  -3.879  0.00  0.00    +0.060 A 
ATOM     20  C   UNL     1      -3.300  -3.420  -4.705  0.00  0.00    +0.071 A 
ATOM     21 CL   UNL     1      -3.152  -2.823  -6.329  0.00  0.00    -0.081 Cl
ATOM     22 CL   UNL     1      -5.409  -1.742  -4.466  0.00  0.00    -0.082 Cl
ENDBRANCH  11  15
BRANCH   1  24
ATOM     23  N   UNL     1       2.729  -2.096  -2.813  0.00  0.00    -0.312 N 
ATOM     24  C   UNL     1       1.654  -2.810  -3.202  0.00  0.00    +0.218 C 
ATOM     25  O   UNL     1       0.607  -2.247  -3.443  0.00  0.00    -0.275 OA
ATOM     26  H   UNL     1       3.566  -2.546  -2.620  0.00  0.00    +0.149 HD
BRANCH  23  27
ATOM     27  C   UNL     1       2.633  -0.640  -2.683  0.00  0.00    +0.148 C 
BRANCH  27  29
ATOM     28  C   UNL     1       3.850   1.424  -1.974  0.00  0.00    +0.053 C 
ATOM     29  C   UNL     1       3.982  -0.079  -2.231  0.00  0.00    +0.187 C 
BRANCH  29  30
ATOM     30  O   UNL     1       4.957  -0.303  -3.252  0.00  0.00    -0.488 OA
BRANCH  30  31
ATOM     31  C   UNL     1       6.259  -0.347  -2.863  0.00  0.00    +0.121 A 
ATOM     32  C   UNL     1       6.588  -0.224  -1.521  0.00  0.00    +0.045 A 
ATOM     33  C   UNL     1       7.911  -0.269  -1.128  0.00  0.00    +0.004 A 
ATOM     34  C   UNL     1       8.908  -0.436  -2.072  0.00  0.00    +0.000 A 
ATOM     35  C   UNL     1       8.583  -0.559  -3.410  0.00  0.00    +0.004 A 
ATOM     36  C   UNL     1       7.260  -0.520  -3.807  0.00  0.00    +0.045 A 
ENDBRANCH  30  31
ENDBRANCH  29  30
ENDBRANCH  27  29
ENDBRANCH  23  27
ENDBRANCH   1  24
TORSDOF 6
