REMARK  Name = ZINC66533854
REMARK  4 active torsions:
REMARK  status: ('A' for Active; 'I' for Inactive)
REMARK    1  A    between atoms: N_4  and  C_6
REMARK    2  A    between atoms: N_9  and  C_12
REMARK    3  A    between atoms: C_12  and  C_13
REMARK    4  A    between atoms: N_18  and  C_19
REMARK                            x       y       z     vdW  Elec       q    Type
REMARK                         _______ _______ _______ _____ _____    ______ ____
ROOT
ATOM      1  C   UNL     1       2.155  -6.779   0.701  0.00  0.00    +0.234 C 
ATOM      2  O   UNL     1       1.550  -6.506  -0.313  0.00  0.00    -0.274 OA
ATOM      3  N   UNL     1       2.272  -8.064   1.091  0.00  0.00    -0.239 N 
ATOM      4  C   UNL     1       1.716  -9.045   0.354  0.00  0.00    +0.306 C 
ATOM      5  O   UNL     1       1.109  -8.772  -0.663  0.00  0.00    -0.252 OA
ATOM      6  N   UNL     1       1.833 -10.330   0.744  0.00  0.00    -0.294 N 
ATOM      7  H   UNL     1       2.757  -8.282   1.903  0.00  0.00    +0.159 HD
ATOM      8  H   UNL     1       2.318 -10.549   1.556  0.00  0.00    +0.151 HD
ENDROOT
BRANCH   6   9
ATOM      9  C   UNL     1       1.228 -11.397  -0.058  0.00  0.00    +0.037 C 
ATOM     10  C   UNL     1      -0.283 -11.174  -0.147  0.00  0.00    +0.029 C 
ATOM     11  C   UNL     1      -0.914 -12.288  -0.984  0.00  0.00    -0.008 C 
ATOM     12  C   UNL     1      -0.636 -13.641  -0.325  0.00  0.00    +0.007 C 
ATOM     13  C   UNL     1       0.875 -13.864  -0.236  0.00  0.00    -0.008 C 
ATOM     14  C   UNL     1       1.506 -12.750   0.601  0.00  0.00    +0.029 C 
ATOM     15  C   UNL     1       1.476 -13.848  -1.643  0.00  0.00    +0.007 C 
ATOM     16  C   UNL     1       1.199 -12.496  -2.301  0.00  0.00    -0.008 C 
ATOM     17  C   UNL     1      -0.312 -12.272  -2.391  0.00  0.00    +0.007 C 
ATOM     18  C   UNL     1       1.830 -11.381  -1.464  0.00  0.00    +0.029 C 
ENDBRANCH   6   9
BRANCH   1  19
ATOM     19  C   UNL     1       2.777  -5.682   1.526  0.00  0.00    +0.181 C 
BRANCH  19  23
ATOM     20  C   UNL     1       1.618  -1.641   0.747  0.00  0.00    -0.066 C 
ATOM     21  C   UNL     1       3.104  -2.010   0.757  0.00  0.00    +0.000 C 
ATOM     22  C   UNL     1       3.294  -3.317   1.530  0.00  0.00    +0.083 C 
ATOM     23  N   UNL     1       2.511  -4.383   0.894  0.00  0.00    -0.294 NA
ATOM     24  C   UNL     1       1.076  -4.072   0.914  0.00  0.00    +0.083 C 
ATOM     25  C   UNL     1       0.819  -2.788   0.122  0.00  0.00    +0.000 C 
BRANCH  20  29
ATOM     26  C   UNL     1      -0.019   1.536   0.011  0.00  0.00    -0.020 C 
ATOM     27  C   UNL     1       1.468   1.960  -0.001  0.00  0.00    -0.020 C 
ATOM     28  C   UNL     1       2.191   0.705   0.550  0.00  0.00    -0.079 C 
ATOM     29  N   UNL     1       1.421  -0.418  -0.044  0.00  0.00    +0.382 N 
ATOM     30  C   UNL     1       0.002  -0.004   0.002  0.00  0.00    -0.079 C 
ATOM     31  H   UNL     1       1.708  -0.571  -0.999  0.00  0.00    -0.081 HD
ENDBRANCH  20  29
ENDBRANCH  19  23
ENDBRANCH   1  19
TORSDOF 4
