REMARK  Name = ZINC32535581
REMARK  10 active torsions:
REMARK  status: ('A' for Active; 'I' for Inactive)
REMARK    1  A    between atoms: C_1  and  C_2
REMARK    2  A    between atoms: C_2  and  C_3
REMARK    3  A    between atoms: C_3  and  C_5
REMARK    4  A    between atoms: C_3  and  N_22
REMARK    5  A    between atoms: C_10  and  C_13
REMARK    6  A    between atoms: C_17  and  N_19
REMARK    7  A    between atoms: C_26  and  S_27
REMARK    8  A    between atoms: S_27  and  C_28
REMARK    9  A    between atoms: C_28  and  C_29
REMARK   10  A    between atoms: C_29  and  C_30
REMARK                            x       y       z     vdW  Elec       q    Type
REMARK                         _______ _______ _______ _____ _____    ______ ____
ROOT
ATOM      1  C   UNL     1       3.106  10.487   0.029  0.00  0.00    +0.178 C 
ENDROOT
BRANCH   1   2
ATOM      2  C   UNL     1       1.935   9.537   0.034  0.00  0.00    +0.242 C 
ATOM      3  O   UNL     1       0.803   9.971   0.047  0.00  0.00    -0.273 OA
ATOM      4  N   UNL     1       2.147   8.207   0.025  0.00  0.00    -0.263 N 
ATOM      5  C   UNL     1       1.069   7.331   0.030  0.00  0.00    +0.165 A 
ATOM      6  N   UNL     1       1.064   6.011   0.028  0.00  0.00    -0.225 NA
ATOM      7  C   UNL     1      -0.070   5.327   0.029  0.00  0.00    +0.080 A 
ATOM      8  C   UNL     1      -1.260   6.001   0.044  0.00  0.00    +0.076 A 
ATOM      9  S   UNL     1      -0.682   7.693   0.048  0.00  0.00    -0.060 S 
ATOM     10  H   UNL     1       3.175   7.814   0.013  0.00  0.00    +0.157 HD
BRANCH   7  11
ATOM     11  C   UNL     1      -0.050   3.844   0.022  0.00  0.00    +0.003 A 
ATOM     12  C   UNL     1      -1.246   3.128   0.030  0.00  0.00    +0.010 A 
ATOM     13  C   UNL     1      -1.222   1.749   0.017  0.00  0.00    +0.003 A 
ATOM     14  C   UNL     1      -0.013   1.076   0.008  0.00  0.00    +0.033 A 
ATOM     15  C   UNL     1       1.177   1.781   0.000  0.00  0.00    +0.127 A 
ATOM     16  C   UNL     1       1.165   3.161   0.007  0.00  0.00    +0.042 A 
BRANCH  15  17
ATOM     17  N   UNL     1       2.467   1.054  -0.015  0.00  0.00    +0.056 N 
ATOM     18  O   UNL     1       2.479  -0.164  -0.022  0.00  0.00    -0.126 OA
ATOM     19  O   UNL     1       3.515   1.674  -0.022  0.00  0.00    -0.126 OA
ENDBRANCH  15  17
ENDBRANCH   7  11
ENDBRANCH   1   2
BRANCH   1  20
ATOM     20  N   UNL     1       2.614  11.867   0.041  0.00  0.00    -0.279 N 
ATOM     21  C   UNL     1       1.820  12.446  -0.908  0.00  0.00    +0.216 A 
ATOM     22  N   UNL     1       1.592  13.684  -0.546  0.00  0.00    -0.113 NA
ATOM     23  N   UNL     1       2.263  13.912   0.662  0.00  0.00    -0.121 NA
ATOM     24  C   UNL     1       2.875  12.804   1.002  0.00  0.00    +0.194 A 
ATOM     25  N   UNL     1       1.337  11.828  -2.055  0.00  0.00    -0.328 N 
ATOM     26  H   UNL     1       0.702  12.390  -2.756  0.00  0.00    +0.145 HD
ATOM     27  H   UNL     1       1.589  10.778  -2.262  0.00  0.00    +0.145 HD
BRANCH  24  28
ATOM     28  S   UNL     1       3.861  12.564   2.442  0.00  0.00    -0.086 S 
BRANCH  28  29
ATOM     29  C   UNL     1       3.806  14.170   3.284  0.00  0.00    +0.082 C 
BRANCH  29  30
ATOM     30  C   UNL     1       4.633  14.101   4.569  0.00  0.00    +0.046 C 
BRANCH  30  31
ATOM     31  C   UNL     1       4.587  15.435   5.269  0.00  0.00    -0.047 A 
ATOM     32  C   UNL     1       5.540  16.396   4.988  0.00  0.00    +0.003 A 
ATOM     33  C   UNL     1       5.495  17.621   5.626  0.00  0.00    +0.000 A 
ATOM     34  C   UNL     1       4.503  17.882   6.553  0.00  0.00    +0.000 A 
ATOM     35  C   UNL     1       3.553  16.918   6.838  0.00  0.00    +0.000 A 
ATOM     36  C   UNL     1       3.595  15.695   6.196  0.00  0.00    +0.003 A 
ENDBRANCH  30  31
ENDBRANCH  29  30
ENDBRANCH  28  29
ENDBRANCH  24  28
ENDBRANCH   1  20
BRANCH   1  38
ATOM     37  C   UNL     1       5.198  11.131  -1.175  0.00  0.00    +0.006 C 
ATOM     38  C   UNL     1       3.944  10.256  -1.230  0.00  0.00    +0.031 C 
ENDBRANCH   1  38
TORSDOF 9
