REMARK  Name = ZINC09429698
REMARK  6 active torsions:
REMARK  status: ('A' for Active; 'I' for Inactive)
REMARK    1  A    between atoms: C_4  and  C_7
REMARK    2  A    between atoms: C_7  and  C_8
REMARK    3  A    between atoms: C_8  and  N_9
REMARK    4  A    between atoms: C_10  and  C_12
REMARK    5  A    between atoms: C_22  and  S_25
REMARK    6  A    between atoms: S_25  and  C_28
REMARK                            x       y       z     vdW  Elec       q    Type
REMARK                         _______ _______ _______ _____ _____    ______ ____
ROOT
ATOM      1  C   UNL     1       7.342  -2.736   2.524  0.00  0.00    +0.039 A 
ATOM      2  C   UNL     1       7.939  -3.064   1.302  0.00  0.00    +0.014 A 
ATOM      3  C   UNL     1       9.130  -3.731   1.273  0.00  0.00    +0.014 A 
ATOM      4  C   UNL     1       9.757  -4.087   2.467  0.00  0.00    +0.047 A 
ATOM      5  C   UNL     1       9.168  -3.763   3.701  0.00  0.00    +0.054 A 
ATOM      6  C   UNL     1       7.958  -3.079   3.723  0.00  0.00    +0.039 A 
ATOM      7  N   UNL     1       9.801  -4.123   4.873  0.00  0.00    -0.320 N 
ATOM      8  H   UNL     1       9.389  -3.897   5.722  0.00  0.00    +0.169 HD
ATOM      9  C   UNL     1      10.985  -4.787   4.866  0.00  0.00    +0.278 A 
ATOM     10  O   UNL     1      11.557  -5.114   6.046  0.00  0.00    -0.266 OA
ATOM     11  C   UNL     1      11.617  -5.136   3.711  0.00  0.00    +0.204 A 
ATOM     12  C   UNL     1      11.046  -4.809   2.469  0.00  0.00    +0.218 A 
ATOM     13  O   UNL     1      11.597  -5.114   1.423  0.00  0.00    -0.285 OA
ENDROOT
BRANCH   1  15
ATOM     14  N   UNL     1       5.450  -1.678   1.382  0.00  0.00    -0.311 N 
ATOM     15  C   UNL     1       6.050  -2.013   2.541  0.00  0.00    +0.244 C 
ATOM     16  O   UNL     1       5.531  -1.722   3.601  0.00  0.00    -0.270 OA
ATOM     17  H   UNL     1       5.864  -1.911   0.536  0.00  0.00    +0.149 HD
BRANCH  14  18
ATOM     18  C   UNL     1       4.171  -0.963   1.399  0.00  0.00    +0.109 C 
BRANCH  18  19
ATOM     19  C   UNL     1       3.711  -0.707  -0.038  0.00  0.00    +0.054 C 
BRANCH  19  23
ATOM     20  C   UNL     1      -0.017   1.378   0.010  0.00  0.00    +0.000 A 
ATOM     21  C   UNL     1       1.171   2.086   0.002  0.00  0.00    +0.000 A 
ATOM     22  C   UNL     1       2.377   1.411  -0.013  0.00  0.00    +0.004 A 
ATOM     23  C   UNL     1       2.396   0.029  -0.020  0.00  0.00    -0.046 A 
ATOM     24  C   UNL     1       1.208  -0.679  -0.012  0.00  0.00    +0.004 A 
ATOM     25  C   UNL     1       0.002  -0.004   0.002  0.00  0.00    +0.000 A 
ENDBRANCH  19  23
ENDBRANCH  18  19
ENDBRANCH  14  18
ENDBRANCH   1  15
BRANCH  11  26
ATOM     26  S   UNL     1      13.153  -5.997   3.773  0.00  0.00    +0.034 S 
ATOM     27  O   UNL     1      14.038  -5.313   2.896  0.00  0.00    -0.164 OA
ATOM     28  O   UNL     1      13.449  -6.200   5.148  0.00  0.00    -0.164 OA
BRANCH  26  29
ATOM     29  C   UNL     1      12.885  -7.592   3.075  0.00  0.00    +0.094 A 
ATOM     30  C   UNL     1      12.491  -8.643   3.882  0.00  0.00    +0.029 A 
ATOM     31  C   UNL     1      12.281  -9.894   3.335  0.00  0.00    +0.022 A 
ATOM     32  C   UNL     1      12.464 -10.095   1.978  0.00  0.00    +0.041 A 
ATOM     33  C   UNL     1      12.858  -9.043   1.171  0.00  0.00    +0.022 A 
ATOM     34  C   UNL     1      13.062  -7.791   1.718  0.00  0.00    +0.029 A 
ATOM     35 CL   UNL     1      12.200 -11.667   1.290  0.00  0.00    -0.084 Cl
ENDBRANCH  26  29
ENDBRANCH  11  26
TORSDOF 6
