REMARK  Name = ZINC58846722
REMARK  9 active torsions:
REMARK  status: ('A' for Active; 'I' for Inactive)
REMARK    1  A    between atoms: C_1  and  C_2
REMARK    2  A    between atoms: C_4  and  C_39
REMARK    3  A    between atoms: C_6  and  N_8
REMARK    4  A    between atoms: N_8  and  S_9
REMARK    5  A    between atoms: S_9  and  C_12
REMARK    6  A    between atoms: C_25  and  C_28
REMARK    7  A    between atoms: C_31  and  O_37
REMARK    8  A    between atoms: C_32  and  N_34
REMARK    9  A    between atoms: O_37  and  C_38
REMARK                            x       y       z     vdW  Elec       q    Type
REMARK                         _______ _______ _______ _____ _____    ______ ____
ROOT
ATOM      1  C   UNL     1       0.394  -0.645   4.071  0.00  0.00    +0.109 A 
ATOM      2  C   UNL     1       0.735   0.494   3.364  0.00  0.00    +0.030 A 
ATOM      3  C   UNL     1       0.233   1.719   3.754  0.00  0.00    +0.025 A 
ATOM      4  C   UNL     1      -0.616   1.808   4.853  0.00  0.00    +0.031 A 
ATOM      5  C   UNL     1      -0.970   0.666   5.555  0.00  0.00    -0.018 A 
ATOM      6  C   UNL     1      -0.456  -0.560   5.155  0.00  0.00    +0.034 A 
ATOM      7  C   UNL     1      -1.908   0.716   6.712  0.00  0.00    +0.049 C 
ATOM      8  C   UNL     1      -1.189   0.591   8.031  0.00  0.00    -0.023 C 
ATOM      9  C   UNL     1      -1.767   1.341   8.936  0.00  0.00    -0.030 C 
ATOM     10  C   UNL     1      -2.950   2.079   8.349  0.00  0.00    +0.033 C 
ATOM     11  C   UNL     1      -2.708   2.013   6.823  0.00  0.00    +0.029 C 
ATOM     12  C   UNL     1      -1.932   3.247   6.413  0.00  0.00    +0.105 C 
ATOM     13  N   UNL     1      -1.099   3.051   5.245  0.00  0.00    -0.336 N 
ATOM     14  H   UNL     1      -0.846   3.828   4.723  0.00  0.00    +0.147 HD
ENDROOT
BRANCH  12  15
ATOM     15  C   UNL     1      -1.079   3.684   7.576  0.00  0.00    -0.025 A 
ATOM     16  C   UNL     1       0.122   3.046   7.830  0.00  0.00    +0.009 A 
ATOM     17  C   UNL     1       0.905   3.445   8.895  0.00  0.00    +0.048 A 
ATOM     18  C   UNL     1       0.487   4.487   9.711  0.00  0.00    +0.150 A 
ATOM     19  C   UNL     1      -0.717   5.125   9.454  0.00  0.00    +0.168 A 
ATOM     20  C   UNL     1      -1.495   4.726   8.384  0.00  0.00    +0.042 A 
BRANCH  19  21
ATOM     21  N   UNL     1      -1.167   6.237  10.322  0.00  0.00    +0.060 N 
ATOM     22  O   UNL     1      -2.216   6.793  10.097  0.00  0.00    -0.126 OA
ATOM     23  O   UNL     1      -0.484   6.588  11.255  0.00  0.00    -0.126 OA
ENDBRANCH  19  21
BRANCH  18  24
ATOM     24  O   UNL     1       1.256   4.881  10.760  0.00  0.00    -0.493 OA
ATOM     25  C   UNL     1       2.483   4.178  10.965  0.00  0.00    +0.277 C 
ENDBRANCH  18  24
ENDBRANCH  12  15
BRANCH   1  26
ATOM     26  S   UNL     1       1.040  -2.209   3.582  0.00  0.00    +0.072 S 
ATOM     27  O   UNL     1       0.887  -3.078   4.697  0.00  0.00    -0.150 OA
ATOM     28  O   UNL     1       2.302  -1.957   2.980  0.00  0.00    -0.150 OA
BRANCH  26  29
ATOM     29  N   UNL     1       0.054  -2.795   2.388  0.00  0.00    -0.216 N 
ATOM     30  H   UNL     1       0.411  -2.960   1.501  0.00  0.00    +0.174 HD
BRANCH  29  36
ATOM     31  C   UNL     1      -3.382  -4.733   5.319  0.00  0.00    +0.044 C 
ATOM     32  C   UNL     1      -2.988  -3.987   4.070  0.00  0.00    -0.048 A 
ATOM     33  C   UNL     1      -3.961  -3.555   3.188  0.00  0.00    +0.006 A 
ATOM     34  C   UNL     1      -3.604  -2.871   2.041  0.00  0.00    -0.048 A 
ATOM     35  C   UNL     1      -2.273  -2.617   1.772  0.00  0.00    +0.028 A 
ATOM     36  C   UNL     1      -1.293  -3.050   2.656  0.00  0.00    +0.049 A 
ATOM     37  C   UNL     1      -1.656  -3.732   3.811  0.00  0.00    +0.028 A 
ATOM     38  C   UNL     1      -4.668  -2.402   1.082  0.00  0.00    +0.044 C 
ENDBRANCH  29  36
ENDBRANCH  26  29
ENDBRANCH   1  26
TORSDOF 6
