REMARK  Name = ZINC09301163
REMARK  8 active torsions:
REMARK  status: ('A' for Active; 'I' for Inactive)
REMARK    1  A    between atoms: C_1  and  C_2
REMARK    2  A    between atoms: C_5  and  C_37
REMARK    3  A    between atoms: N_8  and  S_10
REMARK    4  A    between atoms: S_10  and  C_13
REMARK    5  A    between atoms: C_16  and  C_19
REMARK    6  A    between atoms: C_19  and  N_21
REMARK    7  A    between atoms: N_23  and  C_34
REMARK    8  A    between atoms: C_34  and  C_35
REMARK                            x       y       z     vdW  Elec       q    Type
REMARK                         _______ _______ _______ _____ _____    ______ ____
ROOT
ATOM      1  C   UNL     1       7.392   5.296   0.475  0.00  0.00    +0.269 C 
ATOM      2  O   UNL     1       6.475   6.035   0.789  0.00  0.00    -0.268 OA
ENDROOT
BRANCH   1   3
ATOM      3  N   UNL     1       7.139   4.035   0.114  0.00  0.00    -0.152 NA
ATOM      4  C   UNL     1       5.888   3.586   0.097  0.00  0.00    +0.167 A 
ATOM      5  N   UNL     1       5.442   2.347  -0.239  0.00  0.00    -0.317 N 
ATOM      6  C   UNL     1       4.088   2.062  -0.196  0.00  0.00    +0.062 A 
ATOM      7  C   UNL     1       3.444   0.853  -0.503  0.00  0.00    +0.076 A 
ATOM      8  C   UNL     1       2.073   0.734  -0.407  0.00  0.00    +0.168 A 
ATOM      9  C   UNL     1       1.292   1.816  -0.001  0.00  0.00    +0.167 A 
ATOM     10  C   UNL     1       1.906   3.019   0.307  0.00  0.00    +0.066 A 
ATOM     11  C   UNL     1       3.274   3.129   0.209  0.00  0.00    +0.043 A 
ATOM     12  S   UNL     1       4.434   4.441   0.498  0.00  0.00    -0.052 S 
ATOM     13  O   UNL     1      -0.018   1.436   0.010  0.00  0.00    -0.453 OA
ATOM     14  C   UNL     1       0.002  -0.004   0.002  0.00  0.00    +0.466 C 
ATOM     15  O   UNL     1       1.244  -0.327  -0.651  0.00  0.00    -0.453 OA
BRANCH   5  16
ATOM     16  C   UNL     1       6.394   1.311  -0.648  0.00  0.00    +0.151 C 
BRANCH  16  17
ATOM     17  C   UNL     1       6.590   1.370  -2.141  0.00  0.00    -0.013 C 
ATOM     18  C   UNL     1       7.795   1.498  -2.639  0.00  0.00    +0.005 C 
ENDBRANCH  16  17
ENDBRANCH   5  16
ENDBRANCH   1   3
BRANCH   1  22
ATOM     19  C   UNL     1      11.392   6.731   0.528  0.00  0.00    +0.106 A 
ATOM     20  C   UNL     1      10.354   7.573   0.886  0.00  0.00    +0.029 A 
ATOM     21  C   UNL     1       9.053   7.113   0.871  0.00  0.00    +0.015 A 
ATOM     22  C   UNL     1       8.786   5.796   0.494  0.00  0.00    +0.039 A 
ATOM     23  C   UNL     1       9.838   4.952   0.140  0.00  0.00    +0.015 A 
ATOM     24  C   UNL     1      11.134   5.425   0.154  0.00  0.00    +0.029 A 
BRANCH  19  25
ATOM     25  S   UNL     1      13.050   7.327   0.550  0.00  0.00    +0.061 S 
ATOM     26  O   UNL     1      13.787   6.509  -0.350  0.00  0.00    -0.153 OA
ATOM     27  O   UNL     1      12.977   8.739   0.410  0.00  0.00    -0.153 OA
BRANCH  25  33
ATOM     28  C   UNL     1      11.442   6.945   3.999  0.00  0.00    +0.009 C 
ATOM     29  C   UNL     1      12.872   7.364   4.348  0.00  0.00    +0.002 C 
ATOM     30  C   UNL     1      13.684   6.128   4.742  0.00  0.00    +0.009 C 
ATOM     31  C   UNL     1      13.684   5.125   3.585  0.00  0.00    +0.002 C 
ATOM     32  C   UNL     1      14.343   5.766   2.360  0.00  0.00    +0.112 C 
ATOM     33  N   UNL     1      13.657   7.032   2.062  0.00  0.00    -0.176 NA
ATOM     34  C   UNL     1      13.526   8.032   3.130  0.00  0.00    +0.112 C 
ATOM     35  C   UNL     1      14.469   3.877   3.992  0.00  0.00    +0.009 C 
ENDBRANCH  25  33
ENDBRANCH  19  25
ENDBRANCH   1  22
TORSDOF 6
