REMARK  Name = ZINC36659636
REMARK  10 active torsions:
REMARK  status: ('A' for Active; 'I' for Inactive)
REMARK    1  A    between atoms: C_1  and  C_2
REMARK    2  A    between atoms: C_2  and  S_3
REMARK    3  A    between atoms: S_3  and  C_4
REMARK    4  A    between atoms: C_7  and  C_10
REMARK    5  A    between atoms: C_10  and  C_11
REMARK    6  A    between atoms: C_17  and  C_19
REMARK    7  A    between atoms: C_22  and  S_25
REMARK    8  A    between atoms: S_25  and  N_28
REMARK    9  A    between atoms: C_30  and  C_37
REMARK   10  A    between atoms: C_33  and  C_36
REMARK                            x       y       z     vdW  Elec       q    Type
REMARK                         _______ _______ _______ _____ _____    ______ ____
ROOT
ATOM      1  C   UNL     1       1.878  -7.095   0.183  0.00  0.00    +0.223 A 
ATOM      2  N   UNL     1       3.021  -7.443   0.698  0.00  0.00    -0.111 NA
ATOM      3  N   UNL     1       3.825  -7.799  -0.242  0.00  0.00    -0.092 NA
ATOM      4  C   UNL     1       3.217  -7.689  -1.397  0.00  0.00    +0.314 A 
ATOM      5  O   UNL     1       1.970  -7.247  -1.152  0.00  0.00    -0.409 OA
ATOM      6  N   UNL     1       3.756  -7.980  -2.640  0.00  0.00    -0.234 N 
ATOM      7  C   UNL     1       5.025  -8.424  -2.738  0.00  0.00    +0.252 C 
ATOM      8  O   UNL     1       5.697  -8.569  -1.735  0.00  0.00    -0.270 OA
ATOM      9  H   UNL     1       3.220  -7.865  -3.441  0.00  0.00    +0.160 HD
ENDROOT
BRANCH   7  10
ATOM     10  C   UNL     1       5.600  -8.734  -4.063  0.00  0.00    +0.037 A 
ATOM     11  C   UNL     1       4.833  -8.563  -5.217  0.00  0.00    +0.015 A 
ATOM     12  C   UNL     1       5.376  -8.855  -6.452  0.00  0.00    +0.029 A 
ATOM     13  C   UNL     1       6.677  -9.316  -6.547  0.00  0.00    +0.106 A 
ATOM     14  C   UNL     1       7.442  -9.487  -5.407  0.00  0.00    +0.029 A 
ATOM     15  C   UNL     1       6.914  -9.194  -4.167  0.00  0.00    +0.015 A 
BRANCH  13  16
ATOM     16  S   UNL     1       7.362  -9.687  -8.128  0.00  0.00    +0.061 S 
ATOM     17  O   UNL     1       8.412 -10.619  -7.907  0.00  0.00    -0.153 OA
ATOM     18  O   UNL     1       6.267  -9.963  -8.990  0.00  0.00    -0.153 OA
BRANCH  16  19
ATOM     19  N   UNL     1       8.071  -8.301  -8.692  0.00  0.00    -0.176 NA
ATOM     20  C   UNL     1       7.301  -7.338  -9.492  0.00  0.00    +0.112 C 
ATOM     21  C   UNL     1       7.423  -5.953  -8.848  0.00  0.00    +0.002 C 
ATOM     22  C   UNL     1       8.902  -5.597  -8.688  0.00  0.00    +0.009 C 
ATOM     23  C   UNL     1       9.579  -6.618  -7.770  0.00  0.00    +0.002 C 
ATOM     24  C   UNL     1       9.480  -8.007  -8.396  0.00  0.00    +0.112 C 
ATOM     25  C   UNL     1      11.050  -6.242  -7.584  0.00  0.00    +0.009 C 
ATOM     26  C   UNL     1       6.750  -5.968  -7.474  0.00  0.00    +0.009 C 
ENDBRANCH  16  19
ENDBRANCH  13  16
ENDBRANCH   7  10
BRANCH   1  27
ATOM     27  C   UNL     1       0.668  -6.614   0.943  0.00  0.00    +0.132 C 
BRANCH  27  31
ATOM     28  C   UNL     1       0.818  -2.359   1.317  0.00  0.00    +0.008 A 
ATOM     29  C   UNL     1       0.189  -2.940   0.223  0.00  0.00    +0.015 A 
ATOM     30  C   UNL     1       0.142  -4.315   0.105  0.00  0.00    +0.005 A 
ATOM     31  C   UNL     1       0.721  -5.114   1.075  0.00  0.00    -0.038 A 
ATOM     32  C   UNL     1       1.348  -4.539   2.166  0.00  0.00    +0.005 A 
ATOM     33  C   UNL     1       1.403  -3.165   2.287  0.00  0.00    +0.015 A 
BRANCH  28  34
ATOM     34  S   UNL     1       0.879  -0.605   1.472  0.00  0.00    -0.125 S 
BRANCH  34  36
ATOM     35  C   UNL     1      -0.019   1.526   0.010  0.00  0.00    +0.015 C 
ATOM     36  C   UNL     1       0.002  -0.004   0.002  0.00  0.00    +0.071 C 
ENDBRANCH  34  36
ENDBRANCH  28  34
ENDBRANCH  27  31
ENDBRANCH   1  27
TORSDOF 7
