REMARK  Name = ZINC42027814
REMARK  3 active torsions:
REMARK  status: ('A' for Active; 'I' for Inactive)
REMARK    1  A    between atoms: C_3  and  C_9
REMARK    2  A    between atoms: C_6  and  N_7
REMARK    3  A    between atoms: N_13  and  C_14
REMARK                            x       y       z     vdW  Elec       q    Type
REMARK                         _______ _______ _______ _____ _____    ______ ____
ROOT
ATOM      1  C   UNL     1       3.657   2.166  -0.064  0.00  0.00    +0.188 A 
ATOM      2  N   UNL     1       3.790   3.475  -0.127  0.00  0.00    -0.108 NA
ATOM      3  N   UNL     1       5.029   3.805  -0.059  0.00  0.00    -0.022 NA
ATOM      4  N   UNL     1       5.772   2.758   0.051  0.00  0.00    -0.039 NA
ATOM      5  N   UNL     1       4.912   1.646   0.059  0.00  0.00    -0.190 N 
ENDROOT
BRANCH   5   6
ATOM      6  C   UNL     1       5.268   0.294   0.166  0.00  0.00    +0.105 A 
ATOM      7  C   UNL     1       4.735  -0.638  -0.714  0.00  0.00    +0.032 A 
ATOM      8  C   UNL     1       5.087  -1.969  -0.607  0.00  0.00    +0.022 A 
ATOM      9  C   UNL     1       5.971  -2.376   0.377  0.00  0.00    +0.044 A 
ATOM     10  C   UNL     1       6.505  -1.451   1.257  0.00  0.00    +0.060 A 
ATOM     11  C   UNL     1       6.161  -0.116   1.151  0.00  0.00    +0.150 A 
ATOM     12  F   UNL     1       6.686   0.788   2.006  0.00  0.00    -0.203 F 
ATOM     13 CL   UNL     1       6.411  -4.050   0.508  0.00  0.00    -0.083 Cl
ENDBRANCH   5   6
BRANCH   1  16
ATOM     14  C   UNL     1       0.956  -0.298   0.786  0.00  0.00    +0.023 A 
ATOM     15  C   UNL     1       2.138   0.408   0.832  0.00  0.00    +0.015 A 
ATOM     16  C   UNL     1       2.390   1.407  -0.110  0.00  0.00    +0.039 A 
ATOM     17  C   UNL     1       1.441   1.688  -1.097  0.00  0.00    +0.053 A 
ATOM     18  C   UNL     1       0.260   0.978  -1.137  0.00  0.00    +0.043 A 
ATOM     19  C   UNL     1       0.013  -0.017  -0.197  0.00  0.00    +0.026 A 
ATOM     20 CL   UNL     1       1.749   2.929  -2.270  0.00  0.00    -0.083 Cl
BRANCH  19  21
ATOM     21  N   UNL     1      -1.183  -0.734  -0.240  0.00  0.00    -0.358 N 
ATOM     22  H   UNL     1      -1.356  -1.428   0.415  0.00  0.00    +0.142 HD
ATOM     23  H   UNL     1      -1.841  -0.538  -0.925  0.00  0.00    +0.142 HD
ENDBRANCH  19  21
ENDBRANCH   1  16
TORSDOF 3
