REMARK  Name = ZINC20763300
REMARK  10 active torsions:
REMARK  status: ('A' for Active; 'I' for Inactive)
REMARK    1  A    between atoms: C_1  and  C_2
REMARK    2  A    between atoms: C_2  and  O_3
REMARK    3  A    between atoms: O_3  and  C_4
REMARK    4  A    between atoms: C_7  and  C_10
REMARK    5  A    between atoms: C_12  and  C_28
REMARK    6  A    between atoms: C_15  and  C_18
REMARK    7  A    between atoms: C_22  and  O_25
REMARK    8  A    between atoms: C_23  and  O_24
REMARK    9  A    between atoms: O_25  and  C_26
REMARK   10  A    between atoms: C_26  and  C_27
REMARK                            x       y       z     vdW  Elec       q    Type
REMARK                         _______ _______ _______ _____ _____    ______ ____
ROOT
ATOM      1  C   UNL     1       1.135   7.090   1.524  0.00  0.00    +0.040 C 
ATOM      2  N   UNL     1       1.124   6.112   0.697  0.00  0.00    -0.299 NA
ATOM      3  C   UNL     1      -0.074   5.619   0.030  0.00  0.00    +0.081 C 
ATOM      4  N   UNL     1      -1.281   6.083   0.724  0.00  0.00    +0.401 N 
ATOM      5  C   UNL     1      -1.226   7.541   0.921  0.00  0.00    -0.028 C 
ATOM      6  C   UNL     1      -0.103   7.846   1.917  0.00  0.00    +0.044 C 
ATOM      7  H   UNL     1      -2.168   5.834   0.123  0.00  0.00    -0.081 HD
ATOM      8  H   UNL     1      -1.353   5.590   1.705  0.00  0.00    -0.081 HD
ENDROOT
BRANCH   3   9
ATOM      9  C   UNL     1      -0.054   4.112   0.023  0.00  0.00    -0.040 A 
ATOM     10  C   UNL     1       1.153   3.438   0.009  0.00  0.00    +0.006 A 
ATOM     11  C   UNL     1       1.173   2.056   0.002  0.00  0.00    +0.038 A 
ATOM     12  C   UNL     1      -0.016   1.347   0.009  0.00  0.00    +0.123 A 
ATOM     13  C   UNL     1      -1.224   2.023   0.019  0.00  0.00    +0.038 A 
ATOM     14  C   UNL     1      -1.242   3.405   0.031  0.00  0.00    +0.006 A 
ATOM     15  F   UNL     1       0.002  -0.004   0.002  0.00  0.00    -0.205 F 
ENDBRANCH   3   9
BRANCH   1  19
ATOM     16  C   UNL     1       4.843   8.250   3.236  0.00  0.00    +0.121 A 
ATOM     17  C   UNL     1       4.796   7.193   2.335  0.00  0.00    +0.046 A 
ATOM     18  C   UNL     1       3.595   6.813   1.777  0.00  0.00    +0.013 A 
ATOM     19  C   UNL     1       2.423   7.493   2.119  0.00  0.00    -0.004 A 
ATOM     20  C   UNL     1       2.475   8.559   3.021  0.00  0.00    +0.013 A 
ATOM     21  C   UNL     1       3.679   8.929   3.578  0.00  0.00    +0.046 A 
BRANCH  16  22
ATOM     22  O   UNL     1       6.029   8.621   3.783  0.00  0.00    -0.492 OA
BRANCH  22  24
ATOM     23  C   UNL     1       7.423   9.986   5.209  0.00  0.00    +0.048 C 
ATOM     24  C   UNL     1       6.005   9.716   4.701  0.00  0.00    +0.225 C 
ENDBRANCH  22  24
ENDBRANCH  16  22
ENDBRANCH   1  19
BRANCH   5  25
ATOM     25  C   UNL     1      -2.541   8.030   1.472  0.00  0.00    -0.016 A 
ATOM     26  C   UNL     1      -3.371   7.160   2.155  0.00  0.00    +0.006 A 
ATOM     27  C   UNL     1      -4.575   7.607   2.667  0.00  0.00    +0.004 A 
ATOM     28  C   UNL     1      -4.960   8.922   2.487  0.00  0.00    +0.049 A 
ATOM     29  C   UNL     1      -4.136   9.798   1.799  0.00  0.00    +0.162 A 
ATOM     30  C   UNL     1      -2.921   9.350   1.289  0.00  0.00    +0.160 A 
BRANCH  30  31
ATOM     31  O   UNL     1      -2.109  10.205   0.612  0.00  0.00    -0.503 OA
ATOM     32  H   UNL     1      -2.412  11.252   0.467  0.00  0.00    +0.292 HD
ENDBRANCH  30  31
BRANCH  29  33
ATOM     33  O   UNL     1      -4.514  11.092   1.622  0.00  0.00    -0.489 OA
BRANCH  33  34
ATOM     34  C   UNL     1      -5.774  11.482   2.172  0.00  0.00    +0.226 C 
ATOM     35  C   UNL     1      -6.025  12.961   1.875  0.00  0.00    +0.048 C 
ENDBRANCH  33  34
ENDBRANCH  29  33
ENDBRANCH   5  25
TORSDOF 8
