REMARK  Name = ZINC40172181
REMARK  9 active torsions:
REMARK  status: ('A' for Active; 'I' for Inactive)
REMARK    1  A    between atoms: C_1  and  C_2
REMARK    2  A    between atoms: C_3  and  C_24
REMARK    3  A    between atoms: C_5  and  N_10
REMARK    4  A    between atoms: C_6  and  C_7
REMARK    5  A    between atoms: C_11  and  C_13
REMARK    6  A    between atoms: C_13  and  C_15
REMARK    7  A    between atoms: C_13  and  N_16
REMARK    8  A    between atoms: C_20  and  S_21
REMARK    9  A    between atoms: S_21  and  C_22
REMARK                            x       y       z     vdW  Elec       q    Type
REMARK                         _______ _______ _______ _____ _____    ______ ____
ROOT
ATOM      1  N   UNL     1       0.054  -3.117   2.083  0.00  0.00    -0.278 N 
ATOM      2  C   UNL     1       0.070  -4.426   1.762  0.00  0.00    +0.240 C 
ATOM      3  O   UNL     1       0.070  -4.765   0.597  0.00  0.00    -0.273 OA
ATOM      4  H   UNL     1       0.054  -2.846   3.014  0.00  0.00    +0.155 HD
ENDROOT
BRANCH   1   9
ATOM      5  C   UNL     1      -0.018   1.503   0.010  0.00  0.00    +0.045 C 
ATOM      6  C   UNL     1       0.002  -0.004   0.002  0.00  0.00    -0.027 A 
ATOM      7  C   UNL     1       0.006  -0.713  -1.142  0.00  0.00    -0.008 A 
ATOM      8  S   UNL     1       0.032  -2.400  -0.579  0.00  0.00    -0.078 S 
ATOM      9  C   UNL     1       0.036  -2.158   1.081  0.00  0.00    +0.084 A 
ATOM     10  C   UNL     1       0.024  -0.778   1.222  0.00  0.00    +0.068 A 
ATOM     11  C   UNL     1      -0.007  -0.200  -2.559  0.00  0.00    +0.052 C 
BRANCH  10  12
ATOM     12  C   UNL     1       0.028  -0.138   2.541  0.00  0.00    +0.244 C 
ATOM     13  O   UNL     1      -1.024   0.114   3.099  0.00  0.00    -0.270 OA
ATOM     14  N   UNL     1       1.197   0.172   3.136  0.00  0.00    -0.325 N 
ATOM     15  H   UNL     1       2.035  -0.028   2.692  0.00  0.00    +0.145 HD
ATOM     16  H   UNL     1       1.199   0.596   4.009  0.00  0.00    +0.145 HD
ENDBRANCH  10  12
ENDBRANCH   1   9
BRANCH   2  17
ATOM     17  C   UNL     1       0.089  -5.468   2.850  0.00  0.00    +0.175 C 
ATOM     18  C   UNL     1       1.340  -5.283   3.712  0.00  0.00    +0.041 C 
BRANCH  17  19
ATOM     19  N   UNL     1       0.105  -6.803   2.247  0.00  0.00    -0.279 N 
ATOM     20  C   UNL     1       1.069  -7.297   1.414  0.00  0.00    +0.216 A 
ATOM     21  N   UNL     1       0.733  -8.520   1.086  0.00  0.00    -0.113 NA
ATOM     22  N   UNL     1      -0.477  -8.823   1.724  0.00  0.00    -0.121 NA
ATOM     23  C   UNL     1      -0.838  -7.776   2.425  0.00  0.00    +0.193 A 
ATOM     24  N   UNL     1       2.205  -6.620   0.989  0.00  0.00    -0.328 N 
ATOM     25  H   UNL     1       2.368  -5.711   1.287  0.00  0.00    +0.145 HD
ATOM     26  H   UNL     1       2.835  -7.056   0.394  0.00  0.00    +0.145 HD
BRANCH  23  27
ATOM     27  S   UNL     1      -2.288  -7.645   3.418  0.00  0.00    -0.089 S 
ATOM     28  C   UNL     1      -3.098  -9.256   3.227  0.00  0.00    +0.093 C 
ENDBRANCH  23  27
ENDBRANCH  17  19
ENDBRANCH   2  17
TORSDOF 5
