REMARK  Name = ZINC42945800
REMARK  6 active torsions:
REMARK  status: ('A' for Active; 'I' for Inactive)
REMARK    1  A    between atoms: C_3  and  S_22
REMARK    2  A    between atoms: C_6  and  C_7
REMARK    3  A    between atoms: C_7  and  C_8
REMARK    4  A    between atoms: C_8  and  N_9
REMARK    5  A    between atoms: N_12  and  C_13
REMARK    6  A    between atoms: S_22  and  N_25
REMARK                            x       y       z     vdW  Elec       q    Type
REMARK                         _______ _______ _______ _____ _____    ______ ____
ROOT
ATOM      1  N   UNL     1      -2.973  -1.833  -1.420  0.00  0.00    -0.299 N 
ATOM      2  C   UNL     1      -3.563  -2.171  -2.583  0.00  0.00    +0.300 C 
ATOM      3  O   UNL     1      -3.024  -1.904  -3.639  0.00  0.00    -0.253 OA
ATOM      4  N   UNL     1      -4.752  -2.807  -2.576  0.00  0.00    -0.288 N 
ATOM      5  H   UNL     1      -3.403  -2.046  -0.578  0.00  0.00    +0.150 HD
ATOM      6  H   UNL     1      -5.183  -3.020  -1.733  0.00  0.00    +0.151 HD
ENDROOT
BRANCH   4   7
ATOM      7  C   UNL     1      -5.394  -3.175  -3.840  0.00  0.00    +0.160 C 
ATOM      8  C   UNL     1      -6.868  -3.503  -3.592  0.00  0.00    +0.032 C 
ATOM      9  C   UNL     1      -7.050  -4.173  -2.242  0.00  0.00    +0.004 C 
ATOM     10  C   UNL     1      -6.421  -5.552  -2.153  0.00  0.00    +0.019 C 
ATOM     11  C   UNL     1      -4.896  -5.462  -2.230  0.00  0.00    +0.104 C 
ATOM     12  N   UNL     1      -4.495  -5.468  -3.646  0.00  0.00    -0.314 N 
ATOM     13  C   UNL     1      -4.715  -4.399  -4.418  0.00  0.00    +0.233 C 
ATOM     14  O   UNL     1      -4.377  -4.409  -5.583  0.00  0.00    -0.274 OA
ATOM     15  H   UNL     1      -4.066  -6.252  -4.022  0.00  0.00    +0.149 HD
ENDBRANCH   4   7
BRANCH   1  16
ATOM     16  C   UNL     1      -1.681  -1.142  -1.428  0.00  0.00    +0.110 C 
BRANCH  16  17
ATOM     17  C   UNL     1      -1.236  -0.876   0.011  0.00  0.00    +0.054 C 
BRANCH  17  23
ATOM     18  C   UNL     1       0.139   1.216  -0.022  0.00  0.00    +0.005 A 
ATOM     19  C   UNL     1       1.358   1.867  -0.029  0.00  0.00    +0.029 A 
ATOM     20  C   UNL     1       2.532   1.137  -0.012  0.00  0.00    +0.105 A 
ATOM     21  C   UNL     1       2.486  -0.244   0.013  0.00  0.00    +0.029 A 
ATOM     22  C   UNL     1       1.267  -0.895   0.022  0.00  0.00    +0.005 A 
ATOM     23  C   UNL     1       0.093  -0.166   0.003  0.00  0.00    -0.046 A 
BRANCH  20  24
ATOM     24  S   UNL     1       4.086   1.968  -0.022  0.00  0.00    +0.056 S 
ATOM     25  O   UNL     1       5.033   1.051  -0.553  0.00  0.00    -0.153 OA
ATOM     26  O   UNL     1       3.859   3.247  -0.598  0.00  0.00    -0.153 OA
BRANCH  24  27
ATOM     27  N   UNL     1       4.512   2.228   1.556  0.00  0.00    -0.204 NA
ATOM     28  H   UNL     1       3.929   1.931   2.272  0.00  0.00    +0.144 HD
ATOM     29  H   UNL     1       5.346   2.678   1.766  0.00  0.00    +0.144 HD
ENDBRANCH  24  27
ENDBRANCH  20  24
ENDBRANCH  17  23
ENDBRANCH  16  17
ENDBRANCH   1  16
TORSDOF 6
