REMARK  Name = ZINC19313848
REMARK  6 active torsions:
REMARK  status: ('A' for Active; 'I' for Inactive)
REMARK    1  A    between atoms: C_1  and  C_2
REMARK    2  A    between atoms: C_3  and  C_30
REMARK    3  A    between atoms: C_4  and  C_21
REMARK    4  A    between atoms: C_10  and  C_15
REMARK    5  A    between atoms: C_30  and  O_32
REMARK    6  A    between atoms: O_32  and  C_33
REMARK                            x       y       z     vdW  Elec       q    Type
REMARK                         _______ _______ _______ _____ _____    ______ ____
ROOT
ATOM      1  C   UNL     1      -2.151   9.390   0.150  0.00  0.00    +0.061 C 
ATOM      2  C   UNL     1      -2.922   8.136  -0.176  0.00  0.00    +0.016 C 
ATOM      3  C   UNL     1      -2.411   7.245  -1.043  0.00  0.00    +0.065 C 
ATOM      4  C   UNL     1      -3.145   5.981  -1.383  0.00  0.00    +0.092 C 
ATOM      5  C   UNL     1      -4.601   6.081  -1.000  0.00  0.00    +0.024 C 
ATOM      6  C   UNL     1      -5.023   7.025  -0.133  0.00  0.00    +0.016 C 
ATOM      7  N   UNL     1      -4.135   7.913   0.414  0.00  0.00    -0.321 N 
ATOM      8  C   UNL     1      -6.477   7.133   0.253  0.00  0.00    +0.059 C 
ATOM      9  C   UNL     1      -7.126   5.748   0.200  0.00  0.00    +0.032 C 
ATOM     10  C   UNL     1      -6.964   5.189  -1.217  0.00  0.00    +0.088 C 
ATOM     11  C   UNL     1      -5.502   5.163  -1.569  0.00  0.00    +0.162 C 
ATOM     12  O   UNL     1      -5.092   4.335  -2.358  0.00  0.00    -0.292 OA
ATOM     13  H   UNL     1      -4.405   8.448   1.336  0.00  0.00    +0.152 HD
ENDROOT
BRANCH   4  14
ATOM     14  C   UNL     1      -2.517   4.829  -0.643  0.00  0.00    -0.032 A 
ATOM     15  C   UNL     1      -2.505   4.822   0.740  0.00  0.00    +0.008 A 
ATOM     16  C   UNL     1      -1.929   3.768   1.424  0.00  0.00    +0.050 A 
ATOM     17  C   UNL     1      -1.361   2.715   0.724  0.00  0.00    +0.166 A 
ATOM     18  C   UNL     1      -1.373   2.722  -0.668  0.00  0.00    +0.167 A 
ATOM     19  C   UNL     1      -1.951   3.783  -1.347  0.00  0.00    +0.054 A 
ATOM     20  O   UNL     1      -0.760   1.588  -1.116  0.00  0.00    -0.453 OA
ATOM     21  C   UNL     1      -0.013   1.086   0.008  0.00  0.00    +0.466 C 
ATOM     22  O   UNL     1      -0.738   1.576   1.151  0.00  0.00    -0.453 OA
ENDBRANCH   4  14
BRANCH   9  23
ATOM     23  C   UNL     1      -8.591   5.862   0.535  0.00  0.00    -0.044 A 
ATOM     24  C   UNL     1      -9.418   6.651  -0.242  0.00  0.00    +0.004 A 
ATOM     25  C   UNL     1     -10.763   6.752   0.062  0.00  0.00    +0.000 A 
ATOM     26  C   UNL     1     -11.278   6.072   1.150  0.00  0.00    +0.000 A 
ATOM     27  C   UNL     1     -10.450   5.288   1.930  0.00  0.00    +0.000 A 
ATOM     28  C   UNL     1      -9.106   5.183   1.623  0.00  0.00    +0.004 A 
ENDBRANCH   9  23
BRANCH   3  29
ATOM     29  C   UNL     1      -1.158   7.503  -1.646  0.00  0.00    +0.337 C 
ATOM     30  O   UNL     1      -0.553   8.524  -1.379  0.00  0.00    -0.245 OA
BRANCH  29  31
ATOM     31  O   UNL     1      -0.634   6.617  -2.519  0.00  0.00    -0.465 OA
ATOM     32  C   UNL     1       0.635   6.942  -3.090  0.00  0.00    +0.280 C 
ENDBRANCH  29  31
ENDBRANCH   3  29
TORSDOF 4
