REMARK  Name = ZINC02067626
REMARK  9 active torsions:
REMARK  status: ('A' for Active; 'I' for Inactive)
REMARK    1  A    between atoms: C_1  and  C_2
REMARK    2  A    between atoms: C_3  and  N_15
REMARK    3  A    between atoms: N_6  and  C_9
REMARK    4  A    between atoms: N_7  and  C_8
REMARK    5  A    between atoms: N_15  and  P_16
REMARK    6  A    between atoms: P_16  and  O_18
REMARK    7  A    between atoms: P_16  and  O_26
REMARK    8  A    between atoms: O_18  and  C_19
REMARK    9  A    between atoms: O_26  and  C_27
REMARK                            x       y       z     vdW  Elec       q    Type
REMARK                         _______ _______ _______ _____ _____    ______ ____
ROOT
ATOM      1  P   UNL     1      -0.835   1.767  -1.323  0.00  0.00    +0.536 P 
ATOM      2  O   UNL     1      -2.237   1.303  -1.225  0.00  0.00    -0.213 OA
ENDROOT
BRANCH   1   3
ATOM      3  N   UNL     1       0.064   1.107  -0.062  0.00  0.00    -0.225 N 
ATOM      4  H   UNL     1       0.059   0.099  -0.103  0.00  0.00    +0.160 HD
BRANCH   3   7
ATOM      5  C   UNL     1       2.145   0.526   2.107  0.00  0.00    +0.067 C 
ATOM      6  C   UNL     1       2.324   1.370   0.872  0.00  0.00    +0.060 A 
ATOM      7  C   UNL     1       1.383   1.607  -0.067  0.00  0.00    +0.125 A 
ATOM      8  C   UNL     1       1.951   2.451  -1.055  0.00  0.00    +0.293 A 
ATOM      9  O   UNL     1       1.389   2.873  -2.050  0.00  0.00    -0.264 OA
ATOM     10  N   UNL     1       3.226   2.703  -0.696  0.00  0.00    -0.216 N 
ATOM     11  N   UNL     1       3.473   2.029   0.507  0.00  0.00    -0.282 N 
ATOM     12  C   UNL     1       4.736   2.032   1.250  0.00  0.00    +0.171 C 
BRANCH  10  13
ATOM     13  C   UNL     1       4.139   3.496  -1.399  0.00  0.00    +0.067 A 
ATOM     14  C   UNL     1       5.182   4.119  -0.726  0.00  0.00    +0.028 A 
ATOM     15  C   UNL     1       6.086   4.896  -1.424  0.00  0.00    +0.002 A 
ATOM     16  C   UNL     1       5.945   5.064  -2.790  0.00  0.00    +0.000 A 
ATOM     17  C   UNL     1       4.904   4.450  -3.462  0.00  0.00    +0.002 A 
ATOM     18  C   UNL     1       4.001   3.666  -2.771  0.00  0.00    +0.028 A 
ENDBRANCH  10  13
ENDBRANCH   3   7
ENDBRANCH   1   3
BRANCH   1  19
ATOM     19  O   UNL     1      -0.794   3.373  -1.229  0.00  0.00    -0.402 OA
BRANCH  19  20
ATOM     20  C   UNL     1      -1.489   3.884  -0.178  0.00  0.00    +0.133 A 
ATOM     21  C   UNL     1      -2.828   4.216  -0.327  0.00  0.00    +0.047 A 
ATOM     22  C   UNL     1      -3.533   4.730   0.744  0.00  0.00    +0.023 A 
ATOM     23  C   UNL     1      -2.903   4.924   1.960  0.00  0.00    +0.041 A 
ATOM     24  C   UNL     1      -1.567   4.598   2.108  0.00  0.00    +0.023 A 
ATOM     25  C   UNL     1      -0.859   4.079   1.042  0.00  0.00    +0.047 A 
ATOM     26 CL   UNL     1      -3.791   5.576   3.302  0.00  0.00    -0.084 Cl
ENDBRANCH  19  20
ENDBRANCH   1  19
BRANCH   1  27
ATOM     27  O   UNL     1      -0.211   1.295  -2.731  0.00  0.00    -0.402 OA
BRANCH  27  28
ATOM     28  C   UNL     1      -0.486   0.004  -3.052  0.00  0.00    +0.133 A 
ATOM     29  C   UNL     1       0.378  -1.008  -2.659  0.00  0.00    +0.047 A 
ATOM     30  C   UNL     1       0.095  -2.321  -2.983  0.00  0.00    +0.023 A 
ATOM     31  C   UNL     1      -1.044  -2.626  -3.707  0.00  0.00    +0.041 A 
ATOM     32  C   UNL     1      -1.904  -1.618  -4.104  0.00  0.00    +0.023 A 
ATOM     33  C   UNL     1      -1.627  -0.304  -3.778  0.00  0.00    +0.047 A 
ATOM     34 CL   UNL     1      -1.395  -4.276  -4.117  0.00  0.00    -0.084 Cl
ENDBRANCH  27  28
ENDBRANCH   1  27
TORSDOF 7
