REMARK  Name = ZINC43218231
REMARK  8 active torsions:
REMARK  status: ('A' for Active; 'I' for Inactive)
REMARK    1  A    between atoms: C_1  and  C_2
REMARK    2  A    between atoms: C_3  and  C_4
REMARK    3  A    between atoms: C_4  and  N_5
REMARK    4  A    between atoms: C_10  and  C_32
REMARK    5  A    between atoms: C_13  and  C_18
REMARK    6  A    between atoms: C_13  and  C_29
REMARK    7  A    between atoms: C_18  and  C_19
REMARK    8  A    between atoms: C_37  and  C_38
REMARK                            x       y       z     vdW  Elec       q    Type
REMARK                         _______ _______ _______ _____ _____    ______ ____
ROOT
ATOM      1  N   UNL     1       0.349   0.212   3.543  0.00  0.00    -0.238 N 
ATOM      2  C   UNL     1      -0.720   0.594   4.316  0.00  0.00    +0.225 C 
ATOM      3  O   UNL     1      -1.598   1.378   4.029  0.00  0.00    -0.275 OA
ATOM      4  C   UNL     1      -0.564  -0.147   5.546  0.00  0.00    +0.077 C 
ATOM      5  C   UNL     1      -1.348  -0.572   6.713  0.00  0.00    -0.026 C 
ATOM      6  N   UNL     1      -0.553  -1.698   7.305  0.00  0.00    +0.396 N 
ATOM      7  C   UNL     1       0.601  -1.966   6.386  0.00  0.00    +0.052 C 
ATOM      8  C   UNL     1       0.040  -1.511   5.022  0.00  0.00    +0.086 C 
ATOM      9  C   UNL     1       0.988  -0.891   4.034  0.00  0.00    +0.225 C 
ATOM     10  O   UNL     1       2.094  -1.288   3.735  0.00  0.00    -0.275 OA
ATOM     11  H   UNL     1      -0.210  -1.433   8.216  0.00  0.00    -0.083 HD
ATOM     12  H   UNL     1      -1.129  -2.522   7.380  0.00  0.00    -0.083 HD
ENDROOT
BRANCH   5  13
ATOM     13  C   UNL     1      -2.711  -1.054   6.286  0.00  0.00    -0.058 A 
ATOM     14  C   UNL     1      -2.958  -1.336   4.955  0.00  0.00    +0.002 A 
ATOM     15  C   UNL     1      -4.208  -1.778   4.563  0.00  0.00    +0.000 A 
ATOM     16  C   UNL     1      -5.210  -1.938   5.502  0.00  0.00    +0.000 A 
ATOM     17  C   UNL     1      -4.963  -1.657   6.832  0.00  0.00    +0.003 A 
ATOM     18  C   UNL     1      -3.711  -1.219   7.225  0.00  0.00    -0.049 A 
ATOM     19  C   UNL     1      -3.440  -0.918   8.676  0.00  0.00    +0.044 C 
ENDBRANCH   5  13
BRANCH   7  20
ATOM     20  C   UNL     1       0.930  -3.436   6.356  0.00  0.00    +0.347 C 
ATOM     21  O   UNL     1       0.298  -4.216   7.048  0.00  0.00    -0.248 OA
ATOM     22  O   UNL     1       1.827  -3.846   5.640  0.00  0.00    -0.248 OA
ENDBRANCH   7  20
BRANCH   1  23
ATOM     23  C   UNL     1       0.757   0.910   2.321  0.00  0.00    +0.143 C 
BRANCH  23  26
ATOM     24  C   UNL     1      -0.757   2.560   0.613  0.00  0.00    +0.035 C 
ATOM     25  C   UNL     1      -0.665   1.080   0.344  0.00  0.00    -0.033 C 
ATOM     26  C   UNL     1       0.039   0.313   1.139  0.00  0.00    -0.012 C 
ENDBRANCH  23  26
ENDBRANCH   1  23
BRANCH   7  27
ATOM     27  C   UNL     1       1.824  -1.144   6.798  0.00  0.00    +0.037 C 
BRANCH  27  28
ATOM     28  C   UNL     1       2.197  -1.475   8.220  0.00  0.00    -0.023 A 
ATOM     29  C   UNL     1       1.815  -0.809   9.322  0.00  0.00    +0.087 A 
ATOM     30  N   UNL     1       2.349  -1.402  10.434  0.00  0.00    -0.360 N 
ATOM     31  H   UNL     1       2.214  -1.099  11.345  0.00  0.00    +0.165 HD
ATOM     32  C   UNL     1       3.106  -2.492  10.066  0.00  0.00    +0.047 A 
ATOM     33  C   UNL     1       3.039  -2.589   8.664  0.00  0.00    +0.003 A 
ATOM     34  C   UNL     1       3.715  -3.617   8.004  0.00  0.00    +0.010 A 
ATOM     35  C   UNL     1       4.436  -4.527   8.724  0.00  0.00    +0.001 A 
ATOM     36  C   UNL     1       4.502  -4.437  10.108  0.00  0.00    +0.002 A 
ATOM     37  C   UNL     1       3.850  -3.425  10.779  0.00  0.00    +0.026 A 
ENDBRANCH  27  28
ENDBRANCH   7  27
TORSDOF 6
