REMARK  Name = ZINC10533831
REMARK  8 active torsions:
REMARK  status: ('A' for Active; 'I' for Inactive)
REMARK    1  A    between atoms: C_1  and  C_2
REMARK    2  A    between atoms: N_13  and  C_28
REMARK    3  A    between atoms: C_14  and  S_16
REMARK    4  A    between atoms: S_16  and  C_17
REMARK    5  A    between atoms: C_17  and  C_18
REMARK    6  A    between atoms: N_24  and  C_25
REMARK    7  A    between atoms: N_24  and  C_26
REMARK    8  A    between atoms: C_28  and  C_29
REMARK                            x       y       z     vdW  Elec       q    Type
REMARK                         _______ _______ _______ _____ _____    ______ ____
ROOT
ATOM      1  C   UNL     1     -10.037   0.665 -10.331  0.00  0.00    +0.008 C 
ATOM      2  C   UNL     1      -9.165   0.273  -9.136  0.00  0.00    -0.009 C 
ATOM      3  C   UNL     1      -9.950  -0.657  -8.206  0.00  0.00    +0.008 C 
ATOM      4  C   UNL     1      -9.013  -1.247  -7.151  0.00  0.00    +0.037 C 
ATOM      5  C   UNL     1      -8.264  -0.108  -6.465  0.00  0.00    -0.023 A 
ATOM      6  C   UNL     1      -8.184   1.109  -7.040  0.00  0.00    -0.004 A 
ATOM      7  S   UNL     1      -7.241   2.093  -5.907  0.00  0.00    -0.073 S 
ATOM      8  C   UNL     1      -6.954   0.862  -4.660  0.00  0.00    +0.117 A 
ATOM      9  C   UNL     1      -7.604  -0.275  -5.168  0.00  0.00    +0.076 A 
ATOM     10  C   UNL     1      -7.537  -1.449  -4.353  0.00  0.00    +0.263 A 
ATOM     11  O   UNL     1      -8.072  -2.483  -4.712  0.00  0.00    -0.267 OA
ATOM     12  N   UNL     1      -6.869  -1.396  -3.186  0.00  0.00    -0.285 N 
ATOM     13  C   UNL     1      -6.268  -0.246  -2.764  0.00  0.00    +0.173 A 
ATOM     14  N   UNL     1      -6.316   0.849  -3.496  0.00  0.00    -0.216 NA
ATOM     15  C   UNL     1      -8.769   1.533  -8.352  0.00  0.00    +0.046 C 
ENDROOT
BRANCH  13  16
ATOM     16  S   UNL     1      -5.412  -0.226  -1.224  0.00  0.00    -0.080 S 
BRANCH  16  17
ATOM     17  C   UNL     1      -4.841   1.492  -1.204  0.00  0.00    +0.153 C 
BRANCH  17  18
ATOM     18  C   UNL     1      -4.061   1.747   0.059  0.00  0.00    +0.146 A 
ATOM     19  N   UNL     1      -4.684   2.174   1.144  0.00  0.00    -0.199 NA
ATOM     20  C   UNL     1      -3.998   2.401   2.262  0.00  0.00    +0.217 A 
ATOM     21  N   UNL     1      -2.685   2.193   2.287  0.00  0.00    -0.181 NA
ATOM     22  C   UNL     1      -2.062   1.770   1.193  0.00  0.00    +0.222 A 
ATOM     23  N   UNL     1      -2.755   1.545   0.079  0.00  0.00    -0.198 NA
ATOM     24  N   UNL     1      -0.698   1.558   1.213  0.00  0.00    -0.306 N 
ATOM     25  C   UNL     1      -0.013   1.086   0.008  0.00  0.00    +0.132 C 
ATOM     26  C   UNL     1       0.063   1.806   2.440  0.00  0.00    +0.132 C 
ATOM     27  N   UNL     1      -4.649   2.846   3.394  0.00  0.00    -0.327 N 
ATOM     28  H   UNL     1      -5.607   2.994   3.375  0.00  0.00    +0.145 HD
ATOM     29  H   UNL     1      -4.148   3.011   4.208  0.00  0.00    +0.145 HD
ENDBRANCH  17  18
ENDBRANCH  16  17
ENDBRANCH  13  16
BRANCH  12  30
ATOM     30  C   UNL     1      -6.790  -2.596  -2.348  0.00  0.00    +0.159 C 
BRANCH  30  31
ATOM     31  C   UNL     1      -7.979  -2.625  -1.385  0.00  0.00    +0.138 C 
ATOM     32  C   UNL     1      -7.843  -3.824  -0.422  0.00  0.00    +0.035 C 
ATOM     33  C   UNL     1      -9.310  -4.323  -0.309  0.00  0.00    +0.031 C 
ATOM     34  C   UNL     1      -9.832  -4.025  -1.737  0.00  0.00    +0.160 C 
ATOM     35  O   UNL     1      -9.196  -2.796  -2.121  0.00  0.00    -0.375 OA
ENDBRANCH  30  31
ENDBRANCH  12  30
TORSDOF 5
