REMARK  Name = ZINC21882862
REMARK  5 active torsions:
REMARK  status: ('A' for Active; 'I' for Inactive)
REMARK    1  A    between atoms: C_1  and  C_2
REMARK    2  A    between atoms: C_7  and  S_8
REMARK    3  A    between atoms: S_8  and  N_11
REMARK    4  A    between atoms: C_14  and  C_17
REMARK    5  A    between atoms: C_22  and  N_25
REMARK                            x       y       z     vdW  Elec       q    Type
REMARK                         _______ _______ _______ _____ _____    ______ ____
ROOT
ATOM      1  N   UNL     1       0.685   0.130  -0.906  0.00  0.00    -0.177 NA
ATOM      2  C   UNL     1       0.133   0.356   0.437  0.00  0.00    +0.110 C 
ATOM      3  C   UNL     1      -0.358   1.804   0.530  0.00  0.00    +0.030 C 
ATOM      4  C   UNL     1       0.783   2.751   0.151  0.00  0.00    +0.078 C 
ATOM      5  C   UNL     1       1.216   2.480  -1.292  0.00  0.00    +0.030 C 
ATOM      6  C   UNL     1       1.725   1.040  -1.405  0.00  0.00    +0.110 C 
ENDROOT
BRANCH   4   7
ATOM      7  C   UNL     1       0.313   4.178   0.274  0.00  0.00    +0.219 C 
ATOM      8  O   UNL     1      -0.854   4.414   0.504  0.00  0.00    -0.275 OA
ATOM      9  N   UNL     1       1.190   5.191   0.128  0.00  0.00    -0.301 N 
ATOM     10  C   UNL     1       2.581   4.927  -0.263  0.00  0.00    +0.106 C 
ATOM     11  C   UNL     1       3.516   5.582   0.752  0.00  0.00    +0.004 C 
ATOM     12  C   UNL     1       3.169   7.068   0.877  0.00  0.00    -0.066 C 
ATOM     13  C   UNL     1       1.730   7.217   1.376  0.00  0.00    +0.004 C 
ATOM     14  C   UNL     1       0.774   6.581   0.363  0.00  0.00    +0.106 C 
BRANCH  12  15
ATOM     15  N   UNL     1       4.087   7.706   1.830  0.00  0.00    +0.382 N 
ATOM     16  C   UNL     1       3.723   9.111   2.050  0.00  0.00    -0.078 C 
ATOM     17  C   UNL     1       4.605   9.701   3.152  0.00  0.00    -0.019 C 
ATOM     18  C   UNL     1       6.075   9.595   2.735  0.00  0.00    -0.004 C 
ATOM     19  C   UNL     1       6.415   8.127   2.465  0.00  0.00    -0.019 C 
ATOM     20  C   UNL     1       5.480   7.582   1.383  0.00  0.00    -0.078 C 
ATOM     21  H   UNL     1       3.996   7.181   2.792  0.00  0.00    -0.081 HD
ENDBRANCH  12  15
ENDBRANCH   4   7
BRANCH   1  22
ATOM     22  S   UNL     1       0.146  -1.128  -1.839  0.00  0.00    +0.061 S 
ATOM     23  O   UNL     1       1.212  -1.473  -2.712  0.00  0.00    -0.153 OA
ATOM     24  O   UNL     1      -0.445  -2.067  -0.951  0.00  0.00    -0.153 OA
BRANCH  22  31
ATOM     25  C   UNL     1      -2.550  -0.262  -0.790  0.00  0.00    +0.046 C 
ATOM     26  C   UNL     1      -2.356  -0.133  -2.279  0.00  0.00    -0.022 A 
ATOM     27  C   UNL     1      -3.381   0.357  -3.068  0.00  0.00    +0.032 A 
ATOM     28  C   UNL     1      -3.200   0.475  -4.436  0.00  0.00    +0.076 A 
ATOM     29  C   UNL     1      -1.989   0.099  -5.014  0.00  0.00    +0.144 A 
ATOM     30  C   UNL     1      -0.966  -0.386  -4.217  0.00  0.00    +0.076 A 
ATOM     31  C   UNL     1      -1.154  -0.506  -2.852  0.00  0.00    +0.112 A 
ATOM     32  O   UNL     1      -1.824   0.217  -6.358  0.00  0.00    -0.481 OA
ATOM     33  C   UNL     1      -2.985   0.015  -7.168  0.00  0.00    +0.325 C 
ATOM     34  C   UNL     1      -4.146   0.782  -6.589  0.00  0.00    +0.255 C 
ATOM     35  O   UNL     1      -5.006   1.229  -7.319  0.00  0.00    -0.272 OA
ATOM     36  N   UNL     1      -4.226   0.971  -5.254  0.00  0.00    -0.280 N 
ATOM     37  H   UNL     1      -5.078   1.503  -4.806  0.00  0.00    +0.155 HD
ENDBRANCH  22  31
ENDBRANCH   1  22
TORSDOF 4
