REMARK  Name = ZINC12488376
REMARK  9 active torsions:
REMARK  status: ('A' for Active; 'I' for Inactive)
REMARK    1  A    between atoms: C_1  and  C_2
REMARK    2  A    between atoms: C_3  and  N_9
REMARK    3  A    between atoms: C_10  and  C_12
REMARK    4  A    between atoms: C_12  and  C_13
REMARK    5  A    between atoms: C_13  and  C_14
REMARK    6  A    between atoms: N_16  and  N_17
REMARK    7  A    between atoms: C_18  and  C_20
REMARK    8  A    between atoms: C_20  and  O_21
REMARK    9  A    between atoms: O_21  and  C_22
REMARK                            x       y       z     vdW  Elec       q    Type
REMARK                         _______ _______ _______ _____ _____    ______ ____
ROOT
ATOM      1  C   UNL     1      -1.479   7.648  -0.373  0.00  0.00    +0.230 C 
ATOM      2  O   UNL     1      -0.433   8.263  -0.380  0.00  0.00    -0.274 OA
ATOM      3  N   UNL     1      -2.650   8.309  -0.460  0.00  0.00    -0.234 N 
ATOM      4  H   UNL     1      -3.486   7.816  -0.455  0.00  0.00    +0.173 HD
ENDROOT
BRANCH   3   5
ATOM      5  N   UNL     1      -2.660   9.706  -0.558  0.00  0.00    -0.232 N 
ATOM      6  C   UNL     1      -3.832  10.367  -0.645  0.00  0.00    +0.267 C 
ATOM      7  O   UNL     1      -4.877   9.752  -0.638  0.00  0.00    -0.271 OA
ATOM      8  H   UNL     1      -1.825  10.198  -0.563  0.00  0.00    +0.173 HD
BRANCH   6   9
ATOM      9  C   UNL     1      -3.843  11.870  -0.750  0.00  0.00    +0.326 C 
BRANCH   9  10
ATOM     10  O   UNL     1      -5.193  12.332  -0.830  0.00  0.00    -0.482 OA
BRANCH  10  11
ATOM     11  C   UNL     1      -5.381  13.673  -0.930  0.00  0.00    +0.129 A 
ATOM     12  C   UNL     1      -4.307  14.519  -0.951  0.00  0.00    +0.046 A 
ATOM     13  C   UNL     1      -4.483  15.896  -1.054  0.00  0.00    +0.004 A 
ATOM     14  C   UNL     1      -5.728  16.441  -1.135  0.00  0.00    +0.009 A 
ATOM     15  C   UNL     1      -6.858  15.606  -1.116  0.00  0.00    -0.014 A 
ATOM     16  C   UNL     1      -6.684  14.203  -1.018  0.00  0.00    +0.024 A 
ATOM     17  C   UNL     1      -7.814  13.368  -0.994  0.00  0.00    +0.012 A 
ATOM     18  C   UNL     1      -9.057  13.916  -1.075  0.00  0.00    +0.001 A 
ATOM     19  C   UNL     1      -9.229  15.295  -1.177  0.00  0.00    +0.001 A 
ATOM     20  C   UNL     1      -8.158  16.135  -1.198  0.00  0.00    +0.008 A 
ENDBRANCH  10  11
ENDBRANCH   9  10
ENDBRANCH   6   9
ENDBRANCH   3   5
BRANCH   1  21
ATOM     21  C   UNL     1      -1.468   6.145  -0.268  0.00  0.00    +0.106 C 
BRANCH  21  22
ATOM     22  C   UNL     1      -0.022   5.650  -0.183  0.00  0.00    +0.105 C 
BRANCH  22  24
ATOM     23  N   UNL     1       1.161   3.486   0.010  0.00  0.00    -0.285 N 
ATOM     24  C   UNL     1      -0.011   4.147  -0.077  0.00  0.00    +0.218 C 
ATOM     25  O   UNL     1      -1.056   3.531  -0.071  0.00  0.00    -0.275 OA
ATOM     26  H   UNL     1       1.992   3.980   0.085  0.00  0.00    +0.155 HD
BRANCH  23  29
ATOM     27  C   UNL     1       3.359   2.153   1.228  0.00  0.00    +0.047 C 
ATOM     28  C   UNL     1       2.232   1.396   0.575  0.00  0.00    -0.011 A 
ATOM     29  C   UNL     1       1.178   2.087  -0.009  0.00  0.00    +0.038 A 
ATOM     30  C   UNL     1       0.141   1.387  -0.611  0.00  0.00    +0.023 A 
ATOM     31  C   UNL     1       0.160   0.005  -0.628  0.00  0.00    +0.003 A 
ATOM     32  C   UNL     1       1.210  -0.680  -0.047  0.00  0.00    +0.020 A 
ATOM     33  C   UNL     1       2.246   0.015   0.554  0.00  0.00    +0.046 A 
ATOM     34 CL   UNL     1       3.563  -0.850   1.283  0.00  0.00    -0.083 Cl
ENDBRANCH  23  29
ENDBRANCH  22  24
ENDBRANCH  21  22
ENDBRANCH   1  21
TORSDOF 8
