REMARK  Name = ZINC39664015
REMARK  8 active torsions:
REMARK  status: ('A' for Active; 'I' for Inactive)
REMARK    1  A    between atoms: C_1  and  O_2
REMARK    2  A    between atoms: O_2  and  C_3
REMARK    3  A    between atoms: C_6  and  C_9
REMARK    4  A    between atoms: C_9  and  C_11
REMARK    5  A    between atoms: C_9  and  N_36
REMARK    6  A    between atoms: C_11  and  N_12
REMARK    7  A    between atoms: C_13  and  C_15
REMARK    8  A    between atoms: C_26  and  C_28
REMARK                            x       y       z     vdW  Elec       q    Type
REMARK                         _______ _______ _______ _____ _____    ______ ____
ROOT
ATOM      1  C   UNL     1       6.418  -5.019  -6.057  0.00  0.00    +0.100 C 
ATOM      2  C   UNL     1       5.717  -6.391  -6.172  0.00  0.00    +0.121 C 
ATOM      3  N   UNL     1       6.777  -7.315  -6.639  0.00  0.00    -0.296 N 
ATOM      4  C   UNL     1       7.989  -6.890  -5.899  0.00  0.00    +0.115 C 
ATOM      5  C   UNL     1       7.909  -5.351  -5.877  0.00  0.00    -0.004 C 
ATOM      6  C   UNL     1       8.412  -4.815  -4.540  0.00  0.00    -0.010 C 
ATOM      7  C   UNL     1       9.910  -5.106  -4.410  0.00  0.00    -0.082 C 
ATOM      8  N   UNL     1      10.632  -4.469  -5.517  0.00  0.00    +0.379 N 
ATOM      9  C   UNL     1      10.209  -5.056  -6.794  0.00  0.00    -0.082 C 
ATOM     10  C   UNL     1       8.723  -4.763  -7.026  0.00  0.00    -0.010 C 
ATOM     11  C   UNL     1       6.665  -8.315  -7.535  0.00  0.00    +0.252 C 
ATOM     12  O   UNL     1       7.636  -8.991  -7.817  0.00  0.00    -0.270 OA
ATOM     13  H   UNL     1      10.434  -3.479  -5.521  0.00  0.00    -0.086 HD
ATOM     14  H   UNL     1      11.624  -4.610  -5.396  0.00  0.00    -0.086 HD
ENDROOT
BRANCH  11  15
ATOM     15  C   UNL     1       5.364  -8.590  -8.175  0.00  0.00    +0.107 A 
ATOM     16  C   UNL     1       5.023  -7.957  -9.376  0.00  0.00    +0.138 A 
ATOM     17  C   UNL     1       3.803  -8.221  -9.969  0.00  0.00    +0.039 A 
ATOM     18  C   UNL     1       2.920  -9.106  -9.379  0.00  0.00    +0.006 A 
ATOM     19  C   UNL     1       3.248  -9.736  -8.192  0.00  0.00    +0.039 A 
ATOM     20  C   UNL     1       4.467  -9.489  -7.588  0.00  0.00    +0.138 A 
ATOM     21  F   UNL     1       4.789 -10.109  -6.432  0.00  0.00    -0.205 F 
ATOM     22  F   UNL     1       5.884  -7.091  -9.953  0.00  0.00    -0.205 F 
ENDBRANCH  11  15
BRANCH   1  24
ATOM     23  N   UNL     1       5.892  -2.916  -4.865  0.00  0.00    -0.316 N 
ATOM     24  C   UNL     1       5.901  -4.263  -4.860  0.00  0.00    +0.218 C 
ATOM     25  O   UNL     1       5.491  -4.869  -3.892  0.00  0.00    -0.275 OA
ATOM     26  H   UNL     1       6.220  -2.432  -5.640  0.00  0.00    +0.149 HD
BRANCH  23  27
ATOM     27  C   UNL     1       5.389  -2.182  -3.702  0.00  0.00    +0.093 C 
BRANCH  27  28
ATOM     28  C   UNL     1       5.412  -0.680  -3.997  0.00  0.00    -0.020 C 
BRANCH  28  32
ATOM     29  C   UNL     1       9.455   0.615  -4.486  0.00  0.00    +0.120 A 
ATOM     30  C   UNL     1       8.664   0.372  -5.599  0.00  0.00    +0.046 A 
ATOM     31  C   UNL     1       7.357  -0.047  -5.438  0.00  0.00    +0.005 A 
ATOM     32  C   UNL     1       6.838  -0.224  -4.169  0.00  0.00    -0.059 A 
ATOM     33  C   UNL     1       7.624   0.018  -3.058  0.00  0.00    +0.005 A 
ATOM     34  C   UNL     1       8.933   0.431  -3.213  0.00  0.00    +0.046 A 
BRANCH  29  36
ATOM     35  C   UNL     1      11.211   1.194  -5.980  0.00  0.00    +0.277 C 
ATOM     36  O   UNL     1      10.741   1.026  -4.641  0.00  0.00    -0.495 OA
ENDBRANCH  29  36
ENDBRANCH  28  32
BRANCH  28  37
ATOM     37  N   UNL     1       4.796   0.048  -2.880  0.00  0.00    +0.385 N 
ATOM     38  C   UNL     1       4.804   1.507  -3.153  0.00  0.00    -0.078 C 
ATOM     39  C   UNL     1       3.679   2.046  -2.235  0.00  0.00    -0.020 C 
ATOM     40  C   UNL     1       2.608   0.933  -2.309  0.00  0.00    -0.020 C 
ATOM     41  C   UNL     1       3.372  -0.330  -2.747  0.00  0.00    -0.078 C 
ATOM     42  H   UNL     1       5.290  -0.149  -2.022  0.00  0.00    -0.081 HD
ENDBRANCH  28  37
ENDBRANCH  27  28
ENDBRANCH  23  27
ENDBRANCH   1  24
TORSDOF 7
