REMARK  Name = ZINC05543621
REMARK  12 active torsions:
REMARK  status: ('A' for Active; 'I' for Inactive)
REMARK    1  A    between atoms: N_5  and  C_6
REMARK    2  A    between atoms: C_6  and  C_7
REMARK    3  A    between atoms: C_7  and  N_82
REMARK    4  A    between atoms: C_8  and  N_82
REMARK    5  A    between atoms: N_16  and  C_28
REMARK    6  A    between atoms: N_19  and  C_20
REMARK    7  A    between atoms: C_20  and  C_21
REMARK    8  A    between atoms: C_21  and  N_85
REMARK    9  A    between atoms: C_22  and  N_85
REMARK   10  A    between atoms: C_28  and  C_29
REMARK   11  A    between atoms: C_29  and  N_88
REMARK   12  A    between atoms: C_30  and  N_88
REMARK                            x       y       z     vdW  Elec       q    Type
REMARK                         _______ _______ _______ _____ _____    ______ ____
ROOT
ATOM      1  C   UNL     1       0.566   5.758  -8.884  0.00  0.00    +0.202 A 
ATOM      2  N   UNL     1      -0.436   4.932  -9.050  0.00  0.00    -0.218 NA
ATOM      3  C   UNL     1      -0.412   3.995  -8.099  0.00  0.00    +0.168 A 
ATOM      4  C   UNL     1       0.684   4.260  -7.287  0.00  0.00    +0.151 A 
ATOM      5  N   UNL     1       1.288   5.386  -7.809  0.00  0.00    -0.326 N 
ATOM      6  C   UNL     1       0.947   3.412  -6.189  0.00  0.00    +0.282 A 
ATOM      7  O   UNL     1       1.902   3.623  -5.463  0.00  0.00    -0.265 OA
ATOM      8  N   UNL     1       0.129   2.365  -5.955  0.00  0.00    -0.261 N 
ATOM      9  C   UNL     1      -0.924   2.117  -6.752  0.00  0.00    +0.333 A 
ATOM     10  O   UNL     1      -1.637   1.161  -6.513  0.00  0.00    -0.246 OA
ATOM     11  N   UNL     1      -1.214   2.904  -7.806  0.00  0.00    -0.278 N 
ENDROOT
BRANCH   5  12
ATOM     12  C   UNL     1       2.487   6.050  -7.292  0.00  0.00    +0.104 C 
BRANCH  12  13
ATOM     13  C   UNL     1       3.733   5.367  -7.858  0.00  0.00    -0.060 C 
BRANCH  13  14
ATOM     14  N   UNL     1       4.935   6.042  -7.333  0.00  0.00    +0.382 N 
ATOM     15  H   UNL     1       4.939   5.979  -6.308  0.00  0.00    -0.085 HD
ATOM     16  H   UNL     1       4.920   7.029  -7.615  0.00  0.00    -0.085 HD
BRANCH  14  17
ATOM     17  C   UNL     1       6.154   5.403  -7.864  0.00  0.00    -0.072 C 
ATOM     18  C   UNL     1       6.523   4.202  -6.991  0.00  0.00    -0.016 C 
ATOM     19  C   UNL     1       7.792   3.546  -7.537  0.00  0.00    -0.002 C 
ATOM     20  C   UNL     1       8.938   4.559  -7.521  0.00  0.00    -0.000 C 
ATOM     21  C   UNL     1       8.569   5.760  -8.394  0.00  0.00    -0.002 C 
ATOM     22  C   UNL     1       7.300   6.417  -7.848  0.00  0.00    -0.016 C 
ENDBRANCH  14  17
ENDBRANCH  13  14
ENDBRANCH  12  13
ENDBRANCH   5  12
BRANCH  11  23
ATOM     23  C   UNL     1      -2.375   2.602  -8.646  0.00  0.00    +0.109 C 
BRANCH  23  24
ATOM     24  C   UNL     1      -1.954   1.664  -9.780  0.00  0.00    -0.060 C 
BRANCH  24  25
ATOM     25  N   UNL     1      -3.128   1.365 -10.621  0.00  0.00    +0.382 N 
ATOM     26  H   UNL     1      -3.496   2.241 -11.011  0.00  0.00    -0.085 HD
ATOM     27  H   UNL     1      -3.851   0.916 -10.047  0.00  0.00    -0.085 HD
BRANCH  25  28
ATOM     28  C   UNL     1      -2.751   0.462 -11.724  0.00  0.00    -0.072 C 
ATOM     29  C   UNL     1      -2.201   1.283 -12.892  0.00  0.00    -0.016 C 
ATOM     30  C   UNL     1      -1.818   0.345 -14.039  0.00  0.00    -0.002 C 
ATOM     31  C   UNL     1      -3.055  -0.430 -14.498  0.00  0.00    -0.000 C 
ATOM     32  C   UNL     1      -3.605  -1.251 -13.330  0.00  0.00    -0.002 C 
ATOM     33  C   UNL     1      -3.987  -0.314 -12.183  0.00  0.00    -0.016 C 
ENDBRANCH  25  28
ENDBRANCH  24  25
ENDBRANCH  23  24
ENDBRANCH  11  23
BRANCH   8  34
ATOM     34  C   UNL     1       0.397   1.481  -4.818  0.00  0.00    +0.111 C 
BRANCH  34  35
ATOM     35  C   UNL     1      -0.334   2.005  -3.580  0.00  0.00    -0.060 C 
BRANCH  35  36
ATOM     36  N   UNL     1      -0.059   1.110  -2.441  0.00  0.00    +0.382 N 
ATOM     37  H   UNL     1       0.952   1.087  -2.264  0.00  0.00    -0.085 HD
ATOM     38  H   UNL     1      -0.389   0.164  -2.666  0.00  0.00    -0.085 HD
BRANCH  36  39
ATOM     39  C   UNL     1      -0.753   1.593  -1.232  0.00  0.00    -0.072 C 
ATOM     40  C   UNL     1      -0.013   1.086   0.008  0.00  0.00    -0.016 C 
ATOM     41  C   UNL     1      -0.729   1.579   1.267  0.00  0.00    -0.002 C 
ATOM     42  C   UNL     1      -2.164   1.050   1.278  0.00  0.00    -0.000 C 
ATOM     43  C   UNL     1      -2.904   1.556   0.038  0.00  0.00    -0.002 C 
ATOM     44  C   UNL     1      -2.188   1.063  -1.221  0.00  0.00    -0.016 C 
ENDBRANCH  36  39
ENDBRANCH  35  36
ENDBRANCH  34  35
ENDBRANCH   8  34
TORSDOF 12
