REMARK  Name = ZINC08868866
REMARK  4 active torsions:
REMARK  status: ('A' for Active; 'I' for Inactive)
REMARK    1  A    between atoms: C_4  and  N_7
REMARK    2  A    between atoms: C_16  and  C_26
REMARK    3  A    between atoms: C_16  and  C_30
REMARK    4  A    between atoms: C_17  and  C_19
REMARK                            x       y       z     vdW  Elec       q    Type
REMARK                         _______ _______ _______ _____ _____    ______ ____
ROOT
ATOM      1  N   UNL     1       3.076   2.379   0.354  0.00  0.00    -0.250 N 
ATOM      2  C   UNL     1       3.261   3.711   0.072  0.00  0.00    +0.124 A 
ATOM      3  C   UNL     1       4.521   4.234   0.074  0.00  0.00    +0.098 A 
ATOM      4  C   UNL     1       5.607   3.393   0.372  0.00  0.00    +0.262 A 
ATOM      5  O   UNL     1       6.742   3.837   0.386  0.00  0.00    -0.267 OA
ATOM      6  N   UNL     1       5.383   2.092   0.645  0.00  0.00    -0.274 N 
ATOM      7  H   UNL     1       6.154   1.490   0.853  0.00  0.00    +0.173 HD
ATOM      8  C   UNL     1       4.133   1.594   0.638  0.00  0.00    +0.335 A 
ATOM      9  O   UNL     1       3.955   0.418   0.889  0.00  0.00    -0.246 OA
ATOM     10  C   UNL     1       4.748   5.685  -0.239  0.00  0.00    +0.264 C 
ATOM     11  C   UNL     1       2.340   5.895  -0.140  0.00  0.00    +0.109 C 
ATOM     12  N   UNL     1       2.188   4.524  -0.207  0.00  0.00    -0.286 N 
ATOM     13  H   UNL     1       1.332   4.138  -0.448  0.00  0.00    +0.155 HD
ATOM     14  N   UNL     1       3.512   6.539  -0.142  0.00  0.00    -0.348 N 
ATOM     15  H   UNL     1       3.566   7.562  -0.081  0.00  0.00    +0.162 HD
ENDROOT
BRANCH  11  16
ATOM     16  C   UNL     1       1.137   6.752  -0.059  0.00  0.00    +0.048 A 
ATOM     17  C   UNL     1      -0.135   6.176  -0.050  0.00  0.00    +0.014 A 
ATOM     18  C   UNL     1      -1.252   6.981   0.026  0.00  0.00    +0.001 A 
ATOM     19  C   UNL     1      -1.117   8.356   0.094  0.00  0.00    +0.003 A 
ATOM     20  C   UNL     1       0.138   8.935   0.086  0.00  0.00    +0.039 A 
ATOM     21  C   UNL     1       1.268   8.141   0.015  0.00  0.00    +0.134 A 
ATOM     22  F   UNL     1       2.495   8.706   0.011  0.00  0.00    -0.205 F 
ENDBRANCH  11  16
BRANCH   1  26
ATOM     23  C   UNL     1      -0.767   0.766   0.344  0.00  0.00    +0.000 A 
ATOM     24  C   UNL     1      -0.251   1.313   1.504  0.00  0.00    +0.002 A 
ATOM     25  C   UNL     1       1.022   1.848   1.511  0.00  0.00    +0.026 A 
ATOM     26  C   UNL     1       1.784   1.837   0.350  0.00  0.00    +0.053 A 
ATOM     27  C   UNL     1       1.263   1.288  -0.814  0.00  0.00    +0.026 A 
ATOM     28  C   UNL     1      -0.010   0.754  -0.814  0.00  0.00    +0.002 A 
ENDBRANCH   1  26
BRANCH  10  29
ATOM     29  C   UNL     1       5.310   5.809  -1.657  0.00  0.00    +0.426 C 
ATOM     30  F   UNL     1       5.563   7.155  -1.942  0.00  0.00    -0.167 F 
ATOM     31  F   UNL     1       6.500   5.080  -1.754  0.00  0.00    -0.167 F 
ATOM     32  F   UNL     1       4.379   5.306  -2.573  0.00  0.00    -0.167 F 
ENDBRANCH  10  29
BRANCH  10  33
ATOM     33  C   UNL     1       5.763   6.257   0.752  0.00  0.00    +0.426 C 
ATOM     34  F   UNL     1       5.447   5.824   2.045  0.00  0.00    -0.167 F 
ATOM     35  F   UNL     1       7.047   5.816   0.413  0.00  0.00    -0.167 F 
ATOM     36  F   UNL     1       5.723   7.655   0.706  0.00  0.00    -0.167 F 
ENDBRANCH  10  33
TORSDOF 4
