REMARK  Name = ZINC00707446
REMARK  6 active torsions:
REMARK  status: ('A' for Active; 'I' for Inactive)
REMARK    1  A    between atoms: C_1  and  C_2
REMARK    2  A    between atoms: C_18  and  C_20
REMARK    3  A    between atoms: C_23  and  C_26
REMARK    4  A    between atoms: C_26  and  C_27
REMARK    5  A    between atoms: C_26  and  C_28
REMARK    6  A    between atoms: C_26  and  C_29
REMARK                            x       y       z     vdW  Elec       q    Type
REMARK                         _______ _______ _______ _____ _____    ______ ____
ROOT
ATOM      1  C   UNL     1      -4.829   9.577   0.097  0.00  0.00    +0.109 C 
ATOM      2  C   UNL     1      -4.827   8.070   0.090  0.00  0.00    +0.215 C 
ATOM      3  O   UNL     1      -5.876   7.462   0.098  0.00  0.00    -0.276 OA
ATOM      4  N   UNL     1      -3.659   7.398   0.074  0.00  0.00    -0.270 N 
ATOM      5  C   UNL     1      -3.657   6.013   0.068  0.00  0.00    +0.143 A 
ATOM      6  C   UNL     1      -2.451   5.294   0.052  0.00  0.00    +0.125 A 
ATOM      7  C   UNL     1      -2.507   3.882   0.046  0.00  0.00    +0.094 A 
ATOM      8  C   UNL     1      -1.233   3.141   0.030  0.00  0.00    +0.044 A 
ATOM      9  C   UNL     1      -1.216   1.747   0.017  0.00  0.00    +0.014 A 
ATOM     10  C   UNL     1      -0.013   1.076   0.008  0.00  0.00    +0.001 A 
ATOM     11  C   UNL     1       1.179   1.784   0.000  0.00  0.00    +0.004 A 
ATOM     12  C   UNL     1       1.175   3.162   0.007  0.00  0.00    +0.047 A 
ATOM     13  C   UNL     1      -0.028   3.859   0.022  0.00  0.00    +0.141 A 
ATOM     14  O   UNL     1      -0.018   5.210   0.028  0.00  0.00    -0.422 OA
ATOM     15  C   UNL     1      -1.142   5.947   0.042  0.00  0.00    +0.350 A 
ATOM     16  O   UNL     1      -1.071   7.162   0.046  0.00  0.00    -0.244 OA
ATOM     17  N   UNL     1      -3.687   3.282   0.057  0.00  0.00    -0.226 NA
ATOM     18  C   UNL     1      -4.803   4.002   0.071  0.00  0.00    +0.162 A 
ATOM     19  N   UNL     1      -4.796   5.329   0.077  0.00  0.00    -0.212 NA
ATOM     20  H   UNL     1      -2.820   7.884   0.068  0.00  0.00    +0.156 HD
ENDROOT
BRANCH  18  21
ATOM     21  C   UNL     1      -6.106   3.296   0.082  0.00  0.00    +0.019 A 
ATOM     22  C   UNL     1      -6.147   1.902   0.070  0.00  0.00    +0.012 A 
ATOM     23  C   UNL     1      -7.364   1.250   0.084  0.00  0.00    +0.005 A 
ATOM     24  C   UNL     1      -8.541   1.977   0.100  0.00  0.00    -0.042 A 
ATOM     25  C   UNL     1      -8.507   3.360   0.107  0.00  0.00    +0.005 A 
ATOM     26  C   UNL     1      -7.296   4.023   0.097  0.00  0.00    +0.012 A 
BRANCH  24  27
ATOM     27  C   UNL     1      -9.866   1.259   0.109  0.00  0.00    -0.013 C 
ATOM     28  C   UNL     1     -10.670   1.656  -1.130  0.00  0.00    +0.015 C 
ATOM     29  C   UNL     1      -9.627  -0.252   0.099  0.00  0.00    +0.015 C 
ATOM     30  C   UNL     1     -10.646   1.644   1.368  0.00  0.00    +0.015 C 
ENDBRANCH  24  27
ENDBRANCH  18  21
TORSDOF 2
