REMARK  Name = ZINC09353792
REMARK  12 active torsions:
REMARK  status: ('A' for Active; 'I' for Inactive)
REMARK    1  A    between atoms: C_1  and  C_2
REMARK    2  A    between atoms: C_2  and  N_62
REMARK    3  A    between atoms: C_3  and  C_4
REMARK    4  A    between atoms: C_3  and  N_62
REMARK    5  A    between atoms: C_5  and  C_6
REMARK    6  A    between atoms: C_5  and  N_62
REMARK    7  A    between atoms: C_6  and  N_7
REMARK    8  A    between atoms: C_8  and  C_28
REMARK    9  A    between atoms: C_11  and  C_12
REMARK   10  A    between atoms: C_11  and  O_23
REMARK   11  A    between atoms: C_19  and  C_22
REMARK   12  A    between atoms: C_31  and  C_33
REMARK                            x       y       z     vdW  Elec       q    Type
REMARK                         _______ _______ _______ _____ _____    ______ ____
ROOT
ATOM      1  N   UNL     1       3.599   2.786  -0.742  0.00  0.00    -0.282 N 
ATOM      2  C   UNL     1       3.695   1.615   0.135  0.00  0.00    +0.180 C 
ATOM      3  C   UNL     1       4.196   2.113   1.470  0.00  0.00    +0.074 C 
ATOM      4  C   UNL     1       4.438   1.356   2.601  0.00  0.00    +0.133 C 
ATOM      5  C   UNL     1       4.366   3.498   1.332  0.00  0.00    +0.249 C 
ATOM      6  O   UNL     1       4.758   4.260   2.197  0.00  0.00    -0.282 OA
ATOM      7  C   UNL     1       3.984   3.877  -0.056  0.00  0.00    +0.288 C 
ATOM      8  O   UNL     1       4.016   5.005  -0.503  0.00  0.00    -0.266 OA
ENDROOT
BRANCH   4   9
ATOM      9  C   UNL     1       5.034   1.982   3.791  0.00  0.00    +0.017 A 
ATOM     10  C   UNL     1       6.179   2.779   3.672  0.00  0.00    +0.015 A 
ATOM     11  C   UNL     1       6.732   3.364   4.786  0.00  0.00    +0.046 A 
ATOM     12  C   UNL     1       6.167   3.161   6.047  0.00  0.00    +0.124 A 
ATOM     13  C   UNL     1       5.027   2.369   6.160  0.00  0.00    -0.002 A 
ATOM     14  C   UNL     1       4.463   1.782   5.055  0.00  0.00    +0.019 A 
ATOM     15  C   UNL     1       4.644   2.350   7.627  0.00  0.00    +0.083 C 
ATOM     16  C   UNL     1       5.467   3.535   8.186  0.00  0.00    +0.175 C 
ATOM     17  O   UNL     1       6.563   3.627   7.261  0.00  0.00    -0.488 OA
ATOM     18  C   UNL     1       4.639   4.822   8.176  0.00  0.00    +0.052 C 
ENDBRANCH   4   9
BRANCH   2  19
ATOM     19  C   UNL     1       2.339   0.979   0.297  0.00  0.00    +0.130 A 
ATOM     20  C   UNL     1       2.089  -0.343   0.336  0.00  0.00    +0.047 A 
ATOM     21  C   UNL     1       0.693  -0.491   0.498  0.00  0.00    +0.045 A 
ATOM     22  C   UNL     1       0.172   0.748   0.549  0.00  0.00    +0.102 A 
ATOM     23  O   UNL     1       1.174   1.635   0.426  0.00  0.00    -0.463 OA
ATOM     24  C   UNL     1      -1.288   1.085   0.710  0.00  0.00    +0.086 C 
ENDBRANCH   2  19
BRANCH   4  25
ATOM     25  O   UNL     1       4.128   0.042   2.612  0.00  0.00    -0.506 OA
ATOM     26  H   UNL     1       4.368  -0.349   3.501  0.00  0.00    +0.292 HD
ENDBRANCH   4  25
BRANCH   1  27
ATOM     27  C   UNL     1       3.154   2.771  -2.138  0.00  0.00    +0.091 C 
BRANCH  27  28
ATOM     28  C   UNL     1       1.639   2.975  -2.193  0.00  0.00    -0.060 C 
BRANCH  28  29
ATOM     29  N   UNL     1       1.230   3.107  -3.607  0.00  0.00    +0.380 N 
ATOM     30  H   UNL     1       1.914   3.695  -4.098  0.00  0.00    -0.082 HD
BRANCH  29  32
ATOM     31  C   UNL     1       0.988   1.959  -5.753  0.00  0.00    -0.017 C 
ATOM     32  C   UNL     1       1.193   1.776  -4.248  0.00  0.00    -0.082 C 
ENDBRANCH  29  32
BRANCH  29  33
ATOM     33  C   UNL     1      -0.100   3.746  -3.691  0.00  0.00    -0.082 C 
ATOM     34  C   UNL     1       0.064   5.250  -3.466  0.00  0.00    -0.017 C 
ENDBRANCH  29  33
ENDBRANCH  28  29
ENDBRANCH  27  28
ENDBRANCH   1  27
TORSDOF 8
