REMARK  Name = ZINC09127819
REMARK  10 active torsions:
REMARK  status: ('A' for Active; 'I' for Inactive)
REMARK    1  A    between atoms: C_1  and  C_2
REMARK    2  A    between atoms: C_2  and  O_3
REMARK    3  A    between atoms: O_3  and  C_4
REMARK    4  A    between atoms: C_4  and  C_6
REMARK    5  A    between atoms: C_7  and  C_20
REMARK    6  A    between atoms: C_12  and  C_14
REMARK    7  A    between atoms: C_20  and  S_21
REMARK    8  A    between atoms: S_21  and  C_22
REMARK    9  A    between atoms: C_25  and  C_28
REMARK   10  A    between atoms: N_26  and  N_27
REMARK                            x       y       z     vdW  Elec       q    Type
REMARK                         _______ _______ _______ _____ _____    ______ ____
ROOT
ATOM      1  C   UNL     1       8.159   3.117  -1.216  0.00  0.00    +0.079 C 
ATOM      2  C   UNL     1       7.494   2.899  -0.061  0.00  0.00    +0.034 C 
ATOM      3  N   UNL     1       8.164   2.650   1.102  0.00  0.00    -0.272 N 
ATOM      4  C   UNL     1       9.499   2.607   1.196  0.00  0.00    +0.304 C 
ATOM      5  O   UNL     1      10.006   2.378   2.277  0.00  0.00    -0.252 OA
ATOM      6  N   UNL     1      10.299   2.811   0.131  0.00  0.00    -0.288 N 
ATOM      7  C   UNL     1       9.674   3.088  -1.173  0.00  0.00    +0.144 C 
ATOM      8  H   UNL     1       7.644   2.495   1.906  0.00  0.00    +0.156 HD
ATOM      9  H   UNL     1      11.264   2.775   0.221  0.00  0.00    +0.151 HD
ENDROOT
BRANCH   7  10
ATOM     10  C   UNL     1      10.140   2.035  -2.146  0.00  0.00    -0.023 A 
ATOM     11  C   UNL     1      10.263   0.721  -1.735  0.00  0.00    +0.006 A 
ATOM     12  C   UNL     1      10.687  -0.245  -2.629  0.00  0.00    +0.000 A 
ATOM     13  C   UNL     1      10.998   0.105  -3.929  0.00  0.00    +0.000 A 
ATOM     14  C   UNL     1      10.880   1.420  -4.338  0.00  0.00    +0.000 A 
ATOM     15  C   UNL     1      10.451   2.385  -3.446  0.00  0.00    +0.006 A 
ENDBRANCH   7  10
BRANCH   1  16
ATOM     16  C   UNL     1       7.466   3.370  -2.423  0.00  0.00    +0.339 C 
ATOM     17  O   UNL     1       6.260   3.530  -2.410  0.00  0.00    -0.245 OA
BRANCH  16  18
ATOM     18  O   UNL     1       8.143   3.434  -3.588  0.00  0.00    -0.462 OA
BRANCH  18  20
ATOM     19  C   UNL     1       8.311   3.728  -5.981  0.00  0.00    +0.048 C 
ATOM     20  C   UNL     1       7.379   3.692  -4.768  0.00  0.00    +0.229 C 
ENDBRANCH  18  20
ENDBRANCH  16  18
ENDBRANCH   1  16
BRANCH   2  21
ATOM     21  C   UNL     1       5.987   2.924  -0.058  0.00  0.00    +0.128 C 
BRANCH  21  22
ATOM     22  S   UNL     1       5.412   4.532   0.543  0.00  0.00    -0.079 S 
BRANCH  22  23
ATOM     23  C   UNL     1       3.669   4.290   0.446  0.00  0.00    +0.209 A 
ATOM     24  N   UNL     1       3.054   3.205   0.035  0.00  0.00    -0.121 NA
ATOM     25  N   UNL     1       1.782   3.376   0.095  0.00  0.00    -0.132 NA
ATOM     26  C   UNL     1       1.511   4.570   0.542  0.00  0.00    +0.154 A 
ATOM     27  N   UNL     1       2.704   5.196   0.777  0.00  0.00    -0.228 N 
BRANCH  26  28
ATOM     28  C   UNL     1       0.138   5.154   0.755  0.00  0.00    +0.059 C 
ATOM     29  C   UNL     1      -0.619   5.176  -0.574  0.00  0.00    +0.011 C 
ATOM     30  C   UNL     1      -2.012   5.769  -0.357  0.00  0.00    +0.001 C 
ATOM     31  C   UNL     1      -2.780   4.913   0.652  0.00  0.00    +0.000 C 
ATOM     32  C   UNL     1      -2.023   4.891   1.981  0.00  0.00    +0.001 C 
ATOM     33  C   UNL     1      -0.629   4.298   1.765  0.00  0.00    +0.011 C 
ENDBRANCH  26  28
BRANCH  27  34
ATOM     34  N   UNL     1       2.890   6.465   1.248  0.00  0.00    -0.295 N 
ATOM     35  H   UNL     1       2.938   6.473   2.256  0.00  0.00    +0.163 HD
ATOM     36  H   UNL     1       3.715   6.883   0.844  0.00  0.00    +0.163 HD
ENDBRANCH  27  34
ENDBRANCH  22  23
ENDBRANCH  21  22
ENDBRANCH   2  21
TORSDOF 9
