REMARK  Name = ZINC12716353
REMARK  15 active torsions:
REMARK  status: ('A' for Active; 'I' for Inactive)
REMARK    1  A    between atoms: C_1  and  C_2
REMARK    2  A    between atoms: C_2  and  C_3
REMARK    3  A    between atoms: C_2  and  C_4
REMARK    4  A    between atoms: C_2  and  O_31
REMARK    5  A    between atoms: C_5  and  C_6
REMARK    6  A    between atoms: C_9  and  C_12
REMARK    7  A    between atoms: C_12  and  N_69
REMARK    8  A    between atoms: C_13  and  N_69
REMARK    9  A    between atoms: C_14  and  C_15
REMARK   10  A    between atoms: C_14  and  N_69
REMARK   11  A    between atoms: C_21  and  C_22
REMARK   12  A    between atoms: C_21  and  N_71
REMARK   13  A    between atoms: C_22  and  C_23
REMARK   14  A    between atoms: C_26  and  O_29
REMARK   15  A    between atoms: O_29  and  C_30
REMARK                            x       y       z     vdW  Elec       q    Type
REMARK                         _______ _______ _______ _____ _____    ______ ____
ROOT
ATOM      1  C   UNL     1       1.424  -4.909   9.881  0.00  0.00    -0.077 C 
ENDROOT
BRANCH   1   2
ATOM      2  C   UNL     1       1.838  -3.485   9.506  0.00  0.00    -0.044 C 
ATOM      3  C   UNL     1       1.469  -2.529  10.644  0.00  0.00    -0.002 C 
ATOM      4  C   UNL     1       1.831  -1.098  10.236  0.00  0.00    -0.018 C 
ATOM      5  C   UNL     1       1.099  -0.742   8.941  0.00  0.00    -0.079 C 
ATOM      6  C   UNL     1       1.105  -3.059   8.232  0.00  0.00    -0.077 C 
ATOM      7  N   UNL     1       1.516  -1.683   7.879  0.00  0.00    +0.380 N 
ATOM      8  H   UNL     1       2.538  -1.653   7.790  0.00  0.00    -0.082 HD
BRANCH   7   9
ATOM      9  C   UNL     1       0.910  -1.290   6.590  0.00  0.00    -0.074 C 
BRANCH   9  10
ATOM     10  C   UNL     1       1.527   0.036   6.140  0.00  0.00    +0.016 C 
BRANCH  10  11
ATOM     11  C   UNL     1       0.936   0.440   4.814  0.00  0.00    -0.049 A 
ATOM     12  C   UNL     1      -0.203   1.223   4.776  0.00  0.00    +0.007 A 
ATOM     13  C   UNL     1      -0.747   1.595   3.561  0.00  0.00    +0.046 A 
ATOM     14  C   UNL     1      -0.149   1.182   2.380  0.00  0.00    +0.120 A 
ATOM     15  C   UNL     1       0.991   0.392   2.421  0.00  0.00    +0.046 A 
ATOM     16  C   UNL     1       1.534   0.028   3.638  0.00  0.00    +0.007 A 
BRANCH  14  17
ATOM     17  O   UNL     1      -0.682   1.547   1.184  0.00  0.00    -0.495 OA
ATOM     18  C   UNL     1      -0.013   1.086   0.008  0.00  0.00    +0.277 C 
ENDBRANCH  14  17
ENDBRANCH  10  11
ENDBRANCH   9  10
ENDBRANCH   7   9
ENDBRANCH   1   2
BRANCH   1  20
ATOM     19  C   UNL     1       3.632  -5.489  10.687  0.00  0.00    -0.096 C 
ATOM     20  N   UNL     1       2.209  -5.340  11.057  0.00  0.00    +0.381 N 
ATOM     21  H   UNL     1       2.128  -4.626  11.791  0.00  0.00    -0.082 HD
BRANCH  20  22
ATOM     22  C   UNL     1       1.685  -6.622  11.573  0.00  0.00    -0.043 C 
BRANCH  22  26
ATOM     23  C   UNL     1       3.577  -7.482  15.310  0.00  0.00    +0.025 A 
ATOM     24  C   UNL     1       2.400  -6.733  15.276  0.00  0.00    +0.017 A 
ATOM     25  C   UNL     1       1.794  -6.459  14.067  0.00  0.00    +0.003 A 
ATOM     26  C   UNL     1       2.351  -6.925  12.890  0.00  0.00    -0.064 A 
ATOM     27  C   UNL     1       3.515  -7.673  12.917  0.00  0.00    +0.003 A 
ATOM     28  C   UNL     1       4.133  -7.949  14.119  0.00  0.00    +0.017 A 
BRANCH  23  30
ATOM     29  C   UNL     1       4.730  -8.006  17.587  0.00  0.00    -0.063 C 
ATOM     30  C   UNL     1       4.210  -7.770  16.561  0.00  0.00    -0.063 C 
BRANCH  29  32
ATOM     31  C   UNL     1       6.644  -9.131  18.627  0.00  0.00    +0.055 C 
ATOM     32  C   UNL     1       5.382  -8.302  18.874  0.00  0.00    +0.121 C 
ATOM     33  C   UNL     1       5.760  -6.991  19.567  0.00  0.00    +0.055 C 
BRANCH  32  34
ATOM     34  O   UNL     1       4.482  -9.038  19.705  0.00  0.00    -0.377 OA
ATOM     35  H   UNL     1       3.659  -8.572  19.903  0.00  0.00    +0.211 HD
ENDBRANCH  32  34
ENDBRANCH  29  32
ENDBRANCH  23  30
ENDBRANCH  22  26
ENDBRANCH  20  22
ENDBRANCH   1  20
TORSDOF 11
