REMARK  Name = ZINC22107891
REMARK  10 active torsions:
REMARK  status: ('A' for Active; 'I' for Inactive)
REMARK    1  A    between atoms: C_4  and  N_7
REMARK    2  A    between atoms: C_8  and  S_12
REMARK    3  A    between atoms: S_12  and  C_13
REMARK    4  A    between atoms: C_13  and  C_14
REMARK    5  A    between atoms: C_14  and  N_15
REMARK    6  A    between atoms: N_15  and  C_16
REMARK    7  A    between atoms: C_16  and  C_17
REMARK    8  A    between atoms: C_22  and  O_23
REMARK    9  A    between atoms: O_23  and  C_24
REMARK   10  A    between atoms: C_24  and  C_25
REMARK                            x       y       z     vdW  Elec       q    Type
REMARK                         _______ _______ _______ _____ _____    ______ ____
ROOT
ATOM      1  N   UNL     1      -1.482   3.731   4.281  0.00  0.00    +0.382 N 
ATOM      2  H   UNL     1      -1.913   4.724   4.474  0.00  0.00    -0.085 HD
ATOM      3  H   UNL     1      -0.843   3.776   3.387  0.00  0.00    -0.085 HD
ENDROOT
BRANCH   1   4
ATOM      4  C   UNL     1      -0.676   3.314   5.437  0.00  0.00    -0.071 C 
BRANCH   4   5
ATOM      5  C   UNL     1       0.450   4.324   5.665  0.00  0.00    +0.058 C 
BRANCH   5   6
ATOM      6  S   UNL     1       1.443   3.811   7.088  0.00  0.00    -0.086 S 
BRANCH   6   8
ATOM      7  N   UNL     1       3.647   5.256   8.006  0.00  0.00    -0.187 N 
ATOM      8  C   UNL     1       2.629   5.114   7.120  0.00  0.00    +0.214 A 
ATOM      9  N   UNL     1       2.692   6.135   6.293  0.00  0.00    -0.101 NA
ATOM     10  N   UNL     1       3.677   6.900   6.597  0.00  0.00    -0.022 NA
ATOM     11  N   UNL     1       4.308   6.436   7.621  0.00  0.00    -0.038 NA
BRANCH   7  15
ATOM     12  C   UNL     1       4.610   2.736  11.184  0.00  0.00    +0.000 A 
ATOM     13  C   UNL     1       5.615   3.373  10.479  0.00  0.00    +0.002 A 
ATOM     14  C   UNL     1       5.299   4.208   9.426  0.00  0.00    +0.028 A 
ATOM     15  C   UNL     1       3.971   4.409   9.075  0.00  0.00    +0.070 A 
ATOM     16  C   UNL     1       2.964   3.772   9.788  0.00  0.00    +0.028 A 
ATOM     17  C   UNL     1       3.287   2.933  10.837  0.00  0.00    +0.002 A 
ENDBRANCH   7  15
ENDBRANCH   6   8
ENDBRANCH   5   6
ENDBRANCH   4   5
ENDBRANCH   1   4
BRANCH   1  18
ATOM     18  C   UNL     1      -2.575   2.782   4.032  0.00  0.00    -0.043 C 
BRANCH  18  19
ATOM     19  C   UNL     1      -3.377   3.242   2.842  0.00  0.00    -0.022 A 
ATOM     20  C   UNL     1      -4.570   3.914   3.030  0.00  0.00    +0.020 A 
ATOM     21  C   UNL     1      -5.310   4.330   1.939  0.00  0.00    +0.018 A 
ATOM     22  C   UNL     1      -4.855   4.080   0.656  0.00  0.00    +0.019 A 
ATOM     23  C   UNL     1      -3.661   3.413   0.464  0.00  0.00    +0.047 A 
ATOM     24  C   UNL     1      -2.917   2.995   1.558  0.00  0.00    +0.122 A 
ATOM     25 BR   UNL     1      -6.945   5.243   2.199  0.00  0.00    -0.050 Br
BRANCH  24  26
ATOM     26  O   UNL     1      -1.742   2.338   1.370  0.00  0.00    -0.487 OA
BRANCH  26  27
ATOM     27  C   UNL     1      -1.332   2.113   0.020  0.00  0.00    +0.264 C 
BRANCH  27  28
ATOM     28  C   UNL     1      -0.017   1.378   0.010  0.00  0.00    -0.010 A 
ATOM     29  C   UNL     1       1.170   2.087   0.002  0.00  0.00    +0.010 A 
ATOM     30  C   UNL     1       2.377   1.414  -0.013  0.00  0.00    +0.039 A 
ATOM     31  C   UNL     1       2.397   0.029  -0.021  0.00  0.00    +0.123 A 
ATOM     32  C   UNL     1       1.208  -0.679  -0.013  0.00  0.00    +0.039 A 
ATOM     33  C   UNL     1       0.002  -0.004   0.002  0.00  0.00    +0.010 A 
ATOM     34  F   UNL     1       3.577  -0.630  -0.035  0.00  0.00    -0.205 F 
ENDBRANCH  27  28
ENDBRANCH  26  27
ENDBRANCH  24  26
ENDBRANCH  18  19
ENDBRANCH   1  18
TORSDOF 10
