REMARK  Name = ZINC06510148
REMARK  7 active torsions:
REMARK  status: ('A' for Active; 'I' for Inactive)
REMARK    1  A    between atoms: C_1  and  C_2
REMARK    2  A    between atoms: C_2  and  O_3
REMARK    3  A    between atoms: O_3  and  C_4
REMARK    4  A    between atoms: C_4  and  C_6
REMARK    5  A    between atoms: C_7  and  C_21
REMARK    6  A    between atoms: C_12  and  C_14
REMARK    7  A    between atoms: C_21  and  N_56
REMARK                            x       y       z     vdW  Elec       q    Type
REMARK                         _______ _______ _______ _____ _____    ______ ____
ROOT
ATOM      1  C   UNL     1      -0.621   1.755   3.573  0.00  0.00    +0.076 C 
ATOM      2  C   UNL     1      -0.315   1.173   4.753  0.00  0.00    +0.008 C 
ATOM      3  N   UNL     1      -1.042   1.436   5.878  0.00  0.00    -0.274 N 
ATOM      4  C   UNL     1      -2.097   2.261   5.905  0.00  0.00    +0.304 C 
ATOM      5  O   UNL     1      -2.685   2.429   6.955  0.00  0.00    -0.252 OA
ATOM      6  N   UNL     1      -2.526   2.911   4.805  0.00  0.00    -0.288 N 
ATOM      7  C   UNL     1      -1.805   2.700   3.539  0.00  0.00    +0.143 C 
ATOM      8  H   UNL     1      -0.783   0.998   6.704  0.00  0.00    +0.156 HD
ATOM      9  H   UNL     1      -3.292   3.505   4.847  0.00  0.00    +0.151 HD
ENDROOT
BRANCH   7  10
ATOM     10  C   UNL     1      -2.789   2.175   2.526  0.00  0.00    -0.022 A 
ATOM     11  C   UNL     1      -3.639   1.137   2.861  0.00  0.00    +0.007 A 
ATOM     12  C   UNL     1      -4.546   0.659   1.934  0.00  0.00    +0.020 A 
ATOM     13  C   UNL     1      -4.595   1.211   0.666  0.00  0.00    +0.041 A 
ATOM     14  C   UNL     1      -3.740   2.245   0.330  0.00  0.00    +0.020 A 
ATOM     15  C   UNL     1      -2.838   2.727   1.259  0.00  0.00    +0.007 A 
ATOM     16 CL   UNL     1      -5.728   0.606  -0.501  0.00  0.00    -0.084 Cl
ENDBRANCH   7  10
BRANCH   1  17
ATOM     17  C   UNL     1       0.135   1.487   2.408  0.00  0.00    +0.339 C 
ATOM     18  O   UNL     1       1.148   0.817   2.480  0.00  0.00    -0.245 OA
BRANCH  17  19
ATOM     19  O   UNL     1      -0.268   1.975   1.216  0.00  0.00    -0.462 OA
BRANCH  19  21
ATOM     20  C   UNL     1      -0.067   2.299  -1.171  0.00  0.00    +0.048 C 
ATOM     21  C   UNL     1       0.544   1.665   0.081  0.00  0.00    +0.229 C 
ENDBRANCH  19  21
ENDBRANCH  17  19
ENDBRANCH   1  17
BRANCH   2  22
ATOM     22  C   UNL     1       0.852   0.222   4.830  0.00  0.00    -0.026 C 
BRANCH  22  30
ATOM     23  C   UNL     1       1.961   1.908   6.167  0.00  0.00    -0.078 C 
ATOM     24  C   UNL     1       3.329   2.475   6.542  0.00  0.00    -0.019 C 
ATOM     25  C   UNL     1       3.724   3.560   5.534  0.00  0.00    -0.002 C 
ATOM     26  C   UNL     1       4.138   2.889   4.223  0.00  0.00    -0.000 C 
ATOM     27  C   UNL     1       5.029   1.685   4.529  0.00  0.00    -0.002 C 
ATOM     28  C   UNL     1       4.299   0.397   4.151  0.00  0.00    -0.019 C 
ATOM     29  C   UNL     1       3.240   0.084   5.212  0.00  0.00    -0.078 C 
ATOM     30  N   UNL     1       2.096   1.000   5.009  0.00  0.00    +0.383 N 
ATOM     31  H   UNL     1       2.264   1.560   4.165  0.00  0.00    -0.081 HD
ENDBRANCH  22  30
ENDBRANCH   2  22
TORSDOF 6
