REMARK  Name = ZINC35420685
REMARK  4 active torsions:
REMARK  status: ('A' for Active; 'I' for Inactive)
REMARK    1  A    between atoms: C_1  and  N_2
REMARK    2  A    between atoms: C_4  and  C_26
REMARK    3  A    between atoms: C_6  and  C_18
REMARK    4  A    between atoms: C_18  and  C_20
REMARK                            x       y       z     vdW  Elec       q    Type
REMARK                         _______ _______ _______ _____ _____    ______ ____
ROOT
ATOM      1  C   UNL     1       1.177   1.292   1.306  0.00  0.00    +0.106 C 
ATOM      2  N   UNL     1       0.760   0.020   0.701  0.00  0.00    -0.287 NA
ATOM      3  C   UNL     1      -0.696   0.013   0.432  0.00  0.00    +0.094 C 
ATOM      4  C   UNL     1      -1.133  -1.457   0.660  0.00  0.00    +0.046 C 
ATOM      5  C   UNL     1      -0.236  -1.871   1.857  0.00  0.00    +0.103 C 
ATOM      6  C   UNL     1       1.071  -1.109   1.584  0.00  0.00    +0.136 C 
ATOM      7  C   UNL     1       1.698  -0.645   2.870  0.00  0.00    +0.004 A 
ATOM      8  C   UNL     1       1.277   0.195   3.877  0.00  0.00    +0.008 A 
ATOM      9  C   UNL     1       2.097   0.435   4.966  0.00  0.00    +0.000 A 
ATOM     10  C   UNL     1       3.338  -0.170   5.039  0.00  0.00    +0.002 A 
ATOM     11  C   UNL     1       3.764  -1.012   4.033  0.00  0.00    +0.023 A 
ATOM     12  C   UNL     1       2.945  -1.258   2.933  0.00  0.00    +0.039 A 
ATOM     13  N   UNL     1       3.148  -2.054   1.804  0.00  0.00    -0.283 N 
ATOM     14  C   UNL     1       2.098  -2.022   0.963  0.00  0.00    +0.243 C 
ATOM     15  O   UNL     1       1.997  -2.613  -0.091  0.00  0.00    -0.273 OA
ATOM     16  H   UNL     1       3.953  -2.572   1.645  0.00  0.00    +0.155 HD
ENDROOT
BRANCH   4  17
ATOM     17  C   UNL     1      -2.593  -1.535   1.026  0.00  0.00    -0.042 A 
ATOM     18  C   UNL     1      -3.254  -0.407   1.477  0.00  0.00    +0.004 A 
ATOM     19  C   UNL     1      -4.593  -0.478   1.812  0.00  0.00    +0.000 A 
ATOM     20  C   UNL     1      -5.271  -1.677   1.698  0.00  0.00    +0.000 A 
ATOM     21  C   UNL     1      -4.611  -2.805   1.246  0.00  0.00    +0.000 A 
ATOM     22  C   UNL     1      -3.273  -2.732   0.906  0.00  0.00    +0.004 A 
ENDBRANCH   4  17
BRANCH   5  23
ATOM     23  C   UNL     1      -0.850  -1.433   3.162  0.00  0.00    +0.169 C 
ATOM     24  O   UNL     1      -1.439  -0.374   3.229  0.00  0.00    -0.292 OA
BRANCH  23  25
ATOM     25  C   UNL     1      -0.737  -2.289   4.353  0.00  0.00    +0.018 A 
ATOM     26  C   UNL     1      -0.054  -3.507   4.281  0.00  0.00    +0.011 A 
ATOM     27  C   UNL     1       0.049  -4.303   5.402  0.00  0.00    +0.001 A 
ATOM     28  C   UNL     1      -0.522  -3.900   6.596  0.00  0.00    +0.000 A 
ATOM     29  C   UNL     1      -1.199  -2.695   6.676  0.00  0.00    +0.001 A 
ATOM     30  C   UNL     1      -1.306  -1.885   5.566  0.00  0.00    +0.011 A 
ENDBRANCH  23  25
ENDBRANCH   5  23
TORSDOF 3
