REMARK  Name = ZINC05463438
REMARK  7 active torsions:
REMARK  status: ('A' for Active; 'I' for Inactive)
REMARK    1  A    between atoms: C_1  and  C_2
REMARK    2  A    between atoms: C_2  and  O_3
REMARK    3  A    between atoms: O_3  and  C_4
REMARK    4  A    between atoms: C_6  and  C_12
REMARK    5  A    between atoms: C_9  and  O_10
REMARK    6  A    between atoms: N_13  and  N_14
REMARK    7  A    between atoms: C_15  and  C_16
REMARK                            x       y       z     vdW  Elec       q    Type
REMARK                         _______ _______ _______ _____ _____    ______ ____
ROOT
ATOM      1  C   UNL     1       3.677   2.183  -0.176  0.00  0.00    +0.144 C 
ATOM      2  N   UNL     1       4.811   1.532  -0.140  0.00  0.00    -0.155 NA
ENDROOT
BRANCH   1   5
ATOM      3  C   UNL     1       0.002   1.439  -0.301  0.00  0.00    +0.162 A 
ATOM      4  C   UNL     1       1.192   2.139  -0.260  0.00  0.00    +0.060 A 
ATOM      5  C   UNL     1       2.407   1.444  -0.221  0.00  0.00    +0.012 A 
ATOM      6  C   UNL     1       2.409   0.044  -0.225  0.00  0.00    +0.030 A 
ATOM      7  C   UNL     1       1.215  -0.645  -0.267  0.00  0.00    +0.065 A 
ATOM      8  C   UNL     1       0.012   0.045  -0.305  0.00  0.00    +0.160 A 
ATOM      9 BR   UNL     1       4.046  -0.901  -0.173  0.00  0.00    -0.050 Br
BRANCH   8  10
ATOM     10  O   UNL     1      -1.161  -0.640  -0.346  0.00  0.00    -0.503 OA
ATOM     11  H   UNL     1      -1.471  -0.836  -1.241  0.00  0.00    +0.292 HD
ENDBRANCH   8  10
BRANCH   3  12
ATOM     12  O   UNL     1      -1.180   2.111  -0.344  0.00  0.00    -0.489 OA
BRANCH  12  14
ATOM     13  C   UNL     1      -2.532   4.113  -0.390  0.00  0.00    +0.048 C 
ATOM     14  C   UNL     1      -1.115   3.538  -0.338  0.00  0.00    +0.226 C 
ENDBRANCH  12  14
ENDBRANCH   3  12
ENDBRANCH   1   5
BRANCH   2  15
ATOM     15  N   UNL     1       5.925   2.180  -0.100  0.00  0.00    -0.132 NA
ATOM     16  C   UNL     1       7.065   1.526  -0.064  0.00  0.00    +0.171 C 
ATOM     17  N   UNL     1       7.069   0.146  -0.068  0.00  0.00    -0.340 N 
ATOM     18  H   UNL     1       6.234  -0.342   0.008  0.00  0.00    +0.144 HD
ATOM     19  H   UNL     1       7.907  -0.336  -0.146  0.00  0.00    +0.144 HD
BRANCH  16  20
ATOM     20  C   UNL     1       8.341   2.268  -0.018  0.00  0.00    +0.189 A 
ATOM     21  C   UNL     1       8.562   3.729   0.093  0.00  0.00    +0.191 A 
ATOM     22  N   UNL     1       9.871   3.821   0.089  0.00  0.00    -0.033 NA
ATOM     23  O   UNL     1      10.353   2.717  -0.007  0.00  0.00    -0.240 OA
ATOM     24  N   UNL     1       9.571   1.798  -0.073  0.00  0.00    -0.044 NA
ATOM     25  N   UNL     1       7.620   4.745   0.182  0.00  0.00    -0.339 N 
ATOM     26  H   UNL     1       6.677   4.528   0.250  0.00  0.00    +0.144 HD
ATOM     27  H   UNL     1       7.905   5.673   0.176  0.00  0.00    +0.144 HD
ENDBRANCH  16  20
ENDBRANCH   2  15
TORSDOF 6
