REMARK  Name = ZINC43601211
REMARK  3 active torsions:
REMARK  status: ('A' for Active; 'I' for Inactive)
REMARK    1  A    between atoms: C_3  and  S_11
REMARK    2  A    between atoms: C_6  and  N_7
REMARK    3  A    between atoms: S_11  and  N_14
REMARK                            x       y       z     vdW  Elec       q    Type
REMARK                         _______ _______ _______ _____ _____    ______ ____
ROOT
ATOM      1  S   UNL     1       3.890   2.317  -0.024  0.00  0.00    +0.064 S 
ATOM      2  O   UNL     1       4.688   1.761  -1.061  0.00  0.00    -0.153 OA
ATOM      3  O   UNL     1       3.541   3.694   0.013  0.00  0.00    -0.153 OA
ENDROOT
BRANCH   1   4
ATOM      4  N   UNL     1       4.668   1.987   1.400  0.00  0.00    -0.178 NA
ATOM      5  C   UNL     1       4.436   2.799   2.565  0.00  0.00    +0.107 C 
ATOM      6  C   UNL     1       5.389   4.001   2.758  0.00  0.00    -0.002 C 
ATOM      7  C   UNL     1       6.841   3.588   2.420  0.00  0.00    -0.081 C 
ATOM      8  N   UNL     1       7.092   2.248   2.893  0.00  0.00    +0.380 N 
ATOM      9  C   UNL     1       6.963   1.412   1.704  0.00  0.00    -0.065 C 
ATOM     10  C   UNL     1       5.622   0.831   1.499  0.00  0.00    +0.090 C 
ATOM     11  H   UNL     1       8.023   2.177   3.274  0.00  0.00    -0.086 HD
ATOM     12  H   UNL     1       6.406   1.984   3.585  0.00  0.00    -0.086 HD
ENDBRANCH   1   4
BRANCH   1  15
ATOM     13  C   UNL     1      -0.017   1.378   0.010  0.00  0.00    +0.035 A 
ATOM     14  C   UNL     1       1.171   2.087   0.002  0.00  0.00    +0.034 A 
ATOM     15  C   UNL     1       2.377   1.414  -0.013  0.00  0.00    +0.141 A 
ATOM     16  C   UNL     1       2.397   0.029  -0.021  0.00  0.00    +0.152 A 
ATOM     17  C   UNL     1       1.208  -0.679  -0.013  0.00  0.00    +0.073 A 
ATOM     18  C   UNL     1       0.002  -0.004   0.002  0.00  0.00    +0.129 A 
ATOM     19  F   UNL     1       3.577  -0.630  -0.037  0.00  0.00    -0.203 F 
BRANCH  18  20
ATOM     20  N   UNL     1      -1.270  -0.761   0.011  0.00  0.00    +0.057 N 
ATOM     21  O   UNL     1      -2.325  -0.171   0.024  0.00  0.00    -0.126 OA
ATOM     22  O   UNL     1      -1.254  -1.970   0.004  0.00  0.00    -0.126 OA
ENDBRANCH  18  20
ENDBRANCH   1  15
TORSDOF 3
