REMARK  Name = ZINC09591113
REMARK  7 active torsions:
REMARK  status: ('A' for Active; 'I' for Inactive)
REMARK    1  A    between atoms: C_1  and  C_2
REMARK    2  A    between atoms: C_5  and  C_8
REMARK    3  A    between atoms: C_13  and  S_16
REMARK    4  A    between atoms: S_16  and  C_17
REMARK    5  A    between atoms: C_17  and  C_18
REMARK    6  A    between atoms: C_23  and  C_26
REMARK    7  A    between atoms: C_29  and  C_32
REMARK                            x       y       z     vdW  Elec       q    Type
REMARK                         _______ _______ _______ _____ _____    ______ ____
ROOT
ATOM      1  C   UNL     1       1.764   6.178  -0.234  0.00  0.00    +0.173 C 
ENDROOT
BRANCH   1   2
ATOM      2  C   UNL     1       1.012   7.483  -0.258  0.00  0.00    +0.230 C 
ATOM      3  O   UNL     1      -0.201   7.485  -0.217  0.00  0.00    -0.274 OA
ATOM      4  N   UNL     1       1.685   8.648  -0.325  0.00  0.00    -0.253 N 
ATOM      5  C   UNL     1       0.988   9.859  -0.348  0.00  0.00    +0.230 A 
ATOM      6  N   UNL     1       1.641  10.996  -0.408  0.00  0.00    -0.205 NA
ATOM      7  C   UNL     1       0.946  12.128  -0.433  0.00  0.00    +0.130 A 
ATOM      8  S   UNL     1      -0.684  11.540  -0.355  0.00  0.00    +0.035 S 
ATOM      9  N   UNL     1      -0.329   9.866  -0.303  0.00  0.00    -0.174 NA
ATOM     10  H   UNL     1       2.785   8.646  -0.362  0.00  0.00    +0.158 HD
BRANCH   7  11
ATOM     11  C   UNL     1       1.434  13.523  -0.502  0.00  0.00    +0.009 A 
ATOM     12  C   UNL     1       2.804  13.784  -0.553  0.00  0.00    +0.011 A 
ATOM     13  C   UNL     1       3.252  15.087  -0.623  0.00  0.00    +0.004 A 
ATOM     14  C   UNL     1       2.348  16.134  -0.632  0.00  0.00    -0.050 A 
ATOM     15  C   UNL     1       0.989  15.882  -0.576  0.00  0.00    +0.004 A 
ATOM     16  C   UNL     1       0.527  14.583  -0.512  0.00  0.00    +0.011 A 
ATOM     17  C   UNL     1       2.845  17.555  -0.702  0.00  0.00    +0.044 C 
ENDBRANCH   7  11
ENDBRANCH   1   2
BRANCH   1  18
ATOM     18  S   UNL     1       0.585   4.802  -0.142  0.00  0.00    -0.076 S 
BRANCH  18  24
ATOM     19  C   UNL     1      -0.016   1.343   0.009  0.00  0.00    +0.065 A 
ATOM     20  C   UNL     1       0.003  -0.003   0.060  0.00  0.00    +0.075 A 
ATOM     21  S   UNL     1       1.754  -0.354   0.014  0.00  0.00    -0.055 S 
ATOM     22  C   UNL     1       2.335   1.322  -0.069  0.00  0.00    +0.201 A 
ATOM     23  N   UNL     1       1.169   2.054  -0.057  0.00  0.00    -0.264 N 
ATOM     24  C   UNL     1       1.607   3.366  -0.122  0.00  0.00    +0.197 A 
ATOM     25  N   UNL     1       2.914   3.349  -0.165  0.00  0.00    -0.121 NA
ATOM     26  N   UNL     1       3.342   2.136  -0.133  0.00  0.00    -0.121 NA
BRANCH  19  31
ATOM     27  C   UNL     1      -5.043   4.143   0.049  0.00  0.00    +0.044 C 
ATOM     28  C   UNL     1      -3.727   3.410   0.038  0.00  0.00    -0.050 A 
ATOM     29  C   UNL     1      -3.607   2.219  -0.657  0.00  0.00    +0.004 A 
ATOM     30  C   UNL     1      -2.405   1.543  -0.671  0.00  0.00    +0.010 A 
ATOM     31  C   UNL     1      -1.308   2.062   0.019  0.00  0.00    -0.001 A 
ATOM     32  C   UNL     1      -1.437   3.260   0.724  0.00  0.00    +0.010 A 
ATOM     33  C   UNL     1      -2.644   3.929   0.724  0.00  0.00    +0.004 A 
ENDBRANCH  19  31
ENDBRANCH  18  24
ENDBRANCH   1  18
TORSDOF 5
