REMARK  Name = ZINC08813585
REMARK  13 active torsions:
REMARK  status: ('A' for Active; 'I' for Inactive)
REMARK    1  A    between atoms: C_1  and  C_2
REMARK    2  A    between atoms: N_4  and  C_5
REMARK    3  A    between atoms: C_8  and  S_11
REMARK    4  A    between atoms: S_11  and  N_14
REMARK    5  A    between atoms: N_14  and  C_15
REMARK    6  A    between atoms: C_15  and  C_16
REMARK    7  A    between atoms: C_19  and  C_22
REMARK    8  A    between atoms: N_24  and  C_25
REMARK    9  A    between atoms: C_25  and  C_26
REMARK   10  A    between atoms: C_26  and  C_27
REMARK   11  A    between atoms: C_27  and  N_77
REMARK   12  A    between atoms: C_28  and  N_77
REMARK   13  A    between atoms: C_29  and  N_77
REMARK                            x       y       z     vdW  Elec       q    Type
REMARK                         _______ _______ _______ _____ _____    ______ ____
ROOT
ATOM      1  C   UNL     1      -5.221   5.664   3.803  0.00  0.00    +0.005 C 
ATOM      2  C   UNL     1      -6.443   6.516   3.458  0.00  0.00    +0.005 C 
ATOM      3  C   UNL     1      -7.133   6.966   4.747  0.00  0.00    +0.013 C 
ATOM      4  C   UNL     1      -6.156   7.791   5.587  0.00  0.00    +0.075 C 
ATOM      5  C   UNL     1      -4.933   6.939   5.932  0.00  0.00    +0.013 C 
ATOM      6  C   UNL     1      -4.244   6.489   4.643  0.00  0.00    +0.005 C 
ENDROOT
BRANCH   4   7
ATOM      7  C   UNL     1      -5.718   9.002   4.803  0.00  0.00    +0.216 C 
ATOM      8  O   UNL     1      -4.545   9.166   4.546  0.00  0.00    -0.276 OA
ATOM      9  N   UNL     1      -6.632   9.902   4.388  0.00  0.00    -0.315 N 
ATOM     10  H   UNL     1      -7.571   9.770   4.593  0.00  0.00    +0.149 HD
BRANCH   9  11
ATOM     11  C   UNL     1      -6.207  11.079   3.626  0.00  0.00    +0.102 C 
BRANCH  11  12
ATOM     12  C   UNL     1      -7.429  11.931   3.280  0.00  0.00    +0.000 C 
BRANCH  12  13
ATOM     13  C   UNL     1      -6.985  13.160   2.484  0.00  0.00    -0.077 C 
BRANCH  13  15
ATOM     14  C   UNL     1      -9.052  13.268   1.228  0.00  0.00    -0.096 C 
ATOM     15  N   UNL     1      -8.173  13.984   2.177  0.00  0.00    +0.380 N 
ATOM     16  H   UNL     1      -8.692  14.158   3.046  0.00  0.00    -0.082 HD
BRANCH  15  17
ATOM     17  C   UNL     1      -7.755  15.278   1.599  0.00  0.00    -0.069 C 
ATOM     18  C   UNL     1      -6.908  16.030   2.628  0.00  0.00    -0.015 C 
ATOM     19  C   UNL     1      -6.487  17.383   2.052  0.00  0.00    -0.002 C 
ATOM     20  C   UNL     1      -7.733  18.206   1.720  0.00  0.00    -0.000 C 
ATOM     21  C   UNL     1      -8.581  17.454   0.691  0.00  0.00    -0.002 C 
ATOM     22  C   UNL     1      -9.001  16.101   1.267  0.00  0.00    -0.015 C 
ENDBRANCH  15  17
ENDBRANCH  13  15
ENDBRANCH  12  13
ENDBRANCH  11  12
ENDBRANCH   9  11
ENDBRANCH   4   7
BRANCH   1  23
ATOM     23  C   UNL     1      -4.532   5.214   2.513  0.00  0.00    +0.109 C 
BRANCH  23  24
ATOM     24  N   UNL     1      -5.425   4.326   1.766  0.00  0.00    -0.190 NA
ATOM     25  H   UNL     1      -6.200   3.939   2.202  0.00  0.00    +0.148 HD
BRANCH  24  26
ATOM     26  S   UNL     1      -5.112   3.982   0.176  0.00  0.00    +0.058 S 
ATOM     27  O   UNL     1      -4.870   5.226  -0.468  0.00  0.00    -0.153 OA
ATOM     28  O   UNL     1      -6.128   3.087  -0.253  0.00  0.00    -0.153 OA
BRANCH  26  32
ATOM     29  C   UNL     1      -1.215   1.678   0.048  0.00  0.00    +0.033 A 
ATOM     30  C   UNL     1      -1.206   3.064  -0.030  0.00  0.00    +0.025 A 
ATOM     31  C   UNL     1      -2.397   3.764   0.003  0.00  0.00    +0.030 A 
ATOM     32  C   UNL     1      -3.596   3.086   0.127  0.00  0.00    +0.105 A 
ATOM     33  C   UNL     1      -3.607   1.706   0.210  0.00  0.00    +0.030 A 
ATOM     34  C   UNL     1      -2.421   1.000   0.171  0.00  0.00    +0.025 A 
BRANCH  29  38
ATOM     35  C   UNL     1       1.357  -0.960  -0.728  0.00  0.00    +0.109 C 
ATOM     36  C   UNL     1       0.040  -0.237  -0.598  0.00  0.00    +0.214 C 
ATOM     37  O   UNL     1      -0.973  -0.738  -1.038  0.00  0.00    -0.276 OA
ATOM     38  N   UNL     1      -0.011   0.966   0.007  0.00  0.00    -0.286 N 
ATOM     39  H   UNL     1       0.785   1.336   0.419  0.00  0.00    +0.155 HD
ENDBRANCH  29  38
ENDBRANCH  26  32
ENDBRANCH  24  26
ENDBRANCH  23  24
ENDBRANCH   1  23
TORSDOF 11
