REMARK  Name = ZINC40737065
REMARK  13 active torsions:
REMARK  status: ('A' for Active; 'I' for Inactive)
REMARK    1  A    between atoms: C_1  and  C_2
REMARK    2  A    between atoms: C_2  and  C_27
REMARK    3  A    between atoms: C_4  and  N_10
REMARK    4  A    between atoms: C_6  and  C_8
REMARK    5  A    between atoms: C_6  and  C_9
REMARK    6  A    between atoms: C_12  and  N_26
REMARK    7  A    between atoms: C_13  and  N_17
REMARK    8  A    between atoms: N_17  and  C_18
REMARK    9  A    between atoms: N_17  and  C_22
REMARK   10  A    between atoms: C_18  and  C_19
REMARK   11  A    between atoms: C_19  and  C_20
REMARK   12  A    between atoms: C_22  and  C_23
REMARK   13  A    between atoms: C_23  and  C_24
REMARK                            x       y       z     vdW  Elec       q    Type
REMARK                         _______ _______ _______ _____ _____    ______ ____
ROOT
ATOM      1  N   UNL     1       2.407  -0.364  -2.855  0.00  0.00    -0.325 N 
ATOM      2  C   UNL     1       3.719  -0.112  -3.241  0.00  0.00    +0.145 A 
ATOM      3  C   UNL     1       4.214  -0.618  -4.444  0.00  0.00    +0.105 A 
ATOM      4  C   UNL     1       5.537  -0.334  -4.783  0.00  0.00    +0.147 A 
ATOM      5  N   UNL     1       6.272   0.403  -3.953  0.00  0.00    -0.219 NA
ATOM      6  C   UNL     1       5.766   0.862  -2.827  0.00  0.00    +0.225 A 
ATOM      7  N   UNL     1       4.520   0.621  -2.471  0.00  0.00    -0.219 NA
ATOM      8  H   UNL     1       1.830  -0.899  -3.422  0.00  0.00    +0.148 HD
ENDROOT
BRANCH   1  12
ATOM      9  C   UNL     1       0.126   2.344  -0.237  0.00  0.00    -0.010 C 
ATOM     10  C   UNL     1      -0.186   0.849  -0.365  0.00  0.00    -0.072 C 
ATOM     11  C   UNL     1       0.376   0.316  -1.679  0.00  0.00    +0.009 C 
ATOM     12  C   UNL     1       1.896   0.179  -1.591  0.00  0.00    +0.069 C 
ATOM     13  C   UNL     1       2.223  -0.793  -0.456  0.00  0.00    +0.009 C 
ATOM     14  C   UNL     1       1.674  -0.268   0.867  0.00  0.00    -0.072 C 
ATOM     15  N   UNL     1       0.274   0.112   0.799  0.00  0.00    +0.386 N 
ATOM     16  C   UNL     1       2.543   0.891   1.365  0.00  0.00    -0.010 C 
ATOM     17  C   UNL     1       1.802  -1.408   1.904  0.00  0.00    -0.010 C 
ATOM     18  C   UNL     1      -1.725   0.711  -0.431  0.00  0.00    -0.010 C 
ATOM     19  H   UNL     1       0.049   0.660   1.635  0.00  0.00    -0.084 HD
ATOM     20  H   UNL     1      -0.293  -0.738   0.884  0.00  0.00    -0.084 HD
ENDBRANCH   1  12
BRANCH   3  21
ATOM     21  N   UNL     1       3.402  -1.392  -5.289  0.00  0.00    -0.353 N 
ATOM     22  H   UNL     1       2.523  -1.675  -4.993  0.00  0.00    +0.143 HD
ATOM     23  H   UNL     1       3.721  -1.645  -6.170  0.00  0.00    +0.143 HD
ENDBRANCH   3  21
BRANCH   4  24
ATOM     24  N   UNL     1       6.080  -0.814  -5.969  0.00  0.00    -0.312 N 
BRANCH  24  25
ATOM     25  C   UNL     1       5.878  -0.077  -7.219  0.00  0.00    +0.121 C 
BRANCH  25  26
ATOM     26  C   UNL     1       7.013   0.932  -7.406  0.00  0.00    +0.137 C 
BRANCH  26  27
ATOM     27  C   UNL     1       6.809   1.672  -8.662  0.00  0.00    +0.064 C 
ATOM     28  N   UNL     1       6.652   2.244  -9.631  0.00  0.00    -0.197 NA
ENDBRANCH  26  27
ENDBRANCH  25  26
ENDBRANCH  24  25
BRANCH  24  29
ATOM     29  C   UNL     1       6.856  -2.057  -5.970  0.00  0.00    +0.121 C 
BRANCH  29  30
ATOM     30  C   UNL     1       5.944  -3.227  -6.345  0.00  0.00    +0.137 C 
BRANCH  30  31
ATOM     31  C   UNL     1       6.723  -4.476  -6.346  0.00  0.00    +0.064 C 
ATOM     32  N   UNL     1       7.324  -5.439  -6.346  0.00  0.00    -0.197 NA
ENDBRANCH  30  31
ENDBRANCH  29  30
ENDBRANCH  24  29
ENDBRANCH   4  24
TORSDOF 9
