REMARK  Name = ZINC19358590
REMARK  10 active torsions:
REMARK  status: ('A' for Active; 'I' for Inactive)
REMARK    1  A    between atoms: C_1  and  C_2
REMARK    2  A    between atoms: C_2  and  C_3
REMARK    3  A    between atoms: C_3  and  C_4
REMARK    4  A    between atoms: C_9  and  C_24
REMARK    5  A    between atoms: C_10  and  C_20
REMARK    6  A    between atoms: C_13  and  C_16
REMARK    7  A    between atoms: C_14  and  O_15
REMARK    8  A    between atoms: C_16  and  N_17
REMARK    9  A    between atoms: N_17  and  C_18
REMARK   10  A    between atoms: N_17  and  C_19
REMARK                            x       y       z     vdW  Elec       q    Type
REMARK                         _______ _______ _______ _____ _____    ______ ____
ROOT
ATOM      1  C   UNL     1      -6.646  -4.273   1.711  0.00  0.00    -0.005 A 
ATOM      2  C   UNL     1      -5.647  -3.381   1.980  0.00  0.00    +0.022 A 
ATOM      3  C   UNL     1      -5.269  -2.452   1.011  0.00  0.00    +0.065 A 
ATOM      4  C   UNL     1      -4.195  -1.475   1.266  0.00  0.00    +0.201 A 
ATOM      5  O   UNL     1      -3.600  -1.442   2.329  0.00  0.00    -0.286 OA
ATOM      6  C   UNL     1      -3.877  -0.539   0.173  0.00  0.00    +0.077 A 
ATOM      7  C   UNL     1      -4.581  -0.624  -0.985  0.00  0.00    +0.219 A 
ATOM      8  O   UNL     1      -5.544  -1.530  -1.176  0.00  0.00    -0.450 OA
ATOM      9  C   UNL     1      -5.910  -2.429  -0.240  0.00  0.00    +0.144 A 
ATOM     10  C   UNL     1      -6.924  -3.342  -0.497  0.00  0.00    +0.021 A 
ATOM     11  C   UNL     1      -7.288  -4.258   0.475  0.00  0.00    +0.125 A 
ENDROOT
BRANCH   6  12
ATOM     12  C   UNL     1      -2.812   0.480   0.337  0.00  0.00    -0.007 A 
ATOM     13  C   UNL     1      -3.146   1.829   0.444  0.00  0.00    +0.012 A 
ATOM     14  C   UNL     1      -2.153   2.775   0.592  0.00  0.00    +0.050 A 
ATOM     15  C   UNL     1      -0.821   2.389   0.642  0.00  0.00    +0.162 A 
ATOM     16  C   UNL     1      -0.482   1.044   0.539  0.00  0.00    +0.163 A 
ATOM     17  C   UNL     1      -1.475   0.091   0.386  0.00  0.00    +0.058 A 
ATOM     18  O   UNL     1       0.820   0.648   0.588  0.00  0.00    -0.485 OA
ATOM     19  C   UNL     1       1.809   1.659   0.365  0.00  0.00    +0.270 C 
ATOM     20  C   UNL     1       1.435   2.888   1.205  0.00  0.00    +0.270 C 
ATOM     21  O   UNL     1       0.143   3.340   0.788  0.00  0.00    -0.485 OA
ENDBRANCH   6  12
BRANCH   7  22
ATOM     22  C   UNL     1      -4.260   0.337  -2.100  0.00  0.00    +0.451 C 
ATOM     23  F   UNL     1      -2.886   0.306  -2.360  0.00  0.00    -0.163 F 
ATOM     24  F   UNL     1      -4.962  -0.034  -3.252  0.00  0.00    -0.163 F 
ATOM     25  F   UNL     1      -4.634   1.631  -1.722  0.00  0.00    -0.163 F 
ENDBRANCH   7  22
BRANCH  11  26
ATOM     26  O   UNL     1      -8.279  -5.150   0.221  0.00  0.00    -0.506 OA
ATOM     27  H   UNL     1      -8.790  -5.143  -0.753  0.00  0.00    +0.292 HD
ENDBRANCH  11  26
BRANCH   1  28
ATOM     28  C   UNL     1      -7.056  -5.278   2.757  0.00  0.00    +0.038 C 
BRANCH  28  30
ATOM     29  C   UNL     1      -6.729  -7.614   3.580  0.00  0.00    +0.004 C 
ATOM     30  C   UNL     1      -6.313  -6.594   2.518  0.00  0.00    +0.001 C 
ENDBRANCH  28  30
ENDBRANCH   1  28
BRANCH  10  31
ATOM     31  C   UNL     1      -7.626  -3.336  -1.831  0.00  0.00    -0.036 C 
BRANCH  31  32
ATOM     32  N   UNL     1      -8.788  -2.438  -1.769  0.00  0.00    +0.379 N 
ATOM     33  C   UNL     1      -9.357  -2.221  -3.105  0.00  0.00    -0.096 C 
ATOM     34  C   UNL     1      -9.803  -2.955  -0.841  0.00  0.00    -0.096 C 
ATOM     35  H   UNL     1      -8.443  -1.466  -1.386  0.00  0.00    -0.082 HD
ENDBRANCH  31  32
ENDBRANCH  10  31
TORSDOF 7
