REMARK  Name = ZINC13914175
REMARK  6 active torsions:
REMARK  status: ('A' for Active; 'I' for Inactive)
REMARK    1  A    between atoms: C_1  and  C_2
REMARK    2  A    between atoms: C_7  and  N_8
REMARK    3  A    between atoms: C_14  and  C_15
REMARK    4  A    between atoms: N_19  and  C_20
REMARK    5  A    between atoms: C_23  and  S_26
REMARK    6  A    between atoms: S_26  and  N_29
REMARK                            x       y       z     vdW  Elec       q    Type
REMARK                         _______ _______ _______ _____ _____    ______ ____
ROOT
ATOM      1  C   UNL     1      -0.715  -5.238   5.920  0.00  0.00    +0.048 A 
ATOM      2  C   UNL     1      -0.729  -6.349   6.745  0.00  0.00    +0.027 A 
ATOM      3  C   UNL     1      -1.075  -7.447   5.951  0.00  0.00    +0.020 A 
ATOM      4  C   UNL     1      -1.263  -7.005   4.685  0.00  0.00    +0.092 A 
ATOM      5  N   UNL     1      -1.052  -5.660   4.652  0.00  0.00    -0.316 N 
ENDROOT
BRANCH   1  12
ATOM      6  N   UNL     1       1.096  -3.778  11.421  0.00  0.00    -0.225 NA
ATOM      7  C   UNL     1       0.778  -3.579  10.161  0.00  0.00    +0.166 C 
ATOM      8  N   UNL     1       0.844  -2.410   9.434  0.00  0.00    -0.260 N 
ATOM      9  C   UNL     1       0.482  -2.387   8.163  0.00  0.00    +0.256 C 
ATOM     10  O   UNL     1       0.534  -1.363   7.506  0.00  0.00    -0.269 OA
ATOM     11  C   UNL     1       0.014  -3.652   7.576  0.00  0.00    +0.079 C 
ATOM     12  C   UNL     1      -0.414  -3.911   6.308  0.00  0.00    +0.046 C 
ATOM     13  S   UNL     1       0.163  -4.759   8.971  0.00  0.00    -0.049 S 
ATOM     14  H   UNL     1       1.158  -1.597   9.860  0.00  0.00    +0.157 HD
BRANCH   6  21
ATOM     15  C   UNL     1      -0.282  -4.181  13.873  0.00  0.00    +0.046 C 
ATOM     16  C   UNL     1       0.414  -5.299  13.142  0.00  0.00    -0.025 A 
ATOM     17  C   UNL     1       0.394  -6.579  13.656  0.00  0.00    +0.005 A 
ATOM     18  C   UNL     1       1.033  -7.608  12.987  0.00  0.00    +0.000 A 
ATOM     19  C   UNL     1       1.697  -7.361  11.798  0.00  0.00    +0.002 A 
ATOM     20  C   UNL     1       1.725  -6.086  11.272  0.00  0.00    +0.028 A 
ATOM     21  C   UNL     1       1.077  -5.044  11.940  0.00  0.00    +0.069 A 
ENDBRANCH   6  21
ENDBRANCH   1  12
BRANCH   5  22
ATOM     22  C   UNL     1      -1.158  -4.843   3.518  0.00  0.00    +0.047 A 
ATOM     23  C   UNL     1      -2.002  -3.741   3.532  0.00  0.00    +0.028 A 
ATOM     24  C   UNL     1      -2.103  -2.937   2.413  0.00  0.00    +0.030 A 
ATOM     25  C   UNL     1      -1.367  -3.231   1.280  0.00  0.00    +0.105 A 
ATOM     26  C   UNL     1      -0.526  -4.328   1.264  0.00  0.00    +0.030 A 
ATOM     27  C   UNL     1      -0.415  -5.132   2.381  0.00  0.00    +0.028 A 
BRANCH  25  28
ATOM     28  S   UNL     1      -1.500  -2.204  -0.146  0.00  0.00    +0.056 S 
ATOM     29  O   UNL     1      -1.238  -3.033  -1.269  0.00  0.00    -0.153 OA
ATOM     30  O   UNL     1      -2.708  -1.469  -0.006  0.00  0.00    -0.153 OA
BRANCH  28  31
ATOM     31  N   UNL     1      -0.265  -1.102  -0.073  0.00  0.00    -0.204 NA
ATOM     32  H   UNL     1       0.399  -1.164   0.632  0.00  0.00    +0.144 HD
ATOM     33  H   UNL     1      -0.206  -0.395  -0.734  0.00  0.00    +0.144 HD
ENDBRANCH  28  31
ENDBRANCH  25  28
ENDBRANCH   5  22
TORSDOF 5
