REMARK  Name = ZINC66850724
REMARK  7 active torsions:
REMARK  status: ('A' for Active; 'I' for Inactive)
REMARK    1  A    between atoms: C_1  and  C_2
REMARK    2  A    between atoms: C_2  and  C_3
REMARK    3  A    between atoms: C_2  and  C_4
REMARK    4  A    between atoms: C_2  and  N_5
REMARK    5  A    between atoms: C_9  and  C_11
REMARK    6  A    between atoms: C_11  and  N_12
REMARK    7  A    between atoms: C_16  and  C_19
REMARK                            x       y       z     vdW  Elec       q    Type
REMARK                         _______ _______ _______ _____ _____    ______ ____
ROOT
ATOM      1  N   UNL     1       5.970  -0.200  -4.010  0.00  0.00    -0.289 NA
ATOM      2  C   UNL     1       6.756  -0.787  -2.915  0.00  0.00    +0.113 C 
ATOM      3  C   UNL     1       8.164  -0.187  -2.927  0.00  0.00    +0.176 C 
ATOM      4  O   UNL     1       8.763  -0.413  -4.206  0.00  0.00    -0.369 OA
ATOM      5  C   UNL     1       8.024   0.146  -5.295  0.00  0.00    +0.162 C 
ATOM      6  C   UNL     1       6.614  -0.451  -5.307  0.00  0.00    +0.121 C 
ENDROOT
BRANCH   5   7
ATOM      7  C   UNL     1       8.719  -0.176  -6.593  0.00  0.00    -0.015 A 
ATOM      8  C   UNL     1       9.278  -1.425  -6.785  0.00  0.00    +0.009 A 
ATOM      9  C   UNL     1       9.916  -1.723  -7.975  0.00  0.00    +0.041 A 
ATOM     10  C   UNL     1       9.995  -0.769  -8.975  0.00  0.00    +0.158 A 
ATOM     11  C   UNL     1       9.434   0.484  -8.782  0.00  0.00    +0.159 A 
ATOM     12  C   UNL     1       8.792   0.777  -7.591  0.00  0.00    +0.047 A 
ATOM     13  F   UNL     1       9.511   1.417  -9.756  0.00  0.00    -0.202 F 
ATOM     14  F   UNL     1      10.619  -1.059 -10.137  0.00  0.00    -0.202 F 
ENDBRANCH   5   7
BRANCH   1  15
ATOM     15  C   UNL     1       4.591  -0.709  -3.999  0.00  0.00    +0.181 C 
BRANCH  15  20
ATOM     16  N   UNL     1       0.688  -0.476  -1.203  0.00  0.00    -0.294 N 
ATOM     17  C   UNL     1       1.972  -0.132  -1.427  0.00  0.00    +0.306 C 
ATOM     18  O   UNL     1       2.560   0.570  -0.629  0.00  0.00    -0.252 OA
ATOM     19  N   UNL     1       2.602  -0.567  -2.536  0.00  0.00    -0.239 N 
ATOM     20  C   UNL     1       3.886  -0.223  -2.760  0.00  0.00    +0.234 C 
ATOM     21  O   UNL     1       4.473   0.478  -1.963  0.00  0.00    -0.274 OA
ATOM     22  H   UNL     1       0.218  -1.037  -1.840  0.00  0.00    +0.151 HD
ATOM     23  H   UNL     1       2.132  -1.127  -3.173  0.00  0.00    +0.159 HD
BRANCH  16  25
ATOM     24  C   UNL     1      -0.019   1.526   0.010  0.00  0.00    +0.031 C 
ATOM     25  C   UNL     1       0.002  -0.004   0.002  0.00  0.00    +0.028 C 
ATOM     26  C   UNL     1       0.742  -0.511   1.242  0.00  0.00    +0.031 C 
ATOM     27  C   UNL     1      -1.433  -0.534   0.013  0.00  0.00    +0.031 C 
ENDBRANCH  16  25
ENDBRANCH  15  20
ENDBRANCH   1  15
TORSDOF 4
