REMARK  Name = ZINC63623090
REMARK  10 active torsions:
REMARK  status: ('A' for Active; 'I' for Inactive)
REMARK    1  A    between atoms: C_1  and  C_2
REMARK    2  A    between atoms: C_4  and  C_22
REMARK    3  A    between atoms: N_12  and  C_13
REMARK    4  A    between atoms: C_13  and  C_14
REMARK    5  A    between atoms: C_19  and  C_20
REMARK    6  A    between atoms: C_23  and  C_24
REMARK    7  A    between atoms: C_23  and  C_26
REMARK    8  A    between atoms: N_28  and  C_29
REMARK    9  A    between atoms: C_29  and  C_30
REMARK   10  A    between atoms: C_30  and  C_31
REMARK                            x       y       z     vdW  Elec       q    Type
REMARK                         _______ _______ _______ _____ _____    ______ ____
ROOT
ATOM      1  C   UNL     1      -1.572  -1.240  -1.376  0.00  0.00    +0.007 C 
ATOM      2  C   UNL     1      -2.506  -0.872  -2.274  0.00  0.00    +0.110 C 
ENDROOT
BRANCH   1   5
ATOM      3  C   UNL     1       0.094   1.638  -0.003  0.00  0.00    +0.029 C 
ATOM      4  C   UNL     1       0.088   0.110  -0.082  0.00  0.00    +0.082 C 
ATOM      5  C   UNL     1      -1.355  -0.416  -0.133  0.00  0.00    +0.065 C 
ATOM      6  C   UNL     1      -1.490  -1.276   1.103  0.00  0.00    -0.018 A 
ATOM      7  C   UNL     1      -2.558  -2.006   1.587  0.00  0.00    +0.006 A 
ATOM      8  C   UNL     1      -2.433  -2.725   2.762  0.00  0.00    +0.000 A 
ATOM      9  C   UNL     1      -1.234  -2.712   3.452  0.00  0.00    +0.002 A 
ATOM     10  C   UNL     1      -0.166  -1.985   2.973  0.00  0.00    +0.023 A 
ATOM     11  C   UNL     1      -0.284  -1.257   1.787  0.00  0.00    +0.034 A 
ATOM     12  N   UNL     1       0.666  -0.465   1.136  0.00  0.00    -0.322 N 
BRANCH  12  13
ATOM     13  C   UNL     1       2.036  -0.240   1.602  0.00  0.00    +0.141 C 
BRANCH  13  14
ATOM     14  C   UNL     1       2.918  -1.368   1.131  0.00  0.00    -0.013 A 
ATOM     15  C   UNL     1       3.229  -2.406   1.985  0.00  0.00    +0.006 A 
ATOM     16  C   UNL     1       4.038  -3.442   1.555  0.00  0.00    +0.000 A 
ATOM     17  C   UNL     1       4.542  -3.445   0.266  0.00  0.00    +0.001 A 
ATOM     18  C   UNL     1       4.239  -2.414  -0.599  0.00  0.00    +0.019 A 
ATOM     19  C   UNL     1       3.417  -1.368  -0.173  0.00  0.00    +0.056 A 
BRANCH  19  20
ATOM     20  C   UNL     1       3.094  -0.298  -1.067  0.00  0.00    +0.099 C 
ATOM     21  N   UNL     1       2.837   0.551  -1.777  0.00  0.00    -0.191 NA
ENDBRANCH  19  20
ENDBRANCH  13  14
ENDBRANCH  12  13
ENDBRANCH   1   5
BRANCH   2  22
ATOM     22  C   UNL     1      -2.718  -1.680  -3.493  0.00  0.00    +0.254 C 
ATOM     23  O   UNL     1      -2.049  -2.676  -3.685  0.00  0.00    -0.269 OA
ATOM     24  N   UNL     1      -3.653  -1.312  -4.391  0.00  0.00    -0.310 N 
ATOM     25  H   UNL     1      -4.187  -0.517  -4.237  0.00  0.00    +0.149 HD
BRANCH  24  26
ATOM     26  C   UNL     1      -3.863  -2.113  -5.599  0.00  0.00    +0.109 C 
BRANCH  26  27
ATOM     27  C   UNL     1      -4.972  -1.482  -6.443  0.00  0.00    +0.052 C 
BRANCH  27  28
ATOM     28  C   UNL     1      -5.189  -2.306  -7.686  0.00  0.00    -0.040 C 
ATOM     29  C   UNL     1      -6.109  -3.280  -7.866  0.00  0.00    -0.001 A 
ATOM     30  C   UNL     1      -7.145  -3.844  -6.991  0.00  0.00    +0.010 A 
ATOM     31  C   UNL     1      -7.933  -4.836  -7.463  0.00  0.00    +0.001 A 
ATOM     32  C   UNL     1      -7.786  -5.339  -8.763  0.00  0.00    +0.002 A 
ATOM     33  C   UNL     1      -6.858  -4.873  -9.625  0.00  0.00    +0.026 A 
ATOM     34  C   UNL     1      -5.975  -3.829  -9.235  0.00  0.00    +0.043 A 
ATOM     35  N   UNL     1      -5.009  -3.217  -9.876  0.00  0.00    -0.380 N 
ATOM     36  C   UNL     1      -4.424  -2.206  -8.987  0.00  0.00    +0.144 C 
ATOM     37  H   UNL     1      -4.729  -3.400 -10.786  0.00  0.00    +0.160 HD
ENDBRANCH  27  28
ENDBRANCH  26  27
ENDBRANCH  24  26
ENDBRANCH   2  22
BRANCH   2  38
ATOM     38  C   UNL     1      -3.294   0.301  -2.047  0.00  0.00    +0.104 C 
ATOM     39  N   UNL     1      -3.919   1.233  -1.867  0.00  0.00    -0.191 NA
ENDBRANCH   2  38
TORSDOF 9
