REMARK  Name = ZINC20689948
REMARK  9 active torsions:
REMARK  status: ('A' for Active; 'I' for Inactive)
REMARK    1  A    between atoms: C_1  and  O_2
REMARK    2  A    between atoms: O_2  and  C_3
REMARK    3  A    between atoms: C_6  and  N_9
REMARK    4  A    between atoms: N_9  and  S_10
REMARK    5  A    between atoms: S_10  and  C_13
REMARK    6  A    between atoms: C_26  and  C_29
REMARK    7  A    between atoms: C_32  and  O_36
REMARK    8  A    between atoms: C_33  and  O_35
REMARK    9  A    between atoms: O_36  and  C_37
REMARK                            x       y       z     vdW  Elec       q    Type
REMARK                         _______ _______ _______ _____ _____    ______ ____
ROOT
ATOM      1  C   UNL     1      -4.265   2.975   0.686  0.00  0.00    +0.109 A 
ATOM      2  C   UNL     1      -5.403   3.050  -0.096  0.00  0.00    +0.030 A 
ATOM      3  C   UNL     1      -5.916   4.285  -0.438  0.00  0.00    +0.025 A 
ATOM      4  C   UNL     1      -5.291   5.445   0.003  0.00  0.00    +0.031 A 
ATOM      5  C   UNL     1      -4.151   5.374   0.789  0.00  0.00    -0.018 A 
ATOM      6  C   UNL     1      -3.647   4.126   1.130  0.00  0.00    +0.034 A 
ATOM      7  C   UNL     1      -3.448   6.595   1.291  0.00  0.00    +0.049 C 
ATOM      8  C   UNL     1      -2.169   6.848   0.529  0.00  0.00    -0.023 C 
ATOM      9  C   UNL     1      -1.980   8.136   0.376  0.00  0.00    -0.030 C 
ATOM     10  C   UNL     1      -3.106   8.919   1.021  0.00  0.00    +0.033 C 
ATOM     11  C   UNL     1      -4.268   7.885   1.095  0.00  0.00    +0.029 C 
ATOM     12  C   UNL     1      -4.950   7.867  -0.275  0.00  0.00    +0.105 C 
ATOM     13  N   UNL     1      -5.821   6.689  -0.357  0.00  0.00    -0.336 N 
ATOM     14  H   UNL     1      -6.862   6.797  -0.694  0.00  0.00    +0.147 HD
ENDROOT
BRANCH  12  15
ATOM     15  C   UNL     1      -3.905   7.797  -1.359  0.00  0.00    -0.023 A 
ATOM     16  C   UNL     1      -3.318   6.586  -1.674  0.00  0.00    +0.009 A 
ATOM     17  C   UNL     1      -2.358   6.517  -2.667  0.00  0.00    +0.050 A 
ATOM     18  C   UNL     1      -1.984   7.664  -3.349  0.00  0.00    +0.161 A 
ATOM     19  C   UNL     1      -2.575   8.883  -3.032  0.00  0.00    +0.159 A 
ATOM     20  C   UNL     1      -3.539   8.944  -2.039  0.00  0.00    +0.054 A 
BRANCH  19  21
ATOM     21  O   UNL     1      -2.211  10.011  -3.698  0.00  0.00    -0.503 OA
ATOM     22  H   UNL     1      -2.679  10.974  -3.446  0.00  0.00    +0.292 HD
ENDBRANCH  19  21
BRANCH  18  23
ATOM     23  O   UNL     1      -1.040   7.598  -4.325  0.00  0.00    -0.491 OA
ATOM     24  C   UNL     1      -0.475   6.313  -4.597  0.00  0.00    +0.277 C 
ENDBRANCH  18  23
ENDBRANCH  12  15
BRANCH   1  25
ATOM     25  S   UNL     1      -3.605   1.401   1.125  0.00  0.00    +0.072 S 
ATOM     26  O   UNL     1      -4.649   0.456   0.936  0.00  0.00    -0.150 OA
ATOM     27  O   UNL     1      -2.947   1.570   2.373  0.00  0.00    -0.150 OA
BRANCH  25  28
ATOM     28  N   UNL     1      -2.430   1.036   0.016  0.00  0.00    -0.216 N 
ATOM     29  H   UNL     1      -2.557   0.176  -0.657  0.00  0.00    +0.174 HD
BRANCH  28  33
ATOM     30  C   UNL     1       1.005   3.386  -0.221  0.00  0.00    +0.120 A 
ATOM     31  C   UNL     1       0.016   3.505  -1.186  0.00  0.00    +0.047 A 
ATOM     32  C   UNL     1      -1.121   2.724  -1.111  0.00  0.00    +0.028 A 
ATOM     33  C   UNL     1      -1.276   1.823  -0.065  0.00  0.00    +0.048 A 
ATOM     34  C   UNL     1      -0.283   1.702   0.898  0.00  0.00    +0.028 A 
ATOM     35  C   UNL     1       0.853   2.483   0.821  0.00  0.00    +0.047 A 
BRANCH  30  37
ATOM     36  C   UNL     1       3.101   3.982   0.732  0.00  0.00    +0.277 C 
ATOM     37  O   UNL     1       2.123   4.156  -0.296  0.00  0.00    -0.495 OA
ENDBRANCH  30  37
ENDBRANCH  28  33
ENDBRANCH  25  28
ENDBRANCH   1  25
TORSDOF 7
