REMARK  Name = ZINC06300198
REMARK  10 active torsions:
REMARK  status: ('A' for Active; 'I' for Inactive)
REMARK    1  A    between atoms: C_1  and  C_2
REMARK    2  A    between atoms: C_9  and  N_34
REMARK    3  A    between atoms: C_10  and  C_32
REMARK    4  A    between atoms: C_11  and  C_13
REMARK    5  A    between atoms: C_15  and  O_30
REMARK    6  A    between atoms: C_16  and  O_20
REMARK    7  A    between atoms: O_20  and  C_21
REMARK    8  A    between atoms: C_21  and  C_22
REMARK    9  A    between atoms: C_27  and  C_28
REMARK   10  A    between atoms: O_30  and  C_31
REMARK                            x       y       z     vdW  Elec       q    Type
REMARK                         _______ _______ _______ _____ _____    ______ ____
ROOT
ATOM      1  C   UNL     1      -4.347   1.355   1.388  0.00  0.00    -0.029 A 
ATOM      2  C   UNL     1      -5.542   0.670   1.505  0.00  0.00    +0.054 A 
ATOM      3  C   UNL     1      -6.124   0.499   2.750  0.00  0.00    +0.163 A 
ATOM      4  C   UNL     1      -5.504   1.018   3.882  0.00  0.00    +0.181 A 
ATOM      5  C   UNL     1      -4.306   1.705   3.759  0.00  0.00    +0.086 A 
ATOM      6  C   UNL     1      -3.727   1.867   2.513  0.00  0.00    +0.028 A 
ATOM      7 CL   UNL     1      -3.530   2.355   5.169  0.00  0.00    -0.080 Cl
ENDROOT
BRANCH   1  18
ATOM      8  C   UNL     1      -6.003   3.699  -0.693  0.00  0.00    +0.068 C 
ATOM      9  C   UNL     1      -4.523   3.955  -0.571  0.00  0.00    +0.068 A 
ATOM     10  C   UNL     1      -3.555   3.010  -0.258  0.00  0.00    +0.049 A 
ATOM     11  C   UNL     1      -2.340   3.637  -0.246  0.00  0.00    +0.222 A 
ATOM     12  N   UNL     1      -2.547   4.930  -0.541  0.00  0.00    -0.246 N 
ATOM     13  H   UNL     1      -1.698   5.627  -0.586  0.00  0.00    +0.192 HD
ATOM     14  N   UNL     1      -3.925   5.110  -0.742  0.00  0.00    -0.176 NA
ATOM     15  O   UNL     1      -1.182   2.984   0.029  0.00  0.00    -0.423 OA
ATOM     16  C   UNL     1      -1.209   1.636   0.017  0.00  0.00    +0.200 C 
ATOM     17  C   UNL     1      -2.346   0.906   0.018  0.00  0.00    +0.098 C 
ATOM     18  C   UNL     1      -3.715   1.540   0.033  0.00  0.00    +0.101 C 
BRANCH  16  19
ATOM     19  N   UNL     1      -0.011   0.966   0.007  0.00  0.00    -0.328 N 
ATOM     20  H   UNL     1       0.004  -0.134  -0.003  0.00  0.00    +0.145 HD
ATOM     21  H   UNL     1       0.934   1.529   0.010  0.00  0.00    +0.145 HD
ENDBRANCH  16  19
BRANCH  17  22
ATOM     22  C   UNL     1      -2.249  -0.523   0.005  0.00  0.00    +0.101 C 
ATOM     23  N   UNL     1      -2.171  -1.656  -0.006  0.00  0.00    -0.191 NA
ENDBRANCH  17  22
ENDBRANCH   1  18
BRANCH   3  24
ATOM     24  O   UNL     1      -7.299  -0.176   2.866  0.00  0.00    -0.491 OA
ATOM     25  C   UNL     1      -7.878  -0.682   1.661  0.00  0.00    +0.277 C 
ENDBRANCH   3  24
BRANCH   4  26
ATOM     26  O   UNL     1      -6.072   0.852   5.107  0.00  0.00    -0.482 OA
BRANCH  26  27
ATOM     27  C   UNL     1      -5.702  -0.317   5.841  0.00  0.00    +0.266 C 
BRANCH  27  28
ATOM     28  C   UNL     1      -6.426  -0.330   7.163  0.00  0.00    +0.007 A 
ATOM     29  C   UNL     1      -7.283   0.699   7.492  0.00  0.00    +0.008 A 
ATOM     30  C   UNL     1      -7.951   0.687   8.704  0.00  0.00    +0.000 A 
ATOM     31  C   UNL     1      -7.757  -0.352   9.597  0.00  0.00    +0.001 A 
ATOM     32  C   UNL     1      -6.899  -1.385   9.283  0.00  0.00    +0.019 A 
ATOM     33  C   UNL     1      -6.225  -1.381   8.060  0.00  0.00    +0.058 A 
BRANCH  33  34
ATOM     34  C   UNL     1      -5.331  -2.449   7.728  0.00  0.00    +0.100 C 
ATOM     35  N   UNL     1      -4.623  -3.297   7.464  0.00  0.00    -0.191 NA
ENDBRANCH  33  34
ENDBRANCH  27  28
ENDBRANCH  26  27
ENDBRANCH   4  26
TORSDOF 8
