REMARK  Name = ZINC20458739
REMARK  9 active torsions:
REMARK  status: ('A' for Active; 'I' for Inactive)
REMARK    1  A    between atoms: C_1  and  S_2
REMARK    2  A    between atoms: S_2  and  C_3
REMARK    3  A    between atoms: C_4  and  C_26
REMARK    4  A    between atoms: C_5  and  N_25
REMARK    5  A    between atoms: C_9  and  N_24
REMARK    6  A    between atoms: C_10  and  C_12
REMARK    7  A    between atoms: C_12  and  C_14
REMARK    8  A    between atoms: C_17  and  O_20
REMARK    9  A    between atoms: O_20  and  C_21
REMARK                            x       y       z     vdW  Elec       q    Type
REMARK                         _______ _______ _______ _____ _____    ______ ____
ROOT
ATOM      1  C   UNL     1       1.728  -2.193   0.681  0.00  0.00    +0.040 A 
ATOM      2  C   UNL     1       3.054  -2.561   0.941  0.00  0.00    +0.105 A 
ATOM      3  C   UNL     1       4.073  -1.590   0.883  0.00  0.00    +0.136 A 
ATOM      4  N   UNL     1       3.779  -0.334   0.585  0.00  0.00    -0.224 NA
ATOM      5  C   UNL     1       2.543   0.051   0.334  0.00  0.00    +0.114 A 
ATOM      6  C   UNL     1       1.442  -0.833   0.362  0.00  0.00    +0.044 A 
ATOM      7  C   UNL     1       0.156  -0.232   0.059  0.00  0.00    +0.053 A 
ATOM      8  C   UNL     1       0.117   1.122  -0.225  0.00  0.00    +0.083 A 
ATOM      9  S   UNL     1       1.823   1.619  -0.089  0.00  0.00    -0.063 S 
ENDROOT
BRANCH   7  10
ATOM     10  N   UNL     1      -1.002  -0.993   0.055  0.00  0.00    -0.356 N 
ATOM     11  H   UNL     1      -1.968  -0.522  -0.176  0.00  0.00    +0.142 HD
ATOM     12  H   UNL     1      -0.954  -2.068   0.283  0.00  0.00    +0.142 HD
ENDBRANCH   7  10
BRANCH   3  13
ATOM     13  N   UNL     1       5.383  -1.949   1.140  0.00  0.00    -0.342 N 
ATOM     14  H   UNL     1       6.180  -1.192   1.095  0.00  0.00    +0.144 HD
ATOM     15  H   UNL     1       5.629  -2.992   1.389  0.00  0.00    +0.144 HD
ENDBRANCH   3  13
BRANCH   1  17
ATOM     16  C   UNL     1       0.445  -3.958  -0.970  0.00  0.00    +0.090 C 
ATOM     17  S   UNL     1       0.436  -3.389   0.748  0.00  0.00    -0.126 S 
ENDBRANCH   1  17
BRANCH   8  18
ATOM     18  C   UNL     1      -1.004   1.917  -0.549  0.00  0.00    +0.202 C 
ATOM     19  O   UNL     1      -2.093   1.395  -0.715  0.00  0.00    -0.286 OA
BRANCH  18  20
ATOM     20  C   UNL     1      -0.857   3.381  -0.688  0.00  0.00    +0.023 A 
ATOM     21  C   UNL     1       0.187   4.044  -0.038  0.00  0.00    +0.015 A 
ATOM     22  C   UNL     1       0.324   5.408  -0.174  0.00  0.00    +0.046 A 
ATOM     23  C   UNL     1      -0.581   6.125  -0.947  0.00  0.00    +0.127 A 
ATOM     24  C   UNL     1      -1.624   5.469  -1.591  0.00  0.00    +0.046 A 
ATOM     25  C   UNL     1      -1.764   4.105  -1.464  0.00  0.00    +0.015 A 
BRANCH  23  26
ATOM     26  O   UNL     1      -0.446   7.470  -1.074  0.00  0.00    -0.434 OA
BRANCH  26  27
ATOM     27  C   UNL     1       0.647   8.080  -0.386  0.00  0.00    +0.541 C 
ATOM     28  F   UNL     1       0.525   7.843   0.988  0.00  0.00    -0.166 F 
ATOM     29  F   UNL     1       1.851   7.536  -0.847  0.00  0.00    -0.166 F 
ENDBRANCH  26  27
ENDBRANCH  23  26
ENDBRANCH  18  20
ENDBRANCH   8  18
BRANCH   2  30
ATOM     30  C   UNL     1       3.374  -3.919   1.264  0.00  0.00    +0.104 C 
ATOM     31  N   UNL     1       3.627  -4.996   1.520  0.00  0.00    -0.191 NA
ENDBRANCH   2  30
TORSDOF 8
