REMARK  Name = ZINC39711098
REMARK  10 active torsions:
REMARK  status: ('A' for Active; 'I' for Inactive)
REMARK    1  A    between atoms: C_1  and  C_2
REMARK    2  A    between atoms: C_5  and  C_39
REMARK    3  A    between atoms: C_10  and  C_14
REMARK    4  A    between atoms: C_14  and  C_16
REMARK    5  A    between atoms: C_14  and  N_26
REMARK    6  A    between atoms: N_21  and  C_22
REMARK    7  A    between atoms: C_22  and  C_23
REMARK    8  A    between atoms: C_22  and  C_24
REMARK    9  A    between atoms: C_22  and  C_25
REMARK   10  A    between atoms: N_29  and  C_32
REMARK                            x       y       z     vdW  Elec       q    Type
REMARK                         _______ _______ _______ _____ _____    ______ ____
ROOT
ATOM      1  C   UNL     1       1.597  -0.129   3.457  0.00  0.00    -0.011 C 
ENDROOT
BRANCH   1  11
ATOM      2  C   UNL     1       1.776   4.455   1.147  0.00  0.00    +0.044 C 
ATOM      3  C   UNL     1       1.343   3.333   0.240  0.00  0.00    -0.042 A 
ATOM      4  C   UNL     1       1.337   3.497  -1.108  0.00  0.00    +0.004 A 
ATOM      5  C   UNL     1       0.939   2.468  -1.963  0.00  0.00    +0.005 A 
ATOM      6  C   UNL     1       0.537   1.252  -1.510  0.00  0.00    -0.029 A 
ATOM      7  C   UNL     1       0.506   0.979  -0.130  0.00  0.00    +0.043 A 
ATOM      8  N   UNL     1       0.110  -0.218   0.303  0.00  0.00    -0.284 N 
ATOM      9  C   UNL     1       0.057  -0.541   1.584  0.00  0.00    +0.223 C 
ATOM     10  O   UNL     1      -0.313  -1.650   1.920  0.00  0.00    -0.275 OA
ATOM     11  C   UNL     1       0.458   0.474   2.631  0.00  0.00    +0.088 C 
ATOM     12  C   UNL     1       0.910   1.837   2.143  0.00  0.00    -0.006 C 
ATOM     13  C   UNL     1       0.926   2.045   0.796  0.00  0.00    -0.004 A 
ATOM     14  C   UNL     1       0.120   0.189  -2.493  0.00  0.00    +0.045 C 
ATOM     15  H   UNL     1      -0.153  -0.883  -0.353  0.00  0.00    +0.155 HD
ENDBRANCH   1  11
BRANCH   1  16
ATOM     16  N   UNL     1       1.128  -1.357   4.112  0.00  0.00    +0.387 N 
ATOM     17  C   UNL     1      -0.113  -1.077   4.845  0.00  0.00    -0.059 C 
ATOM     18  C   UNL     1      -0.663  -2.380   5.434  0.00  0.00    +0.086 C 
ATOM     19  N   UNL     1       0.392  -3.008   6.244  0.00  0.00    -0.331 N 
ATOM     20  C   UNL     1       1.722  -3.180   5.638  0.00  0.00    +0.086 C 
ATOM     21  C   UNL     1       2.159  -1.839   5.040  0.00  0.00    -0.059 C 
ATOM     22  H   UNL     1       0.951  -2.063   3.413  0.00  0.00    -0.081 HD
BRANCH  19  23
ATOM     23  C   UNL     1       0.138  -3.430   7.553  0.00  0.00    +0.065 A 
ATOM     24  C   UNL     1      -0.309  -4.722   7.793  0.00  0.00    +0.026 A 
ATOM     25  C   UNL     1      -0.559  -5.136   9.087  0.00  0.00    +0.002 A 
ATOM     26  C   UNL     1      -0.363  -4.265  10.144  0.00  0.00    +0.003 A 
ATOM     27  C   UNL     1       0.082  -2.977   9.910  0.00  0.00    +0.040 A 
ATOM     28  C   UNL     1       0.340  -2.558   8.617  0.00  0.00    +0.144 A 
ATOM     29  F   UNL     1       0.781  -1.302   8.389  0.00  0.00    -0.204 F 
ENDBRANCH  19  23
ENDBRANCH   1  16
BRANCH   1  30
ATOM     30  C   UNL     1       2.775  -0.458   2.538  0.00  0.00    +0.183 C 
ATOM     31  N   UNL     1       2.560  -1.748   1.855  0.00  0.00    -0.229 N 
ATOM     32  N   UNL     1       3.605  -2.581   2.272  0.00  0.00    -0.064 NA
ATOM     33  N   UNL     1       4.370  -2.024   3.054  0.00  0.00    -0.061 NA
ATOM     34  N   UNL     1       3.999  -0.697   3.325  0.00  0.00    -0.211 N 
ATOM     35  H   UNL     1       1.841  -1.973   1.243  0.00  0.00    +0.172 HD
BRANCH  34  36
ATOM     36  C   UNL     1       4.684   0.254   4.204  0.00  0.00    +0.047 C 
ATOM     37  C   UNL     1       3.935   0.346   5.535  0.00  0.00    +0.033 C 
ATOM     38  C   UNL     1       6.115  -0.224   4.456  0.00  0.00    +0.033 C 
ATOM     39  C   UNL     1       4.715   1.631   3.540  0.00  0.00    +0.033 C 
ENDBRANCH  34  36
ENDBRANCH   1  30
TORSDOF 5
