REMARK  Name = ZINC63572288
REMARK  6 active torsions:
REMARK  status: ('A' for Active; 'I' for Inactive)
REMARK    1  A    between atoms: C_1  and  C_2
REMARK    2  A    between atoms: C_2  and  C_3
REMARK    3  A    between atoms: C_3  and  N_4
REMARK    4  A    between atoms: C_20  and  C_22
REMARK    5  A    between atoms: C_25  and  O_28
REMARK    6  A    between atoms: O_28  and  C_29
REMARK                            x       y       z     vdW  Elec       q    Type
REMARK                         _______ _______ _______ _____ _____    ______ ____
ROOT
ATOM      1  N   UNL     1       2.863  -2.329  -0.557  0.00  0.00    -0.299 N 
ATOM      2  C   UNL     1       2.704  -2.834  -1.796  0.00  0.00    +0.303 C 
ATOM      3  O   UNL     1       2.994  -2.163  -2.768  0.00  0.00    -0.253 OA
ATOM      4  N   UNL     1       2.223  -4.082  -1.959  0.00  0.00    -0.276 N 
ATOM      5  C   UNL     1       1.759  -4.839  -0.792  0.00  0.00    +0.114 C 
ATOM      6  C   UNL     1       0.289  -5.249  -0.998  0.00  0.00    +0.052 C 
ATOM      7  C   UNL     1       0.182  -5.783  -2.404  0.00  0.00    -0.035 C 
ATOM      8  C   UNL     1      -0.314  -6.920  -2.876  0.00  0.00    +0.001 A 
ATOM      9  C   UNL     1      -1.036  -8.021  -2.219  0.00  0.00    +0.030 A 
ATOM     10  C   UNL     1      -1.390  -9.066  -3.014  0.00  0.00    +0.042 A 
ATOM     11  C   UNL     1      -1.101  -9.123  -4.382  0.00  0.00    +0.022 A 
ATOM     12  C   UNL     1      -0.449  -8.152  -5.070  0.00  0.00    +0.027 A 
ATOM     13  C   UNL     1      -0.033  -6.999  -4.342  0.00  0.00    +0.043 A 
ATOM     14  N   UNL     1       0.579  -5.926  -4.746  0.00  0.00    -0.375 N 
ATOM     15  C   UNL     1       0.707  -5.012  -3.610  0.00  0.00    +0.131 C 
ATOM     16  C   UNL     1       2.164  -4.669  -3.307  0.00  0.00    +0.134 C 
ATOM     17 CL   UNL     1      -2.245 -10.395  -2.296  0.00  0.00    -0.084 Cl
ATOM     18  H   UNL     1       2.564  -2.835   0.215  0.00  0.00    +0.150 HD
ATOM     19  H   UNL     1       0.897  -5.759  -5.647  0.00  0.00    +0.160 HD
ENDROOT
BRANCH  16  20
ATOM     20  C   UNL     1       2.673  -3.676  -4.320  0.00  0.00    -0.024 A 
ATOM     21  C   UNL     1       1.924  -2.553  -4.621  0.00  0.00    +0.009 A 
ATOM     22  C   UNL     1       2.389  -1.641  -5.549  0.00  0.00    +0.046 A 
ATOM     23  C   UNL     1       3.607  -1.852  -6.178  0.00  0.00    +0.120 A 
ATOM     24  C   UNL     1       4.356  -2.979  -5.874  0.00  0.00    +0.046 A 
ATOM     25  C   UNL     1       3.890  -3.886  -4.941  0.00  0.00    +0.009 A 
BRANCH  23  26
ATOM     26  O   UNL     1       4.066  -0.957  -7.092  0.00  0.00    -0.495 OA
ATOM     27  C   UNL     1       5.328  -1.239  -7.700  0.00  0.00    +0.277 C 
ENDBRANCH  23  26
ENDBRANCH  16  20
BRANCH   1  28
ATOM     28  C   UNL     1       3.487  -1.016  -0.375  0.00  0.00    +0.105 C 
BRANCH  28  30
ATOM     29  C   UNL     1       4.197   0.690   1.307  0.00  0.00    +0.005 C 
ATOM     30  C   UNL     1       3.546  -0.682   1.117  0.00  0.00    +0.015 C 
ENDBRANCH  28  30
ENDBRANCH   1  28
TORSDOF 4
