REMARK  Name = ZINC66595556
REMARK  5 active torsions:
REMARK  status: ('A' for Active; 'I' for Inactive)
REMARK    1  A    between atoms: C_1  and  C_2
REMARK    2  A    between atoms: C_7  and  N_10
REMARK    3  A    between atoms: C_11  and  C_13
REMARK    4  A    between atoms: C_13  and  N_14
REMARK    5  A    between atoms: N_22  and  C_23
REMARK                            x       y       z     vdW  Elec       q    Type
REMARK                         _______ _______ _______ _____ _____    ______ ____
ROOT
ATOM      1  N   UNL     1       1.473  -5.605   4.460  0.00  0.00    -0.291 NA
ATOM      2  C   UNL     1       0.062  -5.595   4.867  0.00  0.00    +0.104 C 
ATOM      3  C   UNL     1      -0.433  -7.037   5.021  0.00  0.00    +0.124 C 
ATOM      4  N   UNL     1       0.473  -7.746   5.938  0.00  0.00    -0.283 N 
ATOM      5  C   UNL     1       1.918  -7.686   5.671  0.00  0.00    +0.124 C 
ATOM      6  C   UNL     1       2.320  -6.219   5.492  0.00  0.00    +0.104 C 
ATOM      7  C   UNL     1      -0.008  -8.432   6.993  0.00  0.00    +0.302 C 
ATOM      8  O   UNL     1       0.745  -9.087   7.687  0.00  0.00    -0.253 OA
ATOM      9  N   UNL     1      -1.325  -8.393   7.279  0.00  0.00    -0.296 N 
ATOM     10  H   UNL     1      -1.937  -7.932   6.683  0.00  0.00    +0.151 HD
ENDROOT
BRANCH   9  11
ATOM     11  C   UNL     1      -1.832  -9.046   8.488  0.00  0.00    +0.075 C 
ATOM     12  C   UNL     1      -3.116  -9.867   8.361  0.00  0.00    +0.024 C 
ATOM     13  C   UNL     1      -3.139  -8.518   9.081  0.00  0.00    +0.024 C 
ENDBRANCH   9  11
BRANCH   1  14
ATOM     14  C   UNL     1       1.937  -4.250   4.135  0.00  0.00    +0.180 C 
BRANCH  14  16
ATOM     15  N   UNL     1       1.474  -2.519   2.429  0.00  0.00    -0.311 N 
ATOM     16  C   UNL     1       1.209  -3.748   2.915  0.00  0.00    +0.227 C 
ATOM     17  O   UNL     1       0.384  -4.451   2.370  0.00  0.00    -0.274 OA
ATOM     18  H   UNL     1       2.134  -1.958   2.865  0.00  0.00    +0.149 HD
BRANCH  15  24
ATOM     19  C   UNL     1      -0.015   1.537   0.026  0.00  0.00    +0.007 C 
ATOM     20  C   UNL     1       0.005   0.007   0.015  0.00  0.00    -0.012 C 
ATOM     21  C   UNL     1       0.721  -0.485  -1.244  0.00  0.00    +0.003 C 
ATOM     22  C   UNL     1       0.742  -2.015  -1.255  0.00  0.00    +0.002 C 
ATOM     23  C   UNL     1       1.481  -2.524  -0.016  0.00  0.00    +0.022 C 
ATOM     24  C   UNL     1       0.765  -2.032   1.243  0.00  0.00    +0.073 C 
ATOM     25  C   UNL     1       0.745  -0.502   1.254  0.00  0.00    +0.025 C 
ENDBRANCH  15  24
ENDBRANCH  14  16
ENDBRANCH   1  14
TORSDOF 4
