REMARK  Name = ZINC53854363
REMARK  5 active torsions:
REMARK  status: ('A' for Active; 'I' for Inactive)
REMARK    1  A    between atoms: C_1  and  C_2
REMARK    2  A    between atoms: C_2  and  C_4
REMARK    3  A    between atoms: C_2  and  N_16
REMARK    4  A    between atoms: C_17  and  C_19
REMARK    5  A    between atoms: C_21  and  C_24
REMARK                            x       y       z     vdW  Elec       q    Type
REMARK                         _______ _______ _______ _____ _____    ______ ____
ROOT
ATOM      1  N   UNL     1       0.711  -0.489   1.189  0.00  0.00    -0.303 N 
ATOM      2  C   UNL     1       0.051  -0.633   2.355  0.00  0.00    +0.266 C 
ATOM      3  O   UNL     1      -1.131  -0.361   2.423  0.00  0.00    -0.268 OA
ATOM      4  H   UNL     1       1.654  -0.707   1.135  0.00  0.00    +0.150 HD
ENDROOT
BRANCH   2   5
ATOM      5  C   UNL     1       0.769  -1.125   3.557  0.00  0.00    +0.168 A 
ATOM      6  C   UNL     1       0.205  -1.328   4.835  0.00  0.00    +0.086 A 
ATOM      7  C   UNL     1       1.186  -1.783   5.658  0.00  0.00    +0.168 A 
ATOM      8  O   UNL     1       2.322  -1.867   4.941  0.00  0.00    -0.354 OA
ATOM      9  N   UNL     1       2.038  -1.453   3.618  0.00  0.00    -0.073 NA
BRANCH   7  10
ATOM     10  C   UNL     1       1.034  -2.125   7.088  0.00  0.00    +0.021 A 
ATOM     11  C   UNL     1      -0.209  -1.996   7.711  0.00  0.00    +0.012 A 
ATOM     12  C   UNL     1      -0.346  -2.316   9.046  0.00  0.00    +0.002 A 
ATOM     13  C   UNL     1       0.746  -2.765   9.768  0.00  0.00    +0.020 A 
ATOM     14  C   UNL     1       1.981  -2.895   9.157  0.00  0.00    +0.042 A 
ATOM     15  C   UNL     1       2.130  -2.583   7.820  0.00  0.00    +0.031 A 
ATOM     16 CL   UNL     1       3.345  -3.458  10.072  0.00  0.00    -0.084 Cl
ENDBRANCH   7  10
ENDBRANCH   2   5
BRANCH   1  18
ATOM     17  C   UNL     1      -0.019   1.526   0.010  0.00  0.00    +0.033 C 
ATOM     18  C   UNL     1       0.002  -0.004   0.002  0.00  0.00    +0.101 C 
BRANCH  18  19
ATOM     19  C   UNL     1       0.707  -0.490  -1.238  0.00  0.00    -0.025 A 
ATOM     20  C   UNL     1       2.091  -0.510  -1.281  0.00  0.00    +0.007 A 
ATOM     21  C   UNL     1       2.747  -0.953  -2.413  0.00  0.00    +0.028 A 
ATOM     22  C   UNL     1       2.015  -1.381  -3.510  0.00  0.00    +0.067 A 
ATOM     23  C   UNL     1       0.620  -1.361  -3.467  0.00  0.00    +0.067 A 
ATOM     24  C   UNL     1      -0.029  -0.919  -2.324  0.00  0.00    +0.033 A 
ATOM     25  N   UNL     1       0.172  -1.841  -4.696  0.00  0.00    -0.306 N 
ATOM     26  H   UNL     1      -0.755  -1.943  -4.962  0.00  0.00    +0.170 HD
ATOM     27  C   UNL     1       1.246  -2.139  -5.451  0.00  0.00    +0.325 A 
ATOM     28  O   UNL     1       1.205  -2.582  -6.584  0.00  0.00    -0.247 OA
ATOM     29  N   UNL     1       2.373  -1.872  -4.764  0.00  0.00    -0.306 N 
ATOM     30  H   UNL     1       3.278  -2.000  -5.087  0.00  0.00    +0.170 HD
ENDBRANCH  18  19
ENDBRANCH   1  18
TORSDOF 4
