REMARK  Name = ZINC16195538
REMARK  9 active torsions:
REMARK  status: ('A' for Active; 'I' for Inactive)
REMARK    1  A    between atoms: C_1  and  O_2
REMARK    2  A    between atoms: O_2  and  C_3
REMARK    3  A    between atoms: C_5  and  C_19
REMARK    4  A    between atoms: C_8  and  O_9
REMARK    5  A    between atoms: O_9  and  C_10
REMARK    6  A    between atoms: C_10  and  C_11
REMARK    7  A    between atoms: C_19  and  N_50
REMARK    8  A    between atoms: C_20  and  C_21
REMARK    9  A    between atoms: C_20  and  N_50
REMARK                            x       y       z     vdW  Elec       q    Type
REMARK                         _______ _______ _______ _____ _____    ______ ____
ROOT
ATOM      1  C   UNL     1      -2.424   1.283  -2.894  0.00  0.00    +0.163 A 
ATOM      2  C   UNL     1      -1.750   0.823  -1.774  0.00  0.00    +0.051 A 
ATOM      3  C   UNL     1      -0.742   1.585  -1.213  0.00  0.00    -0.060 A 
ATOM      4  C   UNL     1      -0.397   2.801  -1.773  0.00  0.00    +0.021 A 
ATOM      5  C   UNL     1      -1.062   3.263  -2.894  0.00  0.00    +0.063 A 
ATOM      6  C   UNL     1      -2.078   2.506  -3.458  0.00  0.00    +0.176 A 
ATOM      7 BR   UNL     1      -0.588   4.928  -3.656  0.00  0.00    -0.046 Br
ENDROOT
BRANCH   1   9
ATOM      8  C   UNL     1      -3.721  -0.709  -2.811  0.00  0.00    +0.277 C 
ATOM      9  O   UNL     1      -3.420   0.537  -3.443  0.00  0.00    -0.491 OA
ENDBRANCH   1   9
BRANCH   6  10
ATOM     10  O   UNL     1      -2.733   2.959  -4.560  0.00  0.00    -0.483 OA
BRANCH  10  11
ATOM     11  C   UNL     1      -2.196   2.590  -5.832  0.00  0.00    +0.264 C 
BRANCH  11  12
ATOM     12  C   UNL     1      -3.048   3.178  -6.927  0.00  0.00    -0.010 A 
ATOM     13  C   UNL     1      -4.114   2.458  -7.434  0.00  0.00    +0.010 A 
ATOM     14  C   UNL     1      -4.899   2.998  -8.435  0.00  0.00    +0.039 A 
ATOM     15  C   UNL     1      -4.611   4.256  -8.938  0.00  0.00    +0.123 A 
ATOM     16  C   UNL     1      -3.539   4.973  -8.433  0.00  0.00    +0.039 A 
ATOM     17  C   UNL     1      -2.759   4.433  -7.428  0.00  0.00    +0.010 A 
ATOM     18  F   UNL     1      -5.375   4.783  -9.919  0.00  0.00    -0.205 F 
ENDBRANCH  11  12
ENDBRANCH  10  11
ENDBRANCH   6  10
BRANCH   3  19
ATOM     19  C   UNL     1      -0.013   1.086   0.008  0.00  0.00    -0.046 C 
BRANCH  19  20
ATOM     20  N   UNL     1      -0.709   1.566   1.217  0.00  0.00    +0.384 N 
ATOM     21  H   UNL     1      -1.672   1.210   1.216  0.00  0.00    -0.085 HD
ATOM     22  H   UNL     1      -0.723   2.592   1.214  0.00  0.00    -0.085 HD
BRANCH  20  23
ATOM     23  C   UNL     1      -0.016   1.091   2.429  0.00  0.00    -0.046 C 
BRANCH  23  24
ATOM     24  C   UNL     1      -0.749   1.596   3.646  0.00  0.00    -0.061 A 
ATOM     25  C   UNL     1      -0.402   2.812   4.205  0.00  0.00    +0.005 A 
ATOM     26  C   UNL     1      -1.074   3.281   5.317  0.00  0.00    +0.050 A 
ATOM     27  C   UNL     1      -2.091   2.528   5.883  0.00  0.00    +0.166 A 
ATOM     28  C   UNL     1      -2.437   1.301   5.322  0.00  0.00    +0.166 A 
ATOM     29  C   UNL     1      -1.762   0.839   4.204  0.00  0.00    +0.051 A 
ATOM     30  O   UNL     1      -3.455   0.759   6.053  0.00  0.00    -0.453 OA
ATOM     31  C   UNL     1      -3.453   1.474   7.303  0.00  0.00    +0.466 C 
ATOM     32  O   UNL     1      -2.892   2.756   6.964  0.00  0.00    -0.453 OA
ENDBRANCH  23  24
ENDBRANCH  20  23
ENDBRANCH  19  20
ENDBRANCH   3  19
TORSDOF 8
