REMARK  Name = ZINC63941179
REMARK  10 active torsions:
REMARK  status: ('A' for Active; 'I' for Inactive)
REMARK    1  A    between atoms: C_1  and  C_2
REMARK    2  A    between atoms: C_8  and  C_11
REMARK    3  A    between atoms: C_11  and  C_12
REMARK    4  A    between atoms: C_12  and  N_13
REMARK    5  A    between atoms: C_15  and  C_20
REMARK    6  A    between atoms: N_22  and  C_23
REMARK    7  A    between atoms: C_27  and  C_30
REMARK    8  A    between atoms: C_30  and  C_31
REMARK    9  A    between atoms: C_31  and  C_32
REMARK   10  A    between atoms: C_31  and  C_33
REMARK                            x       y       z     vdW  Elec       q    Type
REMARK                         _______ _______ _______ _____ _____    ______ ____
ROOT
ATOM      1  N   UNL     1      -1.377  -2.600   5.613  0.00  0.00    -0.300 N 
ATOM      2  C   UNL     1      -1.248  -3.644   6.637  0.00  0.00    +0.121 C 
ATOM      3  C   UNL     1      -0.861  -2.901   7.936  0.00  0.00    +0.101 C 
ATOM      4  C   UNL     1      -1.441  -1.492   7.677  0.00  0.00    +0.110 C 
ATOM      5  C   UNL     1      -1.487  -1.381   6.169  0.00  0.00    +0.216 C 
ATOM      6  O   UNL     1      -1.608  -0.345   5.552  0.00  0.00    -0.276 OA
ENDROOT
BRANCH   3   7
ATOM      7  C   UNL     1      -1.510  -3.541   9.136  0.00  0.00    +0.220 C 
ATOM      8  O   UNL     1      -2.226  -4.509   8.994  0.00  0.00    -0.275 OA
ATOM      9  N   UNL     1      -1.294  -3.036  10.367  0.00  0.00    -0.290 N 
ATOM     10  H   UNL     1      -0.722  -2.262  10.480  0.00  0.00    +0.151 HD
BRANCH   9  11
ATOM     11  C   UNL     1      -1.925  -3.658  11.534  0.00  0.00    +0.216 C 
ATOM     12  N   UNL     1      -3.343  -3.212  11.695  0.00  0.00    -0.227 NA
ATOM     13  N   UNL     1      -3.811  -3.351  13.059  0.00  0.00    -0.241 NA
ATOM     14  C   UNL     1      -2.785  -3.152  14.111  0.00  0.00    +0.130 C 
ATOM     15  S   UNL     1      -1.241  -2.986  13.115  0.00  0.00    -0.102 S 
ATOM     16  H   UNL     1      -3.464  -2.265  11.366  0.00  0.00    +0.143 HD
ATOM     17  H   UNL     1      -4.296  -4.226  13.187  0.00  0.00    +0.142 HD
BRANCH  14  18
ATOM     18  C   UNL     1      -3.062  -1.877  14.910  0.00  0.00    +0.034 C 
BRANCH  18  19
ATOM     19  C   UNL     1      -1.986  -1.704  15.984  0.00  0.00    -0.015 C 
ATOM     20  C   UNL     1      -2.190  -0.368  16.700  0.00  0.00    +0.007 C 
ATOM     21  C   UNL     1      -2.089  -2.847  16.997  0.00  0.00    +0.007 C 
ENDBRANCH  18  19
ENDBRANCH  14  18
ENDBRANCH   9  11
ENDBRANCH   3   7
BRANCH   1  22
ATOM     22  C   UNL     1      -1.379  -2.854   4.170  0.00  0.00    +0.112 C 
BRANCH  22  23
ATOM     23  C   UNL     1       0.055  -2.799   3.641  0.00  0.00    +0.052 C 
BRANCH  23  31
ATOM     24  C   UNL     1      -0.018   1.503   0.010  0.00  0.00    +0.044 C 
ATOM     25  C   UNL     1       0.002  -0.004   0.002  0.00  0.00    -0.050 A 
ATOM     26  C   UNL     1       0.005  -0.680  -1.226  0.00  0.00    +0.005 A 
ATOM     27  C   UNL     1       0.023  -2.026  -1.317  0.00  0.00    +0.026 A 
ATOM     28  C   UNL     1       0.039  -2.826  -0.141  0.00  0.00    +0.043 A 
ATOM     29  N   UNL     1       0.057  -4.126   0.030  0.00  0.00    -0.380 N 
ATOM     30  C   UNL     1       0.067  -4.408   1.470  0.00  0.00    +0.144 C 
ATOM     31  C   UNL     1       0.052  -3.060   2.156  0.00  0.00    -0.040 C 
ATOM     32  C   UNL     1       0.036  -2.137   1.168  0.00  0.00    -0.001 A 
ATOM     33  C   UNL     1       0.022  -0.669   1.180  0.00  0.00    +0.013 A 
ATOM     34  H   UNL     1       0.062  -4.790  -0.677  0.00  0.00    +0.160 HD
ENDBRANCH  23  31
ENDBRANCH  22  23
ENDBRANCH   1  22
TORSDOF 7
