REMARK  Name = ZINC04879321
REMARK  7 active torsions:
REMARK  status: ('A' for Active; 'I' for Inactive)
REMARK    1  A    between atoms: C_1  and  C_2
REMARK    2  A    between atoms: C_3  and  C_12
REMARK    3  A    between atoms: C_12  and  C_14
REMARK    4  A    between atoms: C_14  and  C_16
REMARK    5  A    between atoms: C_14  and  S_17
REMARK    6  A    between atoms: S_17  and  C_18
REMARK    7  A    between atoms: C_20  and  C_24
REMARK                            x       y       z     vdW  Elec       q    Type
REMARK                         _______ _______ _______ _____ _____    ______ ____
ROOT
ATOM      1  C   UNL     1       0.121   0.881  -2.966  0.00  0.00    +0.122 C 
ATOM      2  C   UNL     1       1.598   1.228  -3.159  0.00  0.00    +0.028 C 
ENDROOT
BRANCH   1   3
ATOM      3  C   UNL     1      -0.005  -0.557  -2.534  0.00  0.00    +0.178 C 
ATOM      4  O   UNL     1      -0.184  -1.426  -3.363  0.00  0.00    -0.291 OA
BRANCH   3   7
ATOM      5  C   UNL     1      -2.358  -0.463  -0.518  0.00  0.00    +0.064 C 
ATOM      6  C   UNL     1      -0.935  -0.867  -0.233  0.00  0.00    +0.024 A 
ATOM      7  C   UNL     1       0.084  -0.895  -1.161  0.00  0.00    +0.046 A 
ATOM      8  C   UNL     1       1.288  -1.349  -0.436  0.00  0.00    +0.010 A 
ATOM      9  C   UNL     1       2.610  -1.578  -0.806  0.00  0.00    +0.011 A 
ATOM     10  C   UNL     1       3.517  -2.011   0.137  0.00  0.00    +0.001 A 
ATOM     11  C   UNL     1       3.116  -2.219   1.448  0.00  0.00    +0.002 A 
ATOM     12  C   UNL     1       1.811  -1.996   1.828  0.00  0.00    +0.026 A 
ATOM     13  C   UNL     1       0.880  -1.558   0.890  0.00  0.00    +0.047 A 
ATOM     14  N   UNL     1      -0.463  -1.250   0.969  0.00  0.00    -0.358 N 
ATOM     15  H   UNL     1      -0.995  -1.305   1.778  0.00  0.00    +0.166 HD
ENDBRANCH   3   7
ENDBRANCH   1   3
BRANCH   1  16
ATOM     16  S   UNL     1      -0.766   1.123  -4.530  0.00  0.00    -0.075 S 
BRANCH  16  17
ATOM     17  C   UNL     1      -0.653   2.857  -4.821  0.00  0.00    +0.185 A 
ATOM     18  N   UNL     1      -0.050   3.732  -4.046  0.00  0.00    -0.201 NA
ATOM     19  C   UNL     1      -0.163   4.958  -4.579  0.00  0.00    +0.185 A 
ATOM     20  N   UNL     1      -0.842   4.874  -5.700  0.00  0.00    -0.151 NA
ATOM     21  H   UNL     1      -1.663   3.135  -6.620  0.00  0.00    +0.191 HD
ATOM     22  N   UNL     1      -1.166   3.519  -5.881  0.00  0.00    -0.253 N 
BRANCH  19  23
ATOM     23  C   UNL     1       0.389   6.206  -3.996  0.00  0.00    +0.056 A 
ATOM     24  C   UNL     1       1.099   6.164  -2.798  0.00  0.00    +0.014 A 
ATOM     25  C   UNL     1       1.611   7.327  -2.260  0.00  0.00    +0.001 A 
ATOM     26  C   UNL     1       1.419   8.535  -2.907  0.00  0.00    +0.003 A 
ATOM     27  C   UNL     1       0.716   8.585  -4.096  0.00  0.00    +0.039 A 
ATOM     28  C   UNL     1       0.203   7.425  -4.648  0.00  0.00    +0.134 A 
ATOM     29  F   UNL     1      -0.479   7.473  -5.813  0.00  0.00    -0.205 F 
ENDBRANCH  19  23
ENDBRANCH  16  17
ENDBRANCH   1  16
TORSDOF 5
