REMARK  Name = ZINC11497695
REMARK  10 active torsions:
REMARK  status: ('A' for Active; 'I' for Inactive)
REMARK    1  A    between atoms: C_1  and  C_2
REMARK    2  A    between atoms: C_5  and  S_8
REMARK    3  A    between atoms: S_8  and  N_11
REMARK    4  A    between atoms: C_17  and  C_18
REMARK    5  A    between atoms: C_17  and  N_64
REMARK    6  A    between atoms: N_20  and  C_21
REMARK    7  A    between atoms: C_21  and  C_23
REMARK    8  A    between atoms: C_21  and  C_29
REMARK    9  A    between atoms: C_29  and  C_30
REMARK   10  A    between atoms: C_29  and  C_31
REMARK                            x       y       z     vdW  Elec       q    Type
REMARK                         _______ _______ _______ _____ _____    ______ ____
ROOT
ATOM      1  N   UNL     1      -1.212  -1.221   6.878  0.00  0.00    -0.178 NA
ATOM      2  C   UNL     1       0.233  -1.158   6.910  0.00  0.00    +0.107 C 
ATOM      3  C   UNL     1       0.698   0.268   6.519  0.00  0.00    -0.001 C 
ATOM      4  C   UNL     1       0.426   0.506   5.089  0.00  0.00    -0.077 C 
ATOM      5  C   UNL     1      -1.386  -0.902   4.409  0.00  0.00    -0.061 C 
ATOM      6  C   UNL     1      -1.973  -1.577   5.663  0.00  0.00    +0.091 C 
ATOM      7  N   UNL     1      -1.003   0.461   4.748  0.00  0.00    +0.386 N 
ATOM      8  H   UNL     1      -1.551   0.770   5.560  0.00  0.00    -0.081 HD
ENDROOT
BRANCH   1   9
ATOM      9  S   UNL     1      -2.050  -0.879   8.265  0.00  0.00    +0.061 S 
ATOM     10  O   UNL     1      -3.308  -1.528   8.149  0.00  0.00    -0.153 OA
ATOM     11  O   UNL     1      -1.162  -1.124   9.347  0.00  0.00    -0.153 OA
BRANCH   9  16
ATOM     12  C   UNL     1      -3.164   5.051   8.259  0.00  0.00    +0.044 C 
ATOM     13  C   UNL     1      -2.886   3.570   8.260  0.00  0.00    -0.050 A 
ATOM     14  C   UNL     1      -3.789   2.696   7.685  0.00  0.00    +0.005 A 
ATOM     15  C   UNL     1      -3.534   1.338   7.686  0.00  0.00    +0.029 A 
ATOM     16  C   UNL     1      -2.375   0.853   8.263  0.00  0.00    +0.105 A 
ATOM     17  C   UNL     1      -1.474   1.726   8.842  0.00  0.00    +0.029 A 
ATOM     18  C   UNL     1      -1.727   3.085   8.837  0.00  0.00    +0.005 A 
ENDBRANCH   9  16
ENDBRANCH   1   9
BRANCH   7  19
ATOM     19  C   UNL     1      -1.281   1.363   3.609  0.00  0.00    +0.019 C 
BRANCH  19  20
ATOM     20  C   UNL     1      -0.575   0.877   2.369  0.00  0.00    +0.197 C 
ATOM     21  O   UNL     1       0.103  -0.128   2.412  0.00  0.00    -0.278 OA
ATOM     22  N   UNL     1      -0.698   1.558   1.213  0.00  0.00    -0.310 N 
ATOM     23  H   UNL     1      -1.241   2.362   1.179  0.00  0.00    +0.149 HD
BRANCH  22  24
ATOM     24  C   UNL     1      -0.013   1.086   0.008  0.00  0.00    +0.106 C 
BRANCH  24  25
ATOM     25  C   UNL     1      -0.742   1.585  -1.213  0.00  0.00    -0.027 A 
ATOM     26  C   UNL     1      -1.257   2.868  -1.234  0.00  0.00    +0.005 A 
ATOM     27  C   UNL     1      -1.922   3.327  -2.355  0.00  0.00    +0.000 A 
ATOM     28  C   UNL     1      -2.079   2.501  -3.452  0.00  0.00    +0.000 A 
ATOM     29  C   UNL     1      -1.568   1.216  -3.430  0.00  0.00    +0.000 A 
ATOM     30  C   UNL     1      -0.899   0.759  -2.310  0.00  0.00    +0.005 A 
ENDBRANCH  24  25
BRANCH  24  31
ATOM     31  C   UNL     1       1.423   1.615  -0.003  0.00  0.00    +0.008 C 
ATOM     32  C   UNL     1       2.139   1.122  -1.262  0.00  0.00    +0.009 C 
ATOM     33  C   UNL     1       1.402   3.145   0.006  0.00  0.00    +0.009 C 
ENDBRANCH  24  31
ENDBRANCH  22  24
ENDBRANCH  19  20
ENDBRANCH   7  19
TORSDOF 7
