REMARK  Name = ZINC15934230
REMARK  6 active torsions:
REMARK  status: ('A' for Active; 'I' for Inactive)
REMARK    1  A    between atoms: C_1  and  C_2
REMARK    2  A    between atoms: C_2  and  C_3
REMARK    3  A    between atoms: C_6  and  N_9
REMARK    4  A    between atoms: N_12  and  C_13
REMARK    5  A    between atoms: C_13  and  C_15
REMARK    6  A    between atoms: C_13  and  C_16
REMARK                            x       y       z     vdW  Elec       q    Type
REMARK                         _______ _______ _______ _____ _____    ______ ____
ROOT
ATOM      1  N   UNL     1      -5.320  -1.968   0.042  0.00  0.00    -0.269 N 
ATOM      2  C   UNL     1      -5.997  -2.105  -1.115  0.00  0.00    +0.304 C 
ATOM      3  O   UNL     1      -5.438  -1.894  -2.175  0.00  0.00    -0.252 OA
ATOM      4  N   UNL     1      -7.293  -2.475  -1.099  0.00  0.00    -0.293 N 
ATOM      5  H   UNL     1      -5.742  -2.210   0.882  0.00  0.00    +0.156 HD
ATOM      6  H   UNL     1      -7.738  -2.643  -0.254  0.00  0.00    +0.151 HD
ENDROOT
BRANCH   1  10
ATOM      7  C   UNL     1      -1.419  -0.506   0.015  0.00  0.00    -0.048 A 
ATOM      8  C   UNL     1      -2.334  -0.049  -0.916  0.00  0.00    +0.005 A 
ATOM      9  C   UNL     1      -3.627  -0.532  -0.910  0.00  0.00    +0.023 A 
ATOM     10  C   UNL     1      -4.010  -1.477   0.033  0.00  0.00    +0.035 A 
ATOM     11  C   UNL     1      -3.089  -1.933   0.967  0.00  0.00    +0.023 A 
ATOM     12  C   UNL     1      -1.795  -1.450   0.952  0.00  0.00    +0.005 A 
BRANCH   7  14
ATOM     13  C   UNL     1       0.858  -0.850  -0.904  0.00  0.00    +0.009 C 
ATOM     14  C   UNL     1      -0.008   0.024   0.005  0.00  0.00    +0.032 C 
ENDBRANCH   7  14
ENDBRANCH   1  10
BRANCH   4  15
ATOM     15  C   UNL     1      -8.028  -2.624  -2.357  0.00  0.00    +0.102 C 
ATOM     16  C   UNL     1      -7.787  -4.024  -2.926  0.00  0.00    +0.033 C 
BRANCH  15  17
ATOM     17  C   UNL     1      -9.501  -2.431  -2.103  0.00  0.00    -0.024 A 
ATOM     18  C   UNL     1     -10.078  -2.953  -0.961  0.00  0.00    +0.009 A 
ATOM     19  C   UNL     1     -11.429  -2.778  -0.724  0.00  0.00    +0.050 A 
ATOM     20  C   UNL     1     -12.208  -2.080  -1.632  0.00  0.00    +0.166 A 
ATOM     21  C   UNL     1     -11.627  -1.555  -2.783  0.00  0.00    +0.167 A 
ATOM     22  C   UNL     1     -10.271  -1.729  -3.012  0.00  0.00    +0.055 A 
ATOM     23  O   UNL     1     -12.592  -0.919  -3.509  0.00  0.00    -0.453 OA
ATOM     24  C   UNL     1     -13.845  -1.410  -2.995  0.00  0.00    +0.466 C 
ATOM     25  O   UNL     1     -13.538  -1.773  -1.636  0.00  0.00    -0.453 OA
ENDBRANCH  15  17
ENDBRANCH   4  15
TORSDOF 4
