REMARK  Name = ZINC63515322
REMARK  10 active torsions:
REMARK  status: ('A' for Active; 'I' for Inactive)
REMARK    1  A    between atoms: C_1  and  C_2
REMARK    2  A    between atoms: C_2  and  O_3
REMARK    3  A    between atoms: O_3  and  C_4
REMARK    4  A    between atoms: C_4  and  C_6
REMARK    5  A    between atoms: C_7  and  C_22
REMARK    6  A    between atoms: C_12  and  C_14
REMARK    7  A    between atoms: C_16  and  C_21
REMARK    8  A    between atoms: C_19  and  C_20
REMARK    9  A    between atoms: C_22  and  S_23
REMARK   10  A    between atoms: S_23  and  C_24
REMARK                            x       y       z     vdW  Elec       q    Type
REMARK                         _______ _______ _______ _____ _____    ______ ____
ROOT
ATOM      1  C   UNL     1      -2.878  -2.107   0.082  0.00  0.00    +0.079 C 
ATOM      2  C   UNL     1      -3.026  -3.447  -0.004  0.00  0.00    +0.034 C 
ATOM      3  N   UNL     1      -4.265  -4.016  -0.084  0.00  0.00    -0.272 N 
ATOM      4  C   UNL     1      -5.406  -3.315  -0.083  0.00  0.00    +0.304 C 
ATOM      5  O   UNL     1      -6.462  -3.911  -0.158  0.00  0.00    -0.252 OA
ATOM      6  N   UNL     1      -5.420  -1.969  -0.002  0.00  0.00    -0.288 N 
ATOM      7  C   UNL     1      -4.134  -1.259   0.094  0.00  0.00    +0.144 C 
ATOM      8  H   UNL     1      -4.322  -4.982  -0.144  0.00  0.00    +0.156 HD
ATOM      9  H   UNL     1      -6.258  -1.481  -0.004  0.00  0.00    +0.151 HD
ENDROOT
BRANCH   7  10
ATOM     10  C   UNL     1      -4.137  -0.452   1.366  0.00  0.00    -0.019 A 
ATOM     11  C   UNL     1      -4.760  -0.947   2.497  0.00  0.00    +0.009 A 
ATOM     12  C   UNL     1      -4.763  -0.206   3.664  0.00  0.00    -0.050 A 
ATOM     13  C   UNL     1      -4.143   1.029   3.701  0.00  0.00    +0.003 A 
ATOM     14  C   UNL     1      -3.520   1.523   2.571  0.00  0.00    +0.004 A 
ATOM     15  C   UNL     1      -3.513   0.781   1.405  0.00  0.00    -0.045 A 
ATOM     16  C   UNL     1      -2.829   1.317   0.174  0.00  0.00    +0.044 C 
ATOM     17  C   UNL     1      -5.442  -0.746   4.897  0.00  0.00    +0.044 C 
ENDBRANCH   7  10
BRANCH   1  18
ATOM     18  C   UNL     1      -1.596  -1.517   0.165  0.00  0.00    +0.339 C 
ATOM     19  O   UNL     1      -1.173  -1.129   1.238  0.00  0.00    -0.245 OA
BRANCH  18  20
ATOM     20  O   UNL     1      -0.841  -1.384  -0.946  0.00  0.00    -0.462 OA
BRANCH  20  22
ATOM     21  C   UNL     1       1.141  -0.690  -2.141  0.00  0.00    +0.048 C 
ATOM     22  C   UNL     1       0.486  -0.884  -0.772  0.00  0.00    +0.229 C 
ENDBRANCH  20  22
ENDBRANCH  18  20
ENDBRANCH   1  18
BRANCH   2  23
ATOM     23  C   UNL     1      -1.804  -4.329  -0.013  0.00  0.00    +0.124 C 
BRANCH  23  24
ATOM     24  S   UNL     1      -1.624  -5.131   1.604  0.00  0.00    -0.109 S 
BRANCH  24  25
ATOM     25  C   UNL     1      -0.128  -6.141   1.428  0.00  0.00    +0.237 C 
ATOM     26  N   UNL     1       1.019  -5.289   1.092  0.00  0.00    -0.354 N 
ATOM     27  C   UNL     1       1.470  -5.682  -0.062  0.00  0.00    +0.080 A 
ATOM     28  C   UNL     1       2.586  -5.224  -0.910  0.00  0.00    +0.030 A 
ATOM     29  C   UNL     1       2.788  -5.869  -2.084  0.00  0.00    +0.022 A 
ATOM     30  C   UNL     1       1.956  -6.936  -2.472  0.00  0.00    +0.113 A 
ATOM     31  N   UNL     1       0.962  -7.369  -1.753  0.00  0.00    -0.236 NA
ATOM     32  C   UNL     1       0.649  -6.817  -0.559  0.00  0.00    +0.152 A 
ATOM     33  N   UNL     1      -0.285  -7.085   0.315  0.00  0.00    -0.340 N 
ATOM     34  H   UNL     1      -0.959  -7.779   0.241  0.00  0.00    +0.164 HD
ATOM     35  H   UNL     1       1.375  -4.566   1.631  0.00  0.00    +0.163 HD
ENDBRANCH  24  25
ENDBRANCH  23  24
ENDBRANCH   2  23
TORSDOF 7
