REMARK  Name = ZINC36595373
REMARK  12 active torsions:
REMARK  status: ('A' for Active; 'I' for Inactive)
REMARK    1  A    between atoms: C_1  and  C_2
REMARK    2  A    between atoms: C_5  and  S_8
REMARK    3  A    between atoms: S_8  and  C_11
REMARK    4  A    between atoms: C_11  and  N_12
REMARK    5  A    between atoms: C_13  and  C_15
REMARK    6  A    between atoms: C_15  and  C_17
REMARK    7  A    between atoms: C_15  and  N_22
REMARK    8  A    between atoms: N_22  and  C_23
REMARK    9  A    between atoms: C_23  and  C_24
REMARK   10  A    between atoms: C_27  and  C_29
REMARK   11  A    between atoms: C_30  and  C_32
REMARK   12  A    between atoms: C_37  and  O_38
REMARK                            x       y       z     vdW  Elec       q    Type
REMARK                         _______ _______ _______ _____ _____    ______ ____
ROOT
ATOM      1  C   UNL     1       3.468  -5.366   3.298  0.00  0.00    +0.229 C 
ENDROOT
BRANCH   1   2
ATOM      2  C   UNL     1       2.415  -4.419   3.813  0.00  0.00    +0.134 A 
ATOM      3  C   UNL     1       2.508  -3.077   3.839  0.00  0.00    +0.047 A 
ATOM      4  C   UNL     1       1.303  -2.594   4.398  0.00  0.00    +0.041 A 
ATOM      5  C   UNL     1       0.545  -3.668   4.681  0.00  0.00    +0.195 A 
ATOM      6  O   UNL     1       1.222  -4.771   4.319  0.00  0.00    -0.465 OA
ENDBRANCH   1   2
BRANCH   1   8
ATOM      7  N   UNL     1       4.676  -4.110   1.543  0.00  0.00    -0.294 N 
ATOM      8  C   UNL     1       3.764  -5.052   1.855  0.00  0.00    +0.242 C 
ATOM      9  O   UNL     1       3.180  -5.646   0.973  0.00  0.00    -0.273 OA
ATOM     10  H   UNL     1       5.233  -3.726   2.238  0.00  0.00    +0.150 HD
BRANCH   7  11
ATOM     11  C   UNL     1       4.827  -3.667   0.155  0.00  0.00    +0.278 C 
BRANCH  11  12
ATOM     12  S   UNL     1       3.965  -2.087  -0.073  0.00  0.00    +0.013 S 
ATOM     13  O   UNL     1       2.612  -2.203   0.345  0.00  0.00    -0.168 OA
ATOM     14  O   UNL     1       4.287  -1.532  -1.341  0.00  0.00    -0.168 OA
BRANCH  12  19
ATOM     15  C   UNL     1       6.496   1.653   3.929  0.00  0.00    +0.044 C 
ATOM     16  C   UNL     1       5.864   0.719   2.930  0.00  0.00    -0.050 A 
ATOM     17  C   UNL     1       6.437   0.550   1.683  0.00  0.00    +0.005 A 
ATOM     18  C   UNL     1       5.857  -0.307   0.766  0.00  0.00    +0.027 A 
ATOM     19  C   UNL     1       4.705  -0.996   1.096  0.00  0.00    +0.090 A 
ATOM     20  C   UNL     1       4.132  -0.828   2.343  0.00  0.00    +0.027 A 
ATOM     21  C   UNL     1       4.714   0.026   3.261  0.00  0.00    +0.005 A 
ENDBRANCH  12  19
ENDBRANCH  11  12
ENDBRANCH   7  11
ENDBRANCH   1   8
BRANCH   1  22
ATOM     22  N   UNL     1       2.982  -6.744   3.409  0.00  0.00    -0.272 N 
ATOM     23  C   UNL     1       1.747  -7.060   2.970  0.00  0.00    +0.251 C 
ATOM     24  O   UNL     1       1.374  -8.217   2.985  0.00  0.00    -0.270 OA
BRANCH  23  25
ATOM     25  C   UNL     1       0.848  -6.001   2.473  0.00  0.00    +0.078 A 
ATOM     26  C   UNL     1       1.359  -4.745   2.139  0.00  0.00    +0.017 A 
ATOM     27  C   UNL     1       0.513  -3.761   1.674  0.00  0.00    +0.001 A 
ATOM     28  C   UNL     1      -0.842  -4.012   1.536  0.00  0.00    +0.004 A 
ATOM     29  C   UNL     1      -1.360  -5.249   1.863  0.00  0.00    +0.046 A 
ATOM     30  C   UNL     1      -0.523  -6.253   2.327  0.00  0.00    +0.129 A 
BRANCH  30  31
ATOM     31  O   UNL     1      -1.030  -7.471   2.643  0.00  0.00    -0.506 OA
ATOM     32  H   UNL     1      -1.315  -7.551   3.564  0.00  0.00    +0.292 HD
ENDBRANCH  30  31
ENDBRANCH  23  25
BRANCH  22  33
ATOM     33  C   UNL     1       3.838  -7.778   3.995  0.00  0.00    +0.183 C 
BRANCH  33  34
ATOM     34  C   UNL     1       3.601  -7.842   5.482  0.00  0.00    +0.122 A 
ATOM     35  C   UNL     1       2.694  -8.620   6.101  0.00  0.00    +0.046 A 
ATOM     36  C   UNL     1       2.813  -8.364   7.487  0.00  0.00    +0.045 A 
ATOM     37  C   UNL     1       3.785  -7.445   7.631  0.00  0.00    +0.102 A 
ATOM     38  O   UNL     1       4.262  -7.137   6.414  0.00  0.00    -0.463 OA
ATOM     39  C   UNL     1       4.261  -6.864   8.938  0.00  0.00    +0.086 C 
ENDBRANCH  33  34
ENDBRANCH  22  33
ENDBRANCH   1  22
TORSDOF 10
