REMARK  Name = ZINC65265829
REMARK  6 active torsions:
REMARK  status: ('A' for Active; 'I' for Inactive)
REMARK    1  A    between atoms: C_1  and  O_2
REMARK    2  A    between atoms: O_2  and  C_3
REMARK    3  A    between atoms: C_3  and  C_4
REMARK    4  A    between atoms: C_4  and  N_5
REMARK    5  A    between atoms: N_19  and  S_21
REMARK    6  A    between atoms: S_21  and  C_24
REMARK                            x       y       z     vdW  Elec       q    Type
REMARK                         _______ _______ _______ _____ _____    ______ ____
ROOT
ATOM      1  N   UNL     1      -0.750  -2.723   1.193  0.00  0.00    -0.373 N 
ATOM      2  C   UNL     1      -0.473  -3.965   1.429  0.00  0.00    +0.094 C 
ATOM      3  N   UNL     1      -0.808  -4.959   0.542  0.00  0.00    -0.303 N 
ATOM      4  C   UNL     1       0.109  -5.322  -0.439  0.00  0.00    +0.037 A 
ATOM      5  C   UNL     1      -0.310  -5.497  -1.750  0.00  0.00    +0.023 A 
ATOM      6  C   UNL     1       0.594  -5.871  -2.724  0.00  0.00    +0.002 A 
ATOM      7  C   UNL     1       1.919  -6.069  -2.380  0.00  0.00    +0.000 A 
ATOM      8  C   UNL     1       2.337  -5.889  -1.079  0.00  0.00    +0.007 A 
ATOM      9  C   UNL     1       1.440  -5.505  -0.087  0.00  0.00    -0.012 A 
ATOM     10  C   UNL     1       2.004  -5.297   1.296  0.00  0.00    +0.119 C 
ATOM     11  N   UNL     1       1.032  -5.589   2.356  0.00  0.00    -0.299 NA
ATOM     12  C   UNL     1       0.232  -4.386   2.673  0.00  0.00    +0.089 C 
ATOM     13  C   UNL     1       1.147  -3.271   3.213  0.00  0.00    +0.048 C 
ATOM     14  C   UNL     1       1.239  -3.650   4.715  0.00  0.00    +0.112 C 
ATOM     15  N   UNL     1      -0.094  -4.181   5.056  0.00  0.00    -0.174 NA
ATOM     16  C   UNL     1      -0.736  -4.671   3.824  0.00  0.00    +0.139 C 
ATOM     17  H   UNL     1      -0.498  -2.040   1.834  0.00  0.00    +0.161 HD
ATOM     18  H   UNL     1       0.438  -6.363   2.099  0.00  0.00    +0.123 HD
ATOM     19  H   UNL     1      -1.670  -5.401   0.600  0.00  0.00    +0.153 HD
ENDROOT
BRANCH  15  20
ATOM     20  S   UNL     1      -0.760  -4.218   6.572  0.00  0.00    +0.062 S 
ATOM     21  O   UNL     1      -1.842  -5.137   6.518  0.00  0.00    -0.153 OA
ATOM     22  O   UNL     1       0.319  -4.364   7.486  0.00  0.00    -0.153 OA
BRANCH  20  23
ATOM     23  C   UNL     1      -1.462  -2.630   6.872  0.00  0.00    +0.124 A 
ATOM     24  C   UNL     1      -0.910  -1.799   7.828  0.00  0.00    +0.030 A 
ATOM     25  C   UNL     1      -1.460  -0.554   8.064  0.00  0.00    +0.002 A 
ATOM     26  C   UNL     1      -2.565  -0.138   7.343  0.00  0.00    +0.002 A 
ATOM     27  C   UNL     1      -3.118  -0.968   6.387  0.00  0.00    +0.022 A 
ATOM     28  C   UNL     1      -2.564  -2.213   6.147  0.00  0.00    +0.067 A 
ATOM     29 CL   UNL     1      -3.255  -3.253   4.941  0.00  0.00    -0.082 Cl
ENDBRANCH  20  23
ENDBRANCH  15  20
BRANCH   1  30
ATOM     30  C   UNL     1      -1.444  -2.350  -0.042  0.00  0.00    +0.141 C 
BRANCH  30  31
ATOM     31  C   UNL     1      -1.649  -0.834  -0.073  0.00  0.00    +0.180 C 
BRANCH  31  33
ATOM     32  C   UNL     1      -0.456   1.243  -0.176  0.00  0.00    +0.194 C 
ATOM     33  O   UNL     1      -0.378  -0.183  -0.142  0.00  0.00    -0.381 OA
ENDBRANCH  31  33
ENDBRANCH  30  31
ENDBRANCH   1  30
TORSDOF 5
