REMARK  Name = ZINC10083217
REMARK  6 active torsions:
REMARK  status: ('A' for Active; 'I' for Inactive)
REMARK    1  A    between atoms: C_1  and  C_2
REMARK    2  A    between atoms: C_5  and  C_8
REMARK    3  A    between atoms: C_11  and  S_14
REMARK    4  A    between atoms: N_12  and  N_13
REMARK    5  A    between atoms: S_14  and  C_15
REMARK    6  A    between atoms: C_24  and  C_26
REMARK                            x       y       z     vdW  Elec       q    Type
REMARK                         _______ _______ _______ _____ _____    ______ ____
ROOT
ATOM      1  C   UNL     1      -3.736   2.027  -1.270  0.00  0.00    +0.141 C 
ATOM      2  C   UNL     1      -4.382   1.169  -0.179  0.00  0.00    +0.024 C 
ATOM      3  C   UNL     1      -3.591   1.256   1.113  0.00  0.00    +0.003 C 
ATOM      4  C   UNL     1      -3.625   2.629   1.760  0.00  0.00    +0.019 C 
ATOM      5  C   UNL     1      -2.889   3.657   0.899  0.00  0.00    +0.117 C 
ATOM      6  N   UNL     1      -3.830   4.199  -0.095  0.00  0.00    -0.237 N 
ATOM      7  C   UNL     1      -4.236   3.449  -1.120  0.00  0.00    +0.235 C 
ATOM      8  O   UNL     1      -5.007   3.907  -1.936  0.00  0.00    -0.274 OA
ATOM      9  C   UNL     1      -4.285   5.461   0.033  0.00  0.00    +0.253 C 
ATOM     10  O   UNL     1      -5.127   5.884  -0.733  0.00  0.00    -0.270 OA
ENDROOT
BRANCH   9  11
ATOM     11  C   UNL     1      -3.758   6.331   1.105  0.00  0.00    +0.037 A 
ATOM     12  C   UNL     1      -3.413   5.786   2.343  0.00  0.00    +0.014 A 
ATOM     13  C   UNL     1      -2.917   6.602   3.338  0.00  0.00    +0.021 A 
ATOM     14  C   UNL     1      -2.772   7.961   3.115  0.00  0.00    +0.041 A 
ATOM     15  C   UNL     1      -3.118   8.508   1.890  0.00  0.00    +0.021 A 
ATOM     16  C   UNL     1      -3.610   7.702   0.886  0.00  0.00    +0.014 A 
ATOM     17 CL   UNL     1      -2.154   8.983   4.375  0.00  0.00    -0.084 Cl
ENDBRANCH   9  11
BRANCH   1  18
ATOM     18  S   UNL     1      -1.936   1.993  -1.085  0.00  0.00    -0.072 S 
BRANCH  18  22
ATOM     19  C   UNL     1      -0.312   3.933  -4.062  0.00  0.00    +0.182 A 
ATOM     20  N   UNL     1      -1.596   4.030  -4.321  0.00  0.00    -0.127 NA
ATOM     21  N   UNL     1      -2.274   3.430  -3.409  0.00  0.00    -0.121 NA
ATOM     22  C   UNL     1      -1.464   2.908  -2.515  0.00  0.00    +0.209 A 
ATOM     23  N   UNL     1      -0.188   3.206  -2.901  0.00  0.00    -0.224 N 
BRANCH  19  28
ATOM     24  C   UNL     1       3.984   6.123  -7.201  0.00  0.00    +0.044 C 
ATOM     25  C   UNL     1       2.859   5.550  -6.379  0.00  0.00    -0.050 A 
ATOM     26  C   UNL     1       3.122   4.561  -5.447  0.00  0.00    +0.004 A 
ATOM     27  C   UNL     1       2.096   4.032  -4.691  0.00  0.00    +0.012 A 
ATOM     28  C   UNL     1       0.791   4.496  -4.869  0.00  0.00    +0.021 A 
ATOM     29  C   UNL     1       0.533   5.489  -5.814  0.00  0.00    +0.012 A 
ATOM     30  C   UNL     1       1.568   6.014  -6.560  0.00  0.00    +0.004 A 
ENDBRANCH  19  28
BRANCH  23  31
ATOM     31  N   UNL     1       0.969   2.860  -2.263  0.00  0.00    -0.295 N 
ATOM     32  H   UNL     1       1.293   1.954  -2.568  0.00  0.00    +0.163 HD
ATOM     33  H   UNL     1       1.680   3.563  -2.398  0.00  0.00    +0.163 HD
ENDBRANCH  23  31
ENDBRANCH  18  22
ENDBRANCH   1  18
TORSDOF 5
