REMARK  Name = ZINC04783949
REMARK  7 active torsions:
REMARK  status: ('A' for Active; 'I' for Inactive)
REMARK    1  A    between atoms: C_1  and  C_2
REMARK    2  A    between atoms: C_5  and  C_7
REMARK    3  A    between atoms: C_16  and  C_20
REMARK    4  A    between atoms: C_20  and  C_21
REMARK    5  A    between atoms: C_20  and  C_22
REMARK    6  A    between atoms: C_20  and  C_23
REMARK    7  A    between atoms: C_24  and  O_26
REMARK                            x       y       z     vdW  Elec       q    Type
REMARK                         _______ _______ _______ _____ _____    ______ ____
ROOT
ATOM      1  C   UNL     1       1.043  -4.062  -0.027  0.00  0.00    +0.230 C 
ATOM      2  N   UNL     1       2.350  -4.074  -0.708  0.00  0.00    -0.313 N 
ATOM      3  C   UNL     1       2.321  -4.143  -2.083  0.00  0.00    +0.080 A 
ATOM      4  C   UNL     1       1.235  -4.694  -2.773  0.00  0.00    +0.068 A 
ATOM      5  C   UNL     1       1.341  -4.686  -4.220  0.00  0.00    -0.023 A 
ATOM      6  C   UNL     1       2.488  -4.149  -4.697  0.00  0.00    -0.004 A 
ATOM      7  S   UNL     1       3.396  -3.669  -3.253  0.00  0.00    -0.078 S 
ATOM      8  C   UNL     1       2.885  -4.001  -6.132  0.00  0.00    +0.046 C 
ATOM      9  C   UNL     1       1.637  -4.209  -7.003  0.00  0.00    -0.000 C 
ATOM     10  C   UNL     1       0.911  -5.473  -6.533  0.00  0.00    +0.009 C 
ATOM     11  C   UNL     1       0.276  -5.229  -5.162  0.00  0.00    +0.037 C 
ATOM     12  C   UNL     1       0.109  -5.228  -1.964  0.00  0.00    +0.220 C 
ATOM     13  N   UNL     1       0.082  -4.931  -0.695  0.00  0.00    -0.222 NA
ATOM     14  H   UNL     1       3.185  -4.035  -0.215  0.00  0.00    +0.149 HD
ENDROOT
BRANCH   1  19
ATOM     15  C   UNL     1      -0.018   1.503   0.010  0.00  0.00    +0.051 C 
ATOM     16  C   UNL     1       0.002  -0.004   0.002  0.00  0.00    -0.013 A 
ATOM     17  C   UNL     1      -1.039  -0.872   0.002  0.00  0.00    +0.011 A 
ATOM     18  C   UNL     1      -0.780  -2.230  -0.007  0.00  0.00    +0.015 A 
ATOM     19  C   UNL     1       0.507  -2.653  -0.016  0.00  0.00    +0.032 A 
ATOM     20  S   UNL     1       1.404  -1.109  -0.018  0.00  0.00    -0.095 S 
ENDBRANCH   1  19
BRANCH   9  21
ATOM     21  C   UNL     1       2.054  -4.368  -8.466  0.00  0.00    -0.035 C 
ATOM     22  C   UNL     1       2.978  -5.580  -8.605  0.00  0.00    +0.011 C 
ATOM     23  C   UNL     1       0.809  -4.575  -9.332  0.00  0.00    +0.011 C 
ATOM     24  C   UNL     1       2.791  -3.109  -8.927  0.00  0.00    +0.011 C 
ENDBRANCH   9  21
BRANCH  12  25
ATOM     25  O   UNL     1      -0.855  -5.994  -2.526  0.00  0.00    -0.492 OA
ATOM     26  H   UNL     1      -1.537  -6.285  -1.905  0.00  0.00    +0.294 HD
ENDBRANCH  12  25
TORSDOF 3
