REMARK  Name = ZINC35747703
REMARK  14 active torsions:
REMARK  status: ('A' for Active; 'I' for Inactive)
REMARK    1  A    between atoms: C_1  and  C_2
REMARK    2  A    between atoms: C_2  and  C_3
REMARK    3  A    between atoms: C_3  and  N_4
REMARK    4  A    between atoms: N_4  and  C_5
REMARK    5  A    between atoms: N_4  and  C_25
REMARK    6  A    between atoms: C_5  and  C_6
REMARK    7  A    between atoms: C_12  and  C_17
REMARK    8  A    between atoms: C_20  and  C_24
REMARK    9  A    between atoms: C_22  and  C_23
REMARK   10  A    between atoms: C_25  and  C_26
REMARK   11  A    between atoms: C_26  and  C_28
REMARK   12  A    between atoms: C_26  and  O_36
REMARK   13  A    between atoms: C_28  and  O_29
REMARK   14  A    between atoms: O_29  and  C_30
REMARK                            x       y       z     vdW  Elec       q    Type
REMARK                         _______ _______ _______ _____ _____    ______ ____
ROOT
ATOM      1  C   UNL     1       3.146  -1.955  -1.990  0.00  0.00    +0.094 A 
ATOM      2  N   UNL     1       4.154  -2.312  -2.827  0.00  0.00    -0.312 N 
ATOM      3  H   UNL     1       3.966  -2.906  -3.571  0.00  0.00    +0.170 HD
ATOM      4  C   UNL     1       5.408  -1.859  -2.644  0.00  0.00    +0.260 A 
ATOM      5  O   UNL     1       6.302  -2.188  -3.405  0.00  0.00    -0.267 OA
ATOM      6  C   UNL     1       5.676  -0.984  -1.544  0.00  0.00    +0.080 A 
ATOM      7  C   UNL     1       6.934  -0.367  -1.140  0.00  0.00    +0.004 A 
ATOM      8  C   UNL     1       6.945   0.436  -0.049  0.00  0.00    +0.056 A 
ATOM      9  S   UNL     1       5.250   0.408   0.502  0.00  0.00    -0.076 S 
ATOM     10  C   UNL     1       4.573  -0.670  -0.733  0.00  0.00    +0.116 A 
ATOM     11  N   UNL     1       3.358  -1.154  -0.981  0.00  0.00    -0.229 NA
ENDROOT
BRANCH   7  12
ATOM     12  C   UNL     1       8.177  -0.615  -1.909  0.00  0.00    -0.014 A 
ATOM     13  C   UNL     1       9.240  -1.299  -1.320  0.00  0.00    +0.009 A 
ATOM     14  C   UNL     1      10.394  -1.526  -2.040  0.00  0.00    +0.004 A 
ATOM     15  C   UNL     1      10.498  -1.078  -3.345  0.00  0.00    -0.050 A 
ATOM     16  C   UNL     1       9.447  -0.399  -3.935  0.00  0.00    +0.007 A 
ATOM     17  C   UNL     1       8.286  -0.170  -3.226  0.00  0.00    -0.042 A 
ATOM     18  C   UNL     1       7.139   0.565  -3.871  0.00  0.00    +0.044 C 
ATOM     19  C   UNL     1      11.762  -1.330  -4.127  0.00  0.00    +0.044 C 
ENDBRANCH   7  12
BRANCH   1  20
ATOM     20  C   UNL     1       1.757  -2.487  -2.234  0.00  0.00    -0.003 C 
BRANCH  20  21
ATOM     21  N   UNL     1       0.844  -1.961  -1.211  0.00  0.00    +0.386 N 
ATOM     22  H   UNL     1       1.204  -2.180  -0.294  0.00  0.00    -0.081 HD
BRANCH  21  23
ATOM     23  C   UNL     1       0.733  -0.503  -1.357  0.00  0.00    -0.078 C 
BRANCH  23  25
ATOM     24  C   UNL     1      -0.101   1.591  -0.280  0.00  0.00    +0.002 C 
ATOM     25  C   UNL     1      -0.096   0.063  -0.203  0.00  0.00    -0.022 C 
ENDBRANCH  23  25
ENDBRANCH  21  23
BRANCH  21  26
ATOM     26  C   UNL     1      -0.481  -2.572  -1.377  0.00  0.00    -0.043 C 
BRANCH  26  27
ATOM     27  C   UNL     1      -0.393  -4.070  -1.078  0.00  0.00    +0.135 C 
BRANCH  27  28
ATOM     28  O   UNL     1       0.052  -4.263   0.266  0.00  0.00    -0.390 OA
ATOM     29  H   UNL     1      -0.567  -3.940   0.935  0.00  0.00    +0.210 HD
ENDBRANCH  27  28
BRANCH  27  30
ATOM     30  C   UNL     1      -1.773  -4.707  -1.255  0.00  0.00    +0.258 C 
BRANCH  30  31
ATOM     31  O   UNL     1      -1.668  -6.123  -1.091  0.00  0.00    -0.489 OA
BRANCH  31  32
ATOM     32  C   UNL     1      -2.812  -6.845  -1.218  0.00  0.00    +0.121 A 
ATOM     33  C   UNL     1      -4.010  -6.205  -1.500  0.00  0.00    +0.045 A 
ATOM     34  C   UNL     1      -5.172  -6.941  -1.629  0.00  0.00    +0.004 A 
ATOM     35  C   UNL     1      -5.142  -8.315  -1.476  0.00  0.00    +0.000 A 
ATOM     36  C   UNL     1      -3.949  -8.955  -1.194  0.00  0.00    +0.004 A 
ATOM     37  C   UNL     1      -2.784  -8.224  -1.071  0.00  0.00    +0.045 A 
ENDBRANCH  31  32
ENDBRANCH  30  31
ENDBRANCH  27  30
ENDBRANCH  26  27
ENDBRANCH  21  26
ENDBRANCH  20  21
ENDBRANCH   1  20
TORSDOF 11
