REMARK  Name = ZINC15141095
REMARK  4 active torsions:
REMARK  status: ('A' for Active; 'I' for Inactive)
REMARK    1  A    between atoms: C_1  and  C_2
REMARK    2  A    between atoms: C_2  and  C_4
REMARK    3  A    between atoms: C_2  and  N_13
REMARK    4  A    between atoms: C_22  and  C_24
REMARK                            x       y       z     vdW  Elec       q    Type
REMARK                         _______ _______ _______ _____ _____    ______ ____
ROOT
ATOM      1  N   UNL     1       4.000  -0.476   0.938  0.00  0.00    -0.319 N 
ATOM      2  C   UNL     1       5.261  -0.387   1.487  0.00  0.00    +0.131 A 
ATOM      3  C   UNL     1       5.715  -1.349   2.425  0.00  0.00    +0.040 A 
ATOM      4  C   UNL     1       4.915  -2.421   2.832  0.00  0.00    +0.013 A 
ATOM      5  C   UNL     1       5.401  -3.318   3.738  0.00  0.00    +0.001 A 
ATOM      6  C   UNL     1       6.683  -3.181   4.262  0.00  0.00    +0.002 A 
ATOM      7  C   UNL     1       7.489  -2.148   3.886  0.00  0.00    +0.028 A 
ATOM      8  C   UNL     1       7.020  -1.207   2.957  0.00  0.00    +0.077 A 
ATOM      9  N   UNL     1       7.773  -0.174   2.555  0.00  0.00    -0.227 NA
ATOM     10  C   UNL     1       7.301   0.696   1.677  0.00  0.00    +0.169 A 
ATOM     11  N   UNL     1       6.080   0.596   1.148  0.00  0.00    -0.212 NA
ATOM     12  H   UNL     1       3.410  -1.204   1.192  0.00  0.00    +0.148 HD
ENDROOT
BRANCH  10  13
ATOM     13  C   UNL     1       8.162   1.819   1.262  0.00  0.00    +0.056 A 
ATOM     14  C   UNL     1       9.436   2.126   1.665  0.00  0.00    +0.019 A 
ATOM     15  C   UNL     1      10.049   3.236   1.132  0.00  0.00    +0.008 A 
ATOM     16  C   UNL     1       9.372   3.999   0.234  0.00  0.00    +0.046 A 
ATOM     17  S   UNL     1       7.813   3.139   0.111  0.00  0.00    -0.094 S 
ENDBRANCH  10  13
BRANCH   1  19
ATOM     18  C   UNL     1       4.027   0.138  -1.430  0.00  0.00    +0.036 C 
ATOM     19  C   UNL     1       3.549   0.528  -0.029  0.00  0.00    +0.137 C 
BRANCH  19  20
ATOM     20  C   UNL     1       2.044   0.600  -0.014  0.00  0.00    +0.158 A 
ATOM     21  N   UNL     1       1.221  -0.417  -0.012  0.00  0.00    -0.132 NA
ATOM     22  N   UNL     1       0.002  -0.004   0.002  0.00  0.00    -0.129 NA
ATOM     23  C   UNL     1      -0.016   1.319   0.009  0.00  0.00    +0.161 A 
ATOM     24  N   UNL     1       1.293   1.734  -0.001  0.00  0.00    -0.285 N 
ATOM     25  C   UNL     1       1.596   3.064   0.004  0.00  0.00    +0.094 A 
ATOM     26  C   UNL     1       0.615   3.991   0.018  0.00  0.00    +0.018 A 
ATOM     27  C   UNL     1      -0.734   3.596   0.029  0.00  0.00    +0.005 A 
ATOM     28  C   UNL     1      -1.051   2.274   0.029  0.00  0.00    +0.048 A 
ENDBRANCH  19  20
ENDBRANCH   1  19
TORSDOF 3
