REMARK  Name = ZINC30734387
REMARK  7 active torsions:
REMARK  status: ('A' for Active; 'I' for Inactive)
REMARK    1  A    between atoms: C_4  and  C_7
REMARK    2  A    between atoms: C_13  and  C_15
REMARK    3  A    between atoms: N_17  and  N_18
REMARK    4  A    between atoms: C_19  and  C_20
REMARK    5  A    between atoms: C_24  and  O_26
REMARK    6  A    between atoms: O_26  and  C_27
REMARK    7  A    between atoms: C_27  and  C_29
REMARK                            x       y       z     vdW  Elec       q    Type
REMARK                         _______ _______ _______ _____ _____    ______ ____
ROOT
ATOM      1  N   UNL     1       1.226   1.564  -0.055  0.00  0.00    -0.188 NA
ATOM      2  C   UNL     1       0.124   1.007  -0.455  0.00  0.00    +0.138 C 
ENDROOT
BRANCH   2   3
ATOM      3  C   UNL     1      -1.065   1.836  -0.725  0.00  0.00    -0.002 A 
ATOM      4  C   UNL     1      -0.926   3.205  -0.967  0.00  0.00    +0.010 A 
ATOM      5  C   UNL     1      -2.041   3.975  -1.225  0.00  0.00    +0.004 A 
ATOM      6  C   UNL     1      -3.298   3.399  -1.234  0.00  0.00    +0.046 A 
ATOM      7  C   UNL     1      -3.447   2.041  -0.989  0.00  0.00    +0.133 A 
ATOM      8  C   UNL     1      -2.335   1.256  -0.735  0.00  0.00    +0.055 A 
BRANCH   7   9
ATOM      9  O   UNL     1      -4.686   1.481  -0.999  0.00  0.00    -0.422 OA
BRANCH   9  10
ATOM     10  C   UNL     1      -5.246   1.215   0.197  0.00  0.00    +0.344 C 
ATOM     11  O   UNL     1      -4.665   1.514   1.220  0.00  0.00    -0.245 OA
BRANCH  10  12
ATOM     12  C   UNL     1      -6.568   0.559   0.263  0.00  0.00    +0.060 A 
ATOM     13  C   UNL     1      -7.242   0.219  -0.911  0.00  0.00    +0.015 A 
ATOM     14  C   UNL     1      -8.475  -0.397  -0.843  0.00  0.00    +0.002 A 
ATOM     15  C   UNL     1      -9.048  -0.669   0.387  0.00  0.00    +0.015 A 
ATOM     16  C   UNL     1      -8.388  -0.330   1.556  0.00  0.00    +0.019 A 
ATOM     17  C   UNL     1      -7.152   0.282   1.501  0.00  0.00    +0.030 A 
ATOM     18 BR   UNL     1      -9.181  -0.707   3.230  0.00  0.00    -0.050 Br
ENDBRANCH  10  12
ENDBRANCH   9  10
ENDBRANCH   7   9
ENDBRANCH   2   3
BRANCH   1  21
ATOM     19  C   UNL     1       2.363   3.502   0.734  0.00  0.00    +0.245 C 
ATOM     20  O   UNL     1       3.422   2.945   0.535  0.00  0.00    -0.273 OA
ATOM     21  N   UNL     1       1.206   2.867   0.459  0.00  0.00    -0.206 N 
ATOM     22  H   UNL     1       0.245   3.373   0.639  0.00  0.00    +0.177 HD
BRANCH  19  28
ATOM     23  C   UNL     1       3.779   5.451   1.430  0.00  0.00    +0.057 C 
ATOM     24  C   UNL     1       3.589   6.938   1.057  0.00  0.00    +0.113 C 
ATOM     25  N   UNL     1       2.402   6.977   0.195  0.00  0.00    -0.314 N 
ATOM     26  C   UNL     1       1.680   5.849   0.308  0.00  0.00    +0.226 C 
ATOM     27  O   UNL     1       0.648   5.622  -0.289  0.00  0.00    -0.275 OA
ATOM     28  C   UNL     1       2.341   4.903   1.287  0.00  0.00    +0.171 C 
ATOM     29  H   UNL     1       2.207   7.859  -0.433  0.00  0.00    +0.149 HD
BRANCH  23  33
ATOM     30  C   UNL     1       5.174   5.050   5.448  0.00  0.00    +0.000 A 
ATOM     31  C   UNL     1       5.850   4.425   4.416  0.00  0.00    +0.000 A 
ATOM     32  C   UNL     1       5.398   4.555   3.116  0.00  0.00    +0.004 A 
ATOM     33  C   UNL     1       4.271   5.310   2.848  0.00  0.00    -0.042 A 
ATOM     34  C   UNL     1       3.599   5.939   3.879  0.00  0.00    +0.004 A 
ATOM     35  C   UNL     1       4.048   5.805   5.179  0.00  0.00    +0.000 A 
ENDBRANCH  23  33
ENDBRANCH  19  28
ENDBRANCH   1  21
TORSDOF 7
