REMARK  Name = ZINC35185290
REMARK  11 active torsions:
REMARK  status: ('A' for Active; 'I' for Inactive)
REMARK    1  A    between atoms: C_1  and  C_2
REMARK    2  A    between atoms: C_2  and  O_3
REMARK    3  A    between atoms: O_3  and  P_4
REMARK    4  A    between atoms: P_4  and  C_6
REMARK    5  A    between atoms: P_4  and  O_24
REMARK    6  A    between atoms: C_7  and  N_23
REMARK    7  A    between atoms: C_9  and  N_22
REMARK    8  A    between atoms: C_10  and  C_20
REMARK    9  A    between atoms: C_11  and  C_13
REMARK   10  A    between atoms: O_24  and  C_25
REMARK   11  A    between atoms: C_25  and  C_26
REMARK                            x       y       z     vdW  Elec       q    Type
REMARK                         _______ _______ _______ _____ _____    ______ ____
ROOT
ATOM      1  C   UNL     1       1.978  -2.228   2.928  0.00  0.00    +0.081 C 
ATOM      2  C   UNL     1       2.445  -1.122   3.463  0.00  0.00    +0.076 C 
ATOM      3  S   UNL     1       3.452  -1.150   4.907  0.00  0.00    -0.058 S 
ATOM      4  C   UNL     1       4.018  -2.816   4.979  0.00  0.00    +0.079 C 
ATOM      5  C   UNL     1       3.395  -3.793   4.285  0.00  0.00    +0.069 C 
ATOM      6  C   UNL     1       2.189  -3.610   3.430  0.00  0.00    +0.102 C 
ENDROOT
BRANCH   6   7
ATOM      7  C   UNL     1       0.973  -4.018   4.222  0.00  0.00    -0.034 A 
ATOM      8  C   UNL     1       0.597  -3.289   5.335  0.00  0.00    +0.006 A 
ATOM      9  C   UNL     1      -0.517  -3.663   6.062  0.00  0.00    +0.020 A 
ATOM     10  C   UNL     1      -1.257  -4.767   5.675  0.00  0.00    +0.041 A 
ATOM     11  C   UNL     1      -0.880  -5.496   4.561  0.00  0.00    +0.020 A 
ATOM     12  C   UNL     1       0.232  -5.118   3.832  0.00  0.00    +0.006 A 
ATOM     13 CL   UNL     1      -2.657  -5.237   6.588  0.00  0.00    -0.084 Cl
ENDBRANCH   6   7
BRANCH   4  14
ATOM     14  N   UNL     1       5.111  -3.126   5.753  0.00  0.00    -0.352 N 
ATOM     15  H   UNL     1       5.564  -2.430   6.254  0.00  0.00    +0.143 HD
ATOM     16  H   UNL     1       5.430  -4.042   5.798  0.00  0.00    +0.143 HD
ENDBRANCH   4  14
BRANCH   2  17
ATOM     17  N   UNL     1       2.136   0.100   2.875  0.00  0.00    -0.352 N 
ATOM     18  H   UNL     1       1.506   0.138   2.139  0.00  0.00    +0.143 HD
ATOM     19  H   UNL     1       2.552   0.913   3.201  0.00  0.00    +0.143 HD
ENDBRANCH   2  17
BRANCH   1  20
ATOM     20  P   UNL     1       0.969  -2.047   1.431  0.00  0.00    +0.363 P 
ATOM     21  O   UNL     1       0.594  -3.387   0.924  0.00  0.00    -0.253 OA
BRANCH  20  22
ATOM     22  O   UNL     1       1.813  -1.265   0.305  0.00  0.00    -0.305 OA
BRANCH  22  24
ATOM     23  C   UNL     1       2.378  -0.284  -1.829  0.00  0.00    +0.034 C 
ATOM     24  C   UNL     1       1.333  -1.057  -1.024  0.00  0.00    +0.167 C 
ENDBRANCH  22  24
ENDBRANCH  20  22
BRANCH  20  25
ATOM     25  O   UNL     1      -0.363  -1.213   1.779  0.00  0.00    -0.305 OA
BRANCH  25  26
ATOM     26  C   UNL     1      -1.412  -0.991   0.834  0.00  0.00    +0.167 C 
ATOM     27  C   UNL     1      -2.522  -0.166   1.488  0.00  0.00    +0.034 C 
ENDBRANCH  25  26
ENDBRANCH  20  25
ENDBRANCH   1  20
BRANCH   5  28
ATOM     28  C   UNL     1       3.937  -5.115   4.383  0.00  0.00    +0.098 C 
ATOM     29  N   UNL     1       4.367  -6.164   4.460  0.00  0.00    -0.191 NA
ENDBRANCH   5  28
TORSDOF 9
