REMARK  Name = ZINC17305411
REMARK  9 active torsions:
REMARK  status: ('A' for Active; 'I' for Inactive)
REMARK    1  A    between atoms: C_1  and  C_2
REMARK    2  A    between atoms: C_2  and  C_3
REMARK    3  A    between atoms: C_3  and  N_4
REMARK    4  A    between atoms: C_8  and  S_28
REMARK    5  A    between atoms: C_12  and  C_13
REMARK    6  A    between atoms: C_13  and  C_14
REMARK    7  A    between atoms: C_14  and  C_15
REMARK    8  A    between atoms: N_17  and  C_18
REMARK    9  A    between atoms: S_28  and  N_31
REMARK                            x       y       z     vdW  Elec       q    Type
REMARK                         _______ _______ _______ _____ _____    ______ ____
ROOT
ATOM      1  N   UNL     1       1.286  -0.454  -0.013  0.00  0.00    -0.328 N 
ATOM      2  C   UNL     1       2.109   0.654  -0.015  0.00  0.00    +0.069 A 
ATOM      3  C   UNL     1       3.486   0.836  -0.027  0.00  0.00    +0.030 A 
ATOM      4  C   UNL     1       4.006   2.112  -0.026  0.00  0.00    +0.030 A 
ATOM      5  C   UNL     1       3.163   3.215  -0.012  0.00  0.00    +0.107 A 
ATOM      6  C   UNL     1       1.807   3.055   0.001  0.00  0.00    +0.058 A 
ATOM      7  C   UNL     1       1.257   1.771  -0.000  0.00  0.00    +0.091 A 
ATOM      8  N   UNL     1      -0.016   1.297   0.009  0.00  0.00    -0.232 NA
ATOM      9  C   UNL     1       0.002  -0.004   0.002  0.00  0.00    +0.111 A 
ENDROOT
BRANCH   5  10
ATOM     10  S   UNL     1       3.851   4.837  -0.011  0.00  0.00    +0.056 S 
ATOM     11  O   UNL     1       2.868   5.694   0.554  0.00  0.00    -0.153 OA
ATOM     12  O   UNL     1       5.161   4.723   0.526  0.00  0.00    -0.153 OA
BRANCH  10  13
ATOM     13  N   UNL     1       4.026   5.296  -1.592  0.00  0.00    -0.204 NA
ATOM     14  H   UNL     1       3.761   4.693  -2.304  0.00  0.00    +0.144 HD
ATOM     15  H   UNL     1       4.393   6.168  -1.807  0.00  0.00    +0.144 HD
ENDBRANCH  10  13
ENDBRANCH   5  10
BRANCH   1  16
ATOM     16  C   UNL     1       1.715  -1.855  -0.024  0.00  0.00    +0.123 C 
BRANCH  16  18
ATOM     17  C   UNL     1       2.298  -3.798  -1.483  0.00  0.00    +0.005 C 
ATOM     18  C   UNL     1       1.850  -2.335  -1.471  0.00  0.00    +0.018 C 
ENDBRANCH  16  18
ENDBRANCH   1  16
BRANCH   9  19
ATOM     19  C   UNL     1      -1.221  -0.884   0.009  0.00  0.00    +0.083 C 
BRANCH  19  20
ATOM     20  C   UNL     1      -1.649  -1.175  -1.431  0.00  0.00    +0.103 C 
BRANCH  20  21
ATOM     21  C   UNL     1      -2.872  -2.055  -1.424  0.00  0.00    +0.214 C 
ATOM     22  O   UNL     1      -3.354  -2.414  -0.371  0.00  0.00    -0.276 OA
ATOM     23  N   UNL     1      -3.430  -2.442  -2.588  0.00  0.00    -0.310 N 
ATOM     24  H   UNL     1      -3.044  -2.155  -3.430  0.00  0.00    +0.149 HD
BRANCH  23  25
ATOM     25  C   UNL     1      -4.619  -3.298  -2.581  0.00  0.00    +0.035 C 
ATOM     26  C   UNL     1      -4.297  -4.613  -1.870  0.00  0.00    +0.029 C 
ATOM     27  C   UNL     1      -5.539  -5.507  -1.863  0.00  0.00    -0.008 C 
ATOM     28  C   UNL     1      -5.966  -5.798  -3.303  0.00  0.00    +0.007 C 
ATOM     29  C   UNL     1      -6.288  -4.482  -4.014  0.00  0.00    -0.008 C 
ATOM     30  C   UNL     1      -5.046  -3.588  -4.021  0.00  0.00    +0.029 C 
ATOM     31  C   UNL     1      -7.425  -3.769  -3.279  0.00  0.00    +0.007 C 
ATOM     32  C   UNL     1      -6.998  -3.479  -1.839  0.00  0.00    -0.008 C 
ATOM     33  C   UNL     1      -6.676  -4.794  -1.127  0.00  0.00    +0.007 C 
ATOM     34  C   UNL     1      -5.756  -2.585  -1.846  0.00  0.00    +0.029 C 
ENDBRANCH  23  25
ENDBRANCH  20  21
ENDBRANCH  19  20
ENDBRANCH   9  19
TORSDOF 8
