REMARK  Name = ZINC65074632
REMARK  6 active torsions:
REMARK  status: ('A' for Active; 'I' for Inactive)
REMARK    1  A    between atoms: C_1  and  C_2
REMARK    2  A    between atoms: C_2  and  C_3
REMARK    3  A    between atoms: C_3  and  C_4
REMARK    4  A    between atoms: C_7  and  S_10
REMARK    5  A    between atoms: S_10  and  N_13
REMARK    6  A    between atoms: N_24  and  C_25
REMARK                            x       y       z     vdW  Elec       q    Type
REMARK                         _______ _______ _______ _____ _____    ______ ____
ROOT
ATOM      1  N   UNL     1       0.024  -7.039   0.081  0.00  0.00    -0.176 NA
ATOM      2  C   UNL     1       0.770  -7.252   1.329  0.00  0.00    +0.111 C 
ATOM      3  C   UNL     1       0.483  -8.667   1.839  0.00  0.00    +0.047 C 
ATOM      4  C   UNL     1      -1.030  -8.860   1.973  0.00  0.00    +0.075 C 
ATOM      5  C   UNL     1      -1.686  -8.701   0.599  0.00  0.00    +0.047 C 
ATOM      6  C   UNL     1      -1.425  -7.281   0.075  0.00  0.00    +0.111 C 
ATOM      7  C   UNL     1      -1.315 -10.234   2.510  0.00  0.00    +0.089 C 
ATOM      8  N   UNL     1      -1.656 -10.464   3.722  0.00  0.00    -0.374 N 
ATOM      9  C   UNL     1      -1.821  -9.421   4.729  0.00  0.00    +0.129 C 
ATOM     10  C   UNL     1      -1.138  -8.132   4.267  0.00  0.00    +0.102 C 
ATOM     11  N   UNL     1      -1.569  -7.844   2.888  0.00  0.00    -0.303 NA
ATOM     12  N   UNL     1      -1.204 -11.300   1.656  0.00  0.00    -0.330 N 
ATOM     13  H   UNL     1      -1.285  -6.917   2.607  0.00  0.00    +0.123 HD
ATOM     14  H   UNL     1      -0.948 -11.155   0.732  0.00  0.00    +0.147 HD
ATOM     15  H   UNL     1      -1.815 -11.383   3.986  0.00  0.00    +0.161 HD
ENDROOT
BRANCH  12  16
ATOM     16  C   UNL     1      -1.474 -12.657   2.138  0.00  0.00    +0.071 C 
ATOM     17  C   UNL     1      -0.214 -13.193   2.848  0.00  0.00    +0.022 C 
ATOM     18  C   UNL     1      -0.622 -14.318   3.761  0.00  0.00    +0.002 C 
ATOM     19  C   UNL     1      -0.485 -15.699   3.092  0.00  0.00    +0.000 C 
ATOM     20  C   UNL     1      -0.968 -15.706   1.630  0.00  0.00    +0.000 C 
ATOM     21  C   UNL     1      -2.239 -14.922   1.440  0.00  0.00    +0.002 C 
ATOM     22  C   UNL     1      -1.871 -13.487   1.011  0.00  0.00    +0.022 C 
ENDBRANCH  12  16
BRANCH   1  23
ATOM     23  S   UNL     1       0.800  -6.530  -1.291  0.00  0.00    +0.061 S 
ATOM     24  O   UNL     1      -0.003  -6.941  -2.388  0.00  0.00    -0.153 OA
ATOM     25  O   UNL     1       2.161  -6.919  -1.155  0.00  0.00    -0.153 OA
BRANCH  23  29
ATOM     26  C   UNL     1       0.739  -2.004  -1.265  0.00  0.00    -0.047 A 
ATOM     27  C   UNL     1       1.788  -2.685  -0.675  0.00  0.00    +0.005 A 
ATOM     28  C   UNL     1       1.806  -4.067  -0.683  0.00  0.00    +0.029 A 
ATOM     29  C   UNL     1       0.776  -4.769  -1.280  0.00  0.00    +0.105 A 
ATOM     30  C   UNL     1      -0.273  -4.088  -1.869  0.00  0.00    +0.029 A 
ATOM     31  C   UNL     1      -0.294  -2.706  -1.858  0.00  0.00    +0.005 A 
BRANCH  26  32
ATOM     32  C   UNL     1       0.718  -0.497  -1.257  0.00  0.00    +0.035 C 
BRANCH  32  34
ATOM     33  C   UNL     1      -0.019   1.526   0.010  0.00  0.00    +0.004 C 
ATOM     34  C   UNL     1       0.002  -0.004   0.002  0.00  0.00    +0.001 C 
ENDBRANCH  32  34
ENDBRANCH  26  32
ENDBRANCH  23  29
ENDBRANCH   1  23
TORSDOF 5
