REMARK  Name = ZINC12475213
REMARK  10 active torsions:
REMARK  status: ('A' for Active; 'I' for Inactive)
REMARK    1  A    between atoms: C_1  and  N_2
REMARK    2  A    between atoms: N_2  and  C_3
REMARK    3  A    between atoms: N_2  and  C_4
REMARK    4  A    between atoms: C_7  and  C_10
REMARK    5  A    between atoms: C_10  and  C_12
REMARK    6  A    between atoms: C_10  and  N_21
REMARK    7  A    between atoms: N_14  and  C_15
REMARK    8  A    between atoms: N_21  and  C_22
REMARK    9  A    between atoms: C_27  and  C_29
REMARK   10  A    between atoms: C_29  and  C_30
REMARK                            x       y       z     vdW  Elec       q    Type
REMARK                         _______ _______ _______ _____ _____    ______ ____
ROOT
ATOM      1  C   UNL     1       1.898   8.241  -2.950  0.00  0.00    +0.192 C 
ENDROOT
BRANCH   1   5
ATOM      2  C   UNL     1       6.148   8.643  -3.167  0.00  0.00    +0.029 A 
ATOM      3  C   UNL     1       5.543   7.444  -3.521  0.00  0.00    +0.023 A 
ATOM      4  C   UNL     1       4.170   7.317  -3.450  0.00  0.00    +0.008 A 
ATOM      5  C   UNL     1       3.397   8.383  -3.026  0.00  0.00    -0.018 A 
ATOM      6  C   UNL     1       3.995   9.580  -2.679  0.00  0.00    +0.008 A 
ATOM      7  C   UNL     1       5.368   9.711  -2.743  0.00  0.00    +0.023 A 
BRANCH   2   9
ATOM      8  C   UNL     1       8.345   7.702  -3.823  0.00  0.00    +0.129 C 
ATOM      9  N   UNL     1       7.537   8.775  -3.239  0.00  0.00    -0.336 N 
ATOM     10  C   UNL     1       8.185   9.986  -2.730  0.00  0.00    +0.129 C 
ENDBRANCH   2   9
ENDBRANCH   1   5
BRANCH   1  11
ATOM     11  C   UNL     1       1.247   9.454  -3.562  0.00  0.00    +0.238 C 
ATOM     12  O   UNL     1       0.514  10.151  -2.893  0.00  0.00    -0.273 OA
ATOM     13  N   UNL     1       1.479   9.764  -4.853  0.00  0.00    -0.311 N 
ATOM     14  H   UNL     1       2.065   9.206  -5.388  0.00  0.00    +0.149 HD
BRANCH  13  15
ATOM     15  C   UNL     1       0.846  10.943  -5.448  0.00  0.00    +0.073 C 
ATOM     16  C   UNL     1      -0.556  10.576  -5.941  0.00  0.00    +0.022 C 
ATOM     17  C   UNL     1      -1.217  11.807  -6.563  0.00  0.00    +0.002 C 
ATOM     18  C   UNL     1      -0.374  12.298  -7.742  0.00  0.00    +0.000 C 
ATOM     19  C   UNL     1       1.027  12.666  -7.249  0.00  0.00    +0.002 C 
ATOM     20  C   UNL     1       1.688  11.434  -6.627  0.00  0.00    +0.022 C 
ENDBRANCH  13  15
ENDBRANCH   1  11
BRANCH   1  21
ATOM     21  N   UNL     1       1.490   8.123  -1.548  0.00  0.00    -0.283 N 
ATOM     22  C   UNL     1       0.761   7.063  -1.145  0.00  0.00    +0.221 C 
ATOM     23  O   UNL     1       0.527   6.159  -1.919  0.00  0.00    -0.275 OA
BRANCH  21  24
ATOM     24  C   UNL     1       1.875   9.156  -0.583  0.00  0.00    +0.077 C 
ATOM     25  C   UNL     1       2.756   8.543   0.525  0.00  0.00    +0.022 C 
ATOM     26  C   UNL     1       2.317   9.284   1.812  0.00  0.00    +0.002 C 
ATOM     27  C   UNL     1       0.787   9.431   1.618  0.00  0.00    +0.002 C 
ATOM     28  C   UNL     1       0.624   9.721   0.111  0.00  0.00    +0.022 C 
ENDBRANCH  21  24
BRANCH  22  29
ATOM     29  C   UNL     1       0.235   7.003   0.266  0.00  0.00    +0.133 C 
BRANCH  29  30
ATOM     30  C   UNL     1      -0.372   5.647   0.518  0.00  0.00    -0.014 A 
ATOM     31  C   UNL     1      -1.668   5.318   0.401  0.00  0.00    +0.087 A 
ATOM     32  N   UNL     1      -1.845   3.997   0.711  0.00  0.00    -0.360 N 
ATOM     33  H   UNL     1      -2.695   3.530   0.698  0.00  0.00    +0.165 HD
ATOM     34  C   UNL     1      -0.636   3.429   1.044  0.00  0.00    +0.047 A 
ATOM     35  C   UNL     1       0.340   4.437   0.938  0.00  0.00    +0.003 A 
ATOM     36  C   UNL     1       1.676   4.146   1.220  0.00  0.00    +0.010 A 
ATOM     37  C   UNL     1       2.029   2.882   1.598  0.00  0.00    +0.001 A 
ATOM     38  C   UNL     1       1.071   1.883   1.704  0.00  0.00    +0.002 A 
ATOM     39  C   UNL     1      -0.253   2.147   1.425  0.00  0.00    +0.026 A 
ENDBRANCH  29  30
ENDBRANCH  22  29
ENDBRANCH   1  21
TORSDOF 8
