REMARK  Name = ZINC48275587
REMARK  14 active torsions:
REMARK  status: ('A' for Active; 'I' for Inactive)
REMARK    1  A    between atoms: C_1  and  C_2
REMARK    2  A    between atoms: C_3  and  C_16
REMARK    3  A    between atoms: N_5  and  C_7
REMARK    4  A    between atoms: C_7  and  C_8
REMARK    5  A    between atoms: C_16  and  N_17
REMARK    6  A    between atoms: N_17  and  C_18
REMARK    7  A    between atoms: C_18  and  C_20
REMARK    8  A    between atoms: C_18  and  C_21
REMARK    9  A    between atoms: C_24  and  O_29
REMARK   10  A    between atoms: C_25  and  O_27
REMARK   11  A    between atoms: O_27  and  C_28
REMARK   12  A    between atoms: O_29  and  C_30
REMARK   13  A    between atoms: C_30  and  C_31
REMARK   14  A    between atoms: C_31  and  O_32
REMARK                            x       y       z     vdW  Elec       q    Type
REMARK                         _______ _______ _______ _____ _____    ______ ____
ROOT
ATOM      1  N   UNL     1       1.374  -0.168  -3.038  0.00  0.00    +0.386 N 
ATOM      2  H   UNL     1       1.843   0.514  -2.461  0.00  0.00    -0.085 HD
ATOM      3  H   UNL     1       1.863  -1.049  -2.981  0.00  0.00    -0.085 HD
ENDROOT
BRANCH   1   4
ATOM      4  C   UNL     1       1.360   0.295  -4.432  0.00  0.00    -0.043 C 
ATOM      5  C   UNL     1       0.761  -0.794  -5.325  0.00  0.00    -0.009 C 
BRANCH   4   6
ATOM      6  C   UNL     1       2.769   0.591  -4.877  0.00  0.00    -0.058 A 
ATOM      7  C   UNL     1       3.802  -0.246  -4.499  0.00  0.00    +0.006 A 
ATOM      8  C   UNL     1       5.096   0.021  -4.905  0.00  0.00    +0.049 A 
ATOM      9  C   UNL     1       5.360   1.131  -5.692  0.00  0.00    +0.162 A 
ATOM     10  C   UNL     1       4.320   1.974  -6.072  0.00  0.00    +0.162 A 
ATOM     11  C   UNL     1       3.024   1.697  -5.666  0.00  0.00    +0.051 A 
BRANCH  10  12
ATOM     12  O   UNL     1       4.574   3.064  -6.845  0.00  0.00    -0.491 OA
ATOM     13  C   UNL     1       3.458   3.884  -7.197  0.00  0.00    +0.277 C 
ENDBRANCH  10  12
BRANCH   9  14
ATOM     14  O   UNL     1       6.632   1.396  -6.092  0.00  0.00    -0.486 OA
BRANCH  14  15
ATOM     15  C   UNL     1       7.649   0.488  -5.663  0.00  0.00    +0.257 C 
BRANCH  15  16
ATOM     16  C   UNL     1       9.004   0.946  -6.207  0.00  0.00    +0.196 C 
BRANCH  16  17
ATOM     17  O   UNL     1       9.350   2.204  -5.623  0.00  0.00    -0.392 OA
ATOM     18  H   UNL     1      10.200   2.556  -5.923  0.00  0.00    +0.210 HD
ENDBRANCH  16  17
ENDBRANCH  15  16
ENDBRANCH  14  15
ENDBRANCH   9  14
ENDBRANCH   4   6
ENDBRANCH   1   4
BRANCH   1  19
ATOM     19  C   UNL     1      -0.006  -0.343  -2.566  0.00  0.00    -0.041 C 
BRANCH  19  22
ATOM     20  C   UNL     1      -0.018   1.503   0.010  0.00  0.00    +0.068 C 
ATOM     21  C   UNL     1       0.002  -0.004   0.002  0.00  0.00    +0.063 A 
ATOM     22  C   UNL     1       0.008  -0.818  -1.135  0.00  0.00    -0.005 A 
ATOM     23  C   UNL     1       0.028  -2.108  -0.724  0.00  0.00    +0.129 A 
ATOM     24  N   UNL     1       0.035  -2.109   0.626  0.00  0.00    -0.248 N 
ATOM     25  N   UNL     1       0.023  -0.777   1.058  0.00  0.00    -0.175 NA
ATOM     26 CL   UNL     1       0.043  -3.509  -1.749  0.00  0.00    -0.062 Cl
BRANCH  24  27
ATOM     27  C   UNL     1       0.055  -3.294   1.487  0.00  0.00    +0.180 C 
BRANCH  27  28
ATOM     28  C   UNL     1       1.483  -3.682   1.775  0.00  0.00    -0.026 A 
ATOM     29  C   UNL     1       2.144  -4.558   0.935  0.00  0.00    +0.007 A 
ATOM     30  C   UNL     1       3.453  -4.914   1.199  0.00  0.00    +0.020 A 
ATOM     31  C   UNL     1       4.102  -4.392   2.304  0.00  0.00    +0.041 A 
ATOM     32  C   UNL     1       3.440  -3.514   3.144  0.00  0.00    +0.020 A 
ATOM     33  C   UNL     1       2.132  -3.155   2.876  0.00  0.00    +0.007 A 
ATOM     34 CL   UNL     1       5.746  -4.838   2.636  0.00  0.00    -0.084 Cl
ENDBRANCH  27  28
ENDBRANCH  24  27
ENDBRANCH  19  22
ENDBRANCH   1  19
TORSDOF 11
