REMARK  Name = ZINC08748038
REMARK  8 active torsions:
REMARK  status: ('A' for Active; 'I' for Inactive)
REMARK    1  A    between atoms: C_1  and  C_2
REMARK    2  A    between atoms: C_2  and  C_32
REMARK    3  A    between atoms: C_6  and  C_22
REMARK    4  A    between atoms: C_8  and  C_12
REMARK    5  A    between atoms: C_9  and  N_11
REMARK    6  A    between atoms: C_12  and  O_14
REMARK    7  A    between atoms: O_14  and  C_15
REMARK    8  A    between atoms: C_15  and  C_16
REMARK                            x       y       z     vdW  Elec       q    Type
REMARK                         _______ _______ _______ _____ _____    ______ ____
ROOT
ATOM      1  C   UNL     1       0.410   8.740  -7.872  0.00  0.00    +0.012 C 
ATOM      2  C   UNL     1      -1.101   8.642  -7.650  0.00  0.00    -0.021 C 
ATOM      3  C   UNL     1      -1.483   9.397  -6.375  0.00  0.00    +0.081 C 
ATOM      4  C   UNL     1      -0.782   8.777  -5.189  0.00  0.00    +0.115 C 
ATOM      5  C   UNL     1      -0.505   7.460  -5.167  0.00  0.00    +0.045 C 
ATOM      6  C   UNL     1       0.183   6.839  -3.973  0.00  0.00    +0.097 C 
ATOM      7  C   UNL     1       0.057   7.744  -2.779  0.00  0.00    +0.105 C 
ATOM      8  C   UNL     1      -0.250   9.057  -2.942  0.00  0.00    +0.195 C 
ATOM      9  O   UNL     1      -0.450   9.581  -4.161  0.00  0.00    -0.446 OA
ATOM     10  C   UNL     1      -0.840   6.624  -6.250  0.00  0.00    +0.164 C 
ATOM     11  O   UNL     1      -0.590   5.437  -6.186  0.00  0.00    -0.292 OA
ATOM     12  C   UNL     1      -1.503   7.173  -7.484  0.00  0.00    +0.086 C 
ATOM     13  C   UNL     1      -1.837   9.244  -8.849  0.00  0.00    +0.012 C 
ENDROOT
BRANCH   6  14
ATOM     14  C   UNL     1       1.641   6.624  -4.286  0.00  0.00    -0.035 A 
ATOM     15  C   UNL     1       2.446   7.703  -4.601  0.00  0.00    +0.006 A 
ATOM     16  C   UNL     1       3.785   7.507  -4.883  0.00  0.00    +0.020 A 
ATOM     17  C   UNL     1       4.317   6.230  -4.860  0.00  0.00    +0.041 A 
ATOM     18  C   UNL     1       3.510   5.151  -4.549  0.00  0.00    +0.020 A 
ATOM     19  C   UNL     1       2.172   5.348  -4.262  0.00  0.00    +0.006 A 
ATOM     20 CL   UNL     1       5.997   5.982  -5.219  0.00  0.00    -0.084 Cl
ENDBRANCH   6  14
BRANCH   8  21
ATOM     21  N   UNL     1      -0.358   9.863  -1.841  0.00  0.00    -0.329 N 
ATOM     22  H   UNL     1      -0.088  10.793  -1.892  0.00  0.00    +0.145 HD
ATOM     23  H   UNL     1      -0.705   9.504  -1.009  0.00  0.00    +0.145 HD
ENDBRANCH   8  21
BRANCH   7  24
ATOM     24  C   UNL     1       0.264   7.231  -1.489  0.00  0.00    +0.341 C 
ATOM     25  O   UNL     1       0.279   7.982  -0.530  0.00  0.00    -0.245 OA
BRANCH  24  26
ATOM     26  O   UNL     1       0.446   5.904  -1.312  0.00  0.00    -0.456 OA
BRANCH  26  27
ATOM     27  C   UNL     1       0.651   5.452   0.028  0.00  0.00    +0.268 C 
BRANCH  27  28
ATOM     28  C   UNL     1       0.834   3.956   0.030  0.00  0.00    -0.010 A 
ATOM     29  C   UNL     1       2.099   3.414  -0.101  0.00  0.00    +0.007 A 
ATOM     30  C   UNL     1       2.267   2.042  -0.098  0.00  0.00    +0.000 A 
ATOM     31  C   UNL     1       1.170   1.212   0.035  0.00  0.00    +0.000 A 
ATOM     32  C   UNL     1      -0.096   1.753   0.161  0.00  0.00    +0.000 A 
ATOM     33  C   UNL     1      -0.263   3.125   0.163  0.00  0.00    +0.007 A 
ENDBRANCH  27  28
ENDBRANCH  26  27
ENDBRANCH  24  26
ENDBRANCH   7  24
TORSDOF 6
