REMARK  Name = ZINC16219243
REMARK  12 active torsions:
REMARK  status: ('A' for Active; 'I' for Inactive)
REMARK    1  A    between atoms: C_1  and  C_2
REMARK    2  A    between atoms: C_2  and  N_3
REMARK    3  A    between atoms: N_3  and  C_4
REMARK    4  A    between atoms: N_3  and  S_6
REMARK    5  A    between atoms: C_4  and  C_5
REMARK    6  A    between atoms: S_6  and  C_9
REMARK    7  A    between atoms: C_11  and  N_28
REMARK    8  A    between atoms: C_14  and  N_15
REMARK    9  A    between atoms: N_15  and  N_16
REMARK   10  A    between atoms: N_16  and  C_17
REMARK   11  A    between atoms: C_17  and  N_19
REMARK   12  A    between atoms: N_19  and  C_20
REMARK                            x       y       z     vdW  Elec       q    Type
REMARK                         _______ _______ _______ _____ _____    ______ ____
ROOT
ATOM      1  C   UNL     1      -3.427   2.633   0.459  0.00  0.00    +0.130 A 
ATOM      2  C   UNL     1      -2.344   1.808   0.690  0.00  0.00    +0.063 A 
ATOM      3  C   UNL     1      -1.077   2.347   0.817  0.00  0.00    +0.128 A 
ATOM      4  C   UNL     1      -0.890   3.714   0.717  0.00  0.00    +0.035 A 
ATOM      5  C   UNL     1      -1.968   4.544   0.480  0.00  0.00    +0.028 A 
ATOM      6  C   UNL     1      -3.242   4.006   0.353  0.00  0.00    +0.071 A 
ENDROOT
BRANCH   1   7
ATOM      7  S   UNL     1      -5.041   1.945   0.297  0.00  0.00    +0.063 S 
ATOM      8  O   UNL     1      -5.666   2.626  -0.782  0.00  0.00    -0.153 OA
ATOM      9  O   UNL     1      -4.885   0.533   0.320  0.00  0.00    -0.153 OA
BRANCH   7  10
ATOM     10  N   UNL     1      -5.884   2.350   1.664  0.00  0.00    -0.177 NA
BRANCH  10  12
ATOM     11  C   UNL     1      -8.247   2.963   1.509  0.00  0.00    +0.022 C 
ATOM     12  C   UNL     1      -6.814   3.482   1.643  0.00  0.00    +0.106 C 
ENDBRANCH  10  12
BRANCH  10  13
ATOM     13  C   UNL     1      -5.701   1.575   2.894  0.00  0.00    +0.106 C 
ATOM     14  C   UNL     1      -4.656   2.260   3.777  0.00  0.00    +0.022 C 
ENDBRANCH  10  13
ENDBRANCH   7  10
ENDBRANCH   1   7
BRANCH   3  15
ATOM     15  N   UNL     1       0.082   1.460   1.065  0.00  0.00    +0.056 N 
ATOM     16  O   UNL     1      -0.082   0.256   1.158  0.00  0.00    -0.126 OA
ATOM     17  O   UNL     1       1.199   1.933   1.172  0.00  0.00    -0.126 OA
ENDBRANCH   3  15
BRANCH   6  18
ATOM     18  N   UNL     1      -4.335   4.843   0.118  0.00  0.00    -0.263 N 
ATOM     19  H   UNL     1      -5.230   4.471   0.075  0.00  0.00    +0.170 HD
BRANCH  18  20
ATOM     20  N   UNL     1      -4.139   6.220  -0.053  0.00  0.00    -0.248 N 
ATOM     21  H   UNL     1      -3.240   6.584  -0.064  0.00  0.00    +0.172 HD
BRANCH  20  22
ATOM     22  C   UNL     1      -5.200   7.038  -0.204  0.00  0.00    +0.151 C 
ATOM     23  S   UNL     1      -4.968   8.731  -0.295  0.00  0.00    -0.017 S 
BRANCH  22  24
ATOM     24  N   UNL     1      -6.443   6.522  -0.283  0.00  0.00    -0.295 N 
ATOM     25  H   UNL     1      -7.058   6.624   0.460  0.00  0.00    +0.154 HD
BRANCH  24  26
ATOM     26  C   UNL     1      -6.846   5.840  -1.437  0.00  0.00    +0.051 A 
ATOM     27  C   UNL     1      -5.931   5.588  -2.451  0.00  0.00    +0.026 A 
ATOM     28  C   UNL     1      -6.331   4.914  -3.588  0.00  0.00    +0.022 A 
ATOM     29  C   UNL     1      -7.642   4.490  -3.719  0.00  0.00    +0.042 A 
ATOM     30  C   UNL     1      -8.556   4.741  -2.711  0.00  0.00    +0.041 A 
ATOM     31  C   UNL     1      -8.160   5.410  -1.568  0.00  0.00    +0.063 A 
ATOM     32 CL   UNL     1      -9.306   5.717  -0.299  0.00  0.00    -0.082 Cl
ATOM     33 CL   UNL     1      -8.141   3.644  -5.150  0.00  0.00    -0.083 Cl
ENDBRANCH  24  26
ENDBRANCH  22  24
ENDBRANCH  20  22
ENDBRANCH  18  20
ENDBRANCH   6  18
TORSDOF 10
