REMARK  Name = ZINC09013182
REMARK  9 active torsions:
REMARK  status: ('A' for Active; 'I' for Inactive)
REMARK    1  A    between atoms: C_1  and  C_2
REMARK    2  A    between atoms: C_8  and  C_9
REMARK    3  A    between atoms: C_8  and  N_73
REMARK    4  A    between atoms: C_9  and  N_10
REMARK    5  A    between atoms: N_10  and  C_11
REMARK    6  A    between atoms: C_32  and  C_36
REMARK    7  A    between atoms: C_36  and  C_37
REMARK    8  A    between atoms: C_36  and  C_38
REMARK    9  A    between atoms: C_36  and  C_39
REMARK                            x       y       z     vdW  Elec       q    Type
REMARK                         _______ _______ _______ _____ _____    ______ ____
ROOT
ATOM      1  C   UNL     1      -0.557   1.455  -3.689  0.00  0.00    +0.042 A 
ATOM      2  C   UNL     1      -1.759   2.153  -3.803  0.00  0.00    +0.072 A 
ATOM      3  C   UNL     1      -2.258   2.493  -5.044  0.00  0.00    +0.154 A 
ATOM      4  C   UNL     1      -1.555   2.137  -6.210  0.00  0.00    +0.094 A 
ATOM      5  C   UNL     1      -0.351   1.440  -6.114  0.00  0.00    +0.062 A 
ATOM      6  C   UNL     1       0.159   1.098  -4.839  0.00  0.00    +0.056 A 
ATOM      7  C   UNL     1       1.425   0.369  -4.725  0.00  0.00    +0.196 A 
ATOM      8  O   UNL     1       1.861   0.072  -3.627  0.00  0.00    -0.287 OA
ATOM      9  C   UNL     1       2.174  -0.005  -5.942  0.00  0.00    +0.033 A 
ATOM     10  C   UNL     1       3.378  -0.697  -5.842  0.00  0.00    +0.012 A 
ATOM     11  C   UNL     1       4.072  -1.042  -6.987  0.00  0.00    +0.001 A 
ATOM     12  C   UNL     1       3.577  -0.705  -8.234  0.00  0.00    +0.001 A 
ATOM     13  C   UNL     1       2.384  -0.018  -8.353  0.00  0.00    +0.012 A 
ATOM     14  C   UNL     1       1.671   0.338  -7.210  0.00  0.00    +0.033 A 
ATOM     15  C   UNL     1       0.390   1.065  -7.327  0.00  0.00    +0.197 A 
ATOM     16  O   UNL     1      -0.045   1.361  -8.423  0.00  0.00    -0.287 OA
ATOM     17  N   UNL     1      -2.066   2.484  -7.452  0.00  0.00    -0.349 N 
ATOM     18  H   UNL     1      -1.591   2.245  -8.263  0.00  0.00    +0.166 HD
ATOM     19  C   UNL     1      -3.276   3.184  -7.517  0.00  0.00    +0.083 A 
ATOM     20  C   UNL     1      -3.810   3.545  -8.745  0.00  0.00    +0.029 A 
ATOM     21  C   UNL     1      -5.005   4.237  -8.800  0.00  0.00    +0.006 A 
ATOM     22  C   UNL     1      -5.669   4.570  -7.634  0.00  0.00    -0.038 A 
ATOM     23  C   UNL     1      -5.143   4.214  -6.407  0.00  0.00    +0.052 A 
ATOM     24  C   UNL     1      -3.945   3.520  -6.340  0.00  0.00    +0.152 A 
ATOM     25  O   UNL     1      -3.429   3.172  -5.134  0.00  0.00    -0.452 OA
ENDROOT
BRANCH  22  26
ATOM     26  C   UNL     1      -6.972   5.325  -7.702  0.00  0.00    -0.013 C 
ATOM     27  C   UNL     1      -7.330   5.594  -9.165  0.00  0.00    +0.015 C 
ATOM     28  C   UNL     1      -8.078   4.492  -7.051  0.00  0.00    +0.015 C 
ATOM     29  C   UNL     1      -6.831   6.654  -6.959  0.00  0.00    +0.015 C 
ENDBRANCH  22  26
BRANCH   1  30
ATOM     30  N   UNL     1      -0.067   1.120  -2.437  0.00  0.00    -0.345 N 
ATOM     31  H   UNL     1       0.719   0.556  -2.358  0.00  0.00    +0.146 HD
BRANCH  30  32
ATOM     32  C   UNL     1      -0.735   1.617  -1.232  0.00  0.00    +0.083 C 
BRANCH  32  33
ATOM     33  C   UNL     1       0.001   1.105   0.008  0.00  0.00    -0.060 C 
BRANCH  33  40
ATOM     34  C   UNL     1      -0.222   0.893   4.917  0.00  0.00    +0.005 C 
ATOM     35  C   UNL     1      -0.755   1.592   3.664  0.00  0.00    -0.031 C 
ATOM     36  C   UNL     1      -2.279   1.449   3.609  0.00  0.00    -0.001 C 
ATOM     37  C   UNL     1      -2.798   2.098   2.323  0.00  0.00    -0.018 C 
ATOM     38  C   UNL     1      -2.125   1.439   1.117  0.00  0.00    -0.079 C 
ATOM     39  C   UNL     1      -0.142   0.948   2.419  0.00  0.00    -0.076 C 
ATOM     40  N   UNL     1      -0.663   1.633   1.218  0.00  0.00    +0.381 N 
ATOM     41  H   UNL     1      -0.465   2.638   1.295  0.00  0.00    -0.082 HD
ENDBRANCH  33  40
ENDBRANCH  32  33
ENDBRANCH  30  32
ENDBRANCH   1  30
TORSDOF 5
