REMARK  Name = ZINC28053327
REMARK  4 active torsions:
REMARK  status: ('A' for Active; 'I' for Inactive)
REMARK    1  A    between atoms: C_1  and  O_2
REMARK    2  A    between atoms: O_2  and  C_3
REMARK    3  A    between atoms: C_7  and  C_9
REMARK    4  A    between atoms: C_26  and  C_28
REMARK                            x       y       z     vdW  Elec       q    Type
REMARK                         _______ _______ _______ _____ _____    ______ ____
ROOT
ATOM      1  C   UNL     1       0.999   3.632  -0.009  0.00  0.00    +0.234 C 
ATOM      2  C   UNL     1       0.954   2.121   0.012  0.00  0.00    +0.025 C 
ATOM      3  C   UNL     1      -0.230   1.507   0.061  0.00  0.00    +0.050 C 
ATOM      4  C   UNL     1      -1.455   2.339   0.132  0.00  0.00    +0.038 A 
ATOM      5  C   UNL     1      -2.710   1.809  -0.142  0.00  0.00    +0.013 A 
ATOM      6  C   UNL     1      -3.825   2.622  -0.060  0.00  0.00    +0.001 A 
ATOM      7  C   UNL     1      -3.694   3.954   0.292  0.00  0.00    +0.004 A 
ATOM      8  C   UNL     1      -2.448   4.489   0.565  0.00  0.00    +0.046 A 
ATOM      9  C   UNL     1      -1.324   3.688   0.486  0.00  0.00    +0.131 A 
ATOM     10  O   UNL     1      -0.084   4.176   0.744  0.00  0.00    -0.479 OA
ATOM     11  N   UNL     1      -0.349   0.112   0.065  0.00  0.00    -0.282 N 
ATOM     12  C   UNL     1       0.800  -0.622   0.311  0.00  0.00    +0.240 A 
ATOM     13  N   UNL     1       0.970  -1.879   0.604  0.00  0.00    -0.092 NA
ATOM     14  N   UNL     1       2.224  -2.134   0.763  0.00  0.00    -0.021 NA
ATOM     15  N   UNL     1       2.928  -1.064   0.580  0.00  0.00    -0.042 NA
ATOM     16  N   UNL     1       2.029  -0.044   0.275  0.00  0.00    -0.201 N 
ATOM     17  C   UNL     1       2.256   1.361  -0.035  0.00  0.00    +0.174 C 
ATOM     18  H   UNL     1      -1.326  -0.357  -0.124  0.00  0.00    +0.155 HD
ENDROOT
BRANCH   1  23
ATOM     19  C   UNL     1      -0.392   4.498  -3.414  0.00  0.00    +0.120 A 
ATOM     20  C   UNL     1       0.735   4.997  -4.052  0.00  0.00    +0.045 A 
ATOM     21  C   UNL     1       1.940   5.051  -3.380  0.00  0.00    +0.004 A 
ATOM     22  C   UNL     1       2.024   4.614  -2.071  0.00  0.00    +0.008 A 
ATOM     23  C   UNL     1       0.903   4.112  -1.435  0.00  0.00    +0.000 A 
ATOM     24  C   UNL     1      -0.305   4.056  -2.103  0.00  0.00    +0.053 A 
BRANCH  19  26
ATOM     25  C   UNL     1      -1.595   4.917  -5.422  0.00  0.00    +0.277 C 
ATOM     26  O   UNL     1      -1.579   4.444  -4.073  0.00  0.00    -0.495 OA
ENDBRANCH  19  26
ENDBRANCH   1  23
BRANCH  17  27
ATOM     27  C   UNL     1       2.853   1.478  -1.414  0.00  0.00    -0.019 A 
ATOM     28  C   UNL     1       2.163   0.995  -2.509  0.00  0.00    +0.006 A 
ATOM     29  C   UNL     1       2.708   1.106  -3.774  0.00  0.00    +0.000 A 
ATOM     30  C   UNL     1       3.949   1.692  -3.943  0.00  0.00    +0.000 A 
ATOM     31  C   UNL     1       4.642   2.170  -2.846  0.00  0.00    +0.000 A 
ATOM     32  C   UNL     1       4.095   2.063  -1.582  0.00  0.00    +0.006 A 
ENDBRANCH  17  27
TORSDOF 3
