REMARK  Name = ZINC08918579
REMARK  12 active torsions:
REMARK  status: ('A' for Active; 'I' for Inactive)
REMARK    1  A    between atoms: C_1  and  C_2
REMARK    2  A    between atoms: N_6  and  O_7
REMARK    3  A    between atoms: O_7  and  C_8
REMARK    4  A    between atoms: C_8  and  C_9
REMARK    5  A    between atoms: N_11  and  C_12
REMARK    6  A    between atoms: C_12  and  C_13
REMARK    7  A    between atoms: C_27  and  O_42
REMARK    8  A    between atoms: C_30  and  C_41
REMARK    9  A    between atoms: C_35  and  C_36
REMARK   10  A    between atoms: C_35  and  O_40
REMARK   11  A    between atoms: C_36  and  C_38
REMARK   12  A    between atoms: C_38  and  O_39
REMARK                            x       y       z     vdW  Elec       q    Type
REMARK                         _______ _______ _______ _____ _____    ______ ____
ROOT
ATOM      1  C   UNL     1       3.671   4.549  -3.373  0.00  0.00    +0.016 C 
ATOM      2  C   UNL     1       2.137   4.525  -3.374  0.00  0.00    -0.005 C 
ATOM      3  C   UNL     1       1.752   4.629  -4.829  0.00  0.00    +0.017 C 
ATOM      4  C   UNL     1       0.370   5.243  -5.039  0.00  0.00    +0.059 C 
ATOM      5  C   UNL     1       0.381   6.620  -4.406  0.00  0.00    +0.080 C 
ATOM      6  N   UNL     1      -0.089   7.660  -5.021  0.00  0.00    -0.089 NA
ATOM      7  C   UNL     1       0.958   6.710  -3.053  0.00  0.00    +0.026 C 
ATOM      8  C   UNL     1       1.716   5.734  -2.582  0.00  0.00    -0.061 C 
ATOM      9  C   UNL     1       2.152   5.803  -1.127  0.00  0.00    +0.031 C 
ATOM     10  C   UNL     1       1.608   4.530  -0.466  0.00  0.00    +0.008 C 
ATOM     11  C   UNL     1       2.157   3.301  -1.196  0.00  0.00    -0.001 C 
ATOM     12  C   UNL     1       1.686   3.262  -2.653  0.00  0.00    +0.031 C 
ATOM     13  C   UNL     1       2.232   1.991  -3.301  0.00  0.00    +0.119 C 
ATOM     14  C   UNL     1       1.715   0.759  -2.551  0.00  0.00    +0.041 C 
ATOM     15  C   UNL     1       2.180   0.749  -1.097  0.00  0.00    +0.009 C 
ATOM     16  C   UNL     1       1.781   2.065  -0.413  0.00  0.00    +0.002 C 
ATOM     17  C   UNL     1       0.264   1.922  -0.200  0.00  0.00    +0.008 C 
ATOM     18  C   UNL     1       0.098   0.439   0.208  0.00  0.00    +0.043 C 
ATOM     19  C   UNL     1       1.321  -0.309  -0.353  0.00  0.00    +0.131 C 
ATOM     20  C   UNL     1       3.676   0.458  -0.964  0.00  0.00    +0.015 C 
ENDROOT
BRANCH  19  21
ATOM     21  C   UNL     1       2.116  -0.918   0.775  0.00  0.00    +0.190 C 
ATOM     22  O   UNL     1       2.948  -0.259   1.351  0.00  0.00    -0.292 OA
BRANCH  21  23
ATOM     23  C   UNL     1       1.872  -2.348   1.183  0.00  0.00    +0.233 C 
BRANCH  23  24
ATOM     24  O   UNL     1       2.741  -2.689   2.264  0.00  0.00    -0.387 OA
ATOM     25  H   UNL     1       2.638  -3.598   2.580  0.00  0.00    +0.210 HD
ENDBRANCH  23  24
ENDBRANCH  21  23
ENDBRANCH  19  21
BRANCH  19  26
ATOM     26  O   UNL     1       0.899  -1.331  -1.258  0.00  0.00    -0.380 OA
ATOM     27  H   UNL     1       0.341  -2.009  -0.854  0.00  0.00    +0.211 HD
ENDBRANCH  19  26
BRANCH  13  28
ATOM     28  O   UNL     1       1.773   1.855  -4.651  0.00  0.00    -0.391 OA
ATOM     29  H   UNL     1       2.097   1.062  -5.099  0.00  0.00    +0.210 HD
ENDBRANCH  13  28
BRANCH   6  30
ATOM     30  O   UNL     1      -0.057   8.929  -4.393  0.00  0.00    -0.384 OA
BRANCH  30  31
ATOM     31  C   UNL     1      -0.608   9.983  -5.184  0.00  0.00    +0.358 C 
BRANCH  31  32
ATOM     32  C   UNL     1      -0.522  11.281  -4.422  0.00  0.00    +0.254 C 
ATOM     33  O   UNL     1      -0.037  11.300  -3.311  0.00  0.00    -0.272 OA
ATOM     34  N   UNL     1      -0.984  12.419  -4.976  0.00  0.00    -0.308 N 
ATOM     35  H   UNL     1      -1.372  12.404  -5.865  0.00  0.00    +0.149 HD
BRANCH  34  36
ATOM     36  C   UNL     1      -0.901  13.681  -4.236  0.00  0.00    +0.139 C 
BRANCH  36  37
ATOM     37  C   UNL     1      -1.482  14.793  -5.070  0.00  0.00    -0.027 A 
ATOM     38  C   UNL     1      -0.680  15.527  -5.931  0.00  0.00    +0.025 A 
ATOM     39  C   UNL     1      -1.248  16.536  -6.684  0.00  0.00    +0.111 A 
ATOM     40  N   UNL     1      -2.534  16.811  -6.584  0.00  0.00    -0.263 NA
ATOM     41  C   UNL     1      -3.325  16.137  -5.772  0.00  0.00    +0.111 A 
ATOM     42  C   UNL     1      -2.829  15.110  -4.992  0.00  0.00    +0.025 A 
ENDBRANCH  36  37
ENDBRANCH  34  36
ENDBRANCH  31  32
ENDBRANCH  30  31
ENDBRANCH   6  30
TORSDOF 10
