REMARK  Name = ZINC16607237
REMARK  11 active torsions:
REMARK  status: ('A' for Active; 'I' for Inactive)
REMARK    1  A    between atoms: C_1  and  C_2
REMARK    2  A    between atoms: C_2  and  C_3
REMARK    3  A    between atoms: C_3  and  C_5
REMARK    4  A    between atoms: C_3  and  C_6
REMARK    5  A    between atoms: C_6  and  C_8
REMARK    6  A    between atoms: C_6  and  N_25
REMARK    7  A    between atoms: C_14  and  C_16
REMARK    8  A    between atoms: C_19  and  N_22
REMARK    9  A    between atoms: N_22  and  C_23
REMARK   10  A    between atoms: N_22  and  C_24
REMARK   11  A    between atoms: N_28  and  C_29
REMARK                            x       y       z     vdW  Elec       q    Type
REMARK                         _______ _______ _______ _____ _____    ______ ____
ROOT
ATOM      1  C   UNL     1      -0.855   3.547   2.445  0.00  0.00    +0.163 C 
ENDROOT
BRANCH   1   2
ATOM      2  C   UNL     1      -0.264   3.022   3.728  0.00  0.00    +0.239 C 
ATOM      3  O   UNL     1      -0.845   2.162   4.356  0.00  0.00    -0.273 OA
ATOM      4  N   UNL     1       0.910   3.507   4.178  0.00  0.00    -0.262 N 
ATOM      5  C   UNL     1       1.403   3.100   5.411  0.00  0.00    +0.188 A 
ATOM      6  N   UNL     1       0.889   2.260   6.300  0.00  0.00    -0.125 NA
ATOM      7  N   UNL     1       1.477   1.992   7.383  0.00  0.00    -0.140 NA
ATOM      8  C   UNL     1       2.640   2.546   7.705  0.00  0.00    +0.134 A 
ATOM      9  S   UNL     1       2.911   3.566   6.258  0.00  0.00    -0.030 S 
ATOM     10  H   UNL     1       1.410   4.141   3.640  0.00  0.00    +0.157 HD
BRANCH   8  11
ATOM     11  C   UNL     1       3.474   2.371   8.912  0.00  0.00    +0.009 A 
ATOM     12  C   UNL     1       4.681   3.062   9.036  0.00  0.00    +0.012 A 
ATOM     13  C   UNL     1       5.453   2.901  10.166  0.00  0.00    +0.024 A 
ATOM     14  C   UNL     1       5.037   2.043  11.177  0.00  0.00    +0.029 A 
ATOM     15  C   UNL     1       3.838   1.349  11.055  0.00  0.00    +0.024 A 
ATOM     16  C   UNL     1       3.058   1.510   9.930  0.00  0.00    +0.012 A 
BRANCH  14  17
ATOM     17  N   UNL     1       5.824   1.877  12.318  0.00  0.00    -0.336 N 
ATOM     18  C   UNL     1       5.450   0.884  13.328  0.00  0.00    +0.129 C 
ATOM     19  C   UNL     1       7.024   2.696  12.505  0.00  0.00    +0.129 C 
ENDBRANCH  14  17
ENDBRANCH   8  11
ENDBRANCH   1   2
BRANCH   1  20
ATOM     20  N   UNL     1      -2.311   3.382   2.474  0.00  0.00    -0.288 N 
ATOM     21  C   UNL     1      -3.095   4.186   1.729  0.00  0.00    +0.304 C 
ATOM     22  O   UNL     1      -2.595   5.048   1.033  0.00  0.00    -0.252 OA
ATOM     23  N   UNL     1      -4.434   4.034   1.756  0.00  0.00    -0.269 N 
ATOM     24  H   UNL     1      -2.710   2.694   3.029  0.00  0.00    +0.151 HD
ATOM     25  H   UNL     1      -4.837   3.392   2.360  0.00  0.00    +0.156 HD
BRANCH  23  26
ATOM     26  C   UNL     1      -5.242   4.804   0.911  0.00  0.00    +0.035 A 
ATOM     27  C   UNL     1      -4.900   6.120   0.630  0.00  0.00    +0.025 A 
ATOM     28  C   UNL     1      -5.697   6.875  -0.208  0.00  0.00    +0.022 A 
ATOM     29  C   UNL     1      -6.842   6.326  -0.758  0.00  0.00    +0.041 A 
ATOM     30  C   UNL     1      -7.188   5.016  -0.475  0.00  0.00    +0.022 A 
ATOM     31  C   UNL     1      -6.391   4.254   0.357  0.00  0.00    +0.025 A 
ATOM     32 CL   UNL     1      -7.845   7.280  -1.805  0.00  0.00    -0.084 Cl
ENDBRANCH  23  26
ENDBRANCH   1  20
BRANCH   1  33
ATOM     33  C   UNL     1      -0.277   2.769   1.261  0.00  0.00    +0.015 C 
ATOM     34  C   UNL     1       1.224   3.045   1.154  0.00  0.00    +0.010 C 
BRANCH  33  36
ATOM     35  C   UNL     1      -0.042   0.503   0.236  0.00  0.00    +0.004 C 
ATOM     36  C   UNL     1      -0.507   1.272   1.474  0.00  0.00    +0.002 C 
ENDBRANCH  33  36
ENDBRANCH   1  33
TORSDOF 7
