REMARK  Name = ZINC03254028
REMARK  6 active torsions:
REMARK  status: ('A' for Active; 'I' for Inactive)
REMARK    1  A    between atoms: C_1  and  C_2
REMARK    2  A    between atoms: C_3  and  C_15
REMARK    3  A    between atoms: C_4  and  N_14
REMARK    4  A    between atoms: N_5  and  C_7
REMARK    5  A    between atoms: C_15  and  O_26
REMARK    6  A    between atoms: N_22  and  C_25
REMARK                            x       y       z     vdW  Elec       q    Type
REMARK                         _______ _______ _______ _____ _____    ______ ____
ROOT
ATOM      1  C   UNL     1      -1.209  -0.901   0.009  0.00  0.00    +0.068 C 
ATOM      2  C   UNL     1       0.002  -0.004   0.002  0.00  0.00    +0.069 A 
ATOM      3  C   UNL     1      -0.017   1.394   0.010  0.00  0.00    +0.060 A 
ATOM      4  C   UNL     1       1.273   1.829  -0.000  0.00  0.00    +0.127 A 
ATOM      5  N   UNL     1       2.075   0.729  -0.014  0.00  0.00    -0.218 N 
ATOM      6  N   UNL     1       1.249  -0.402  -0.012  0.00  0.00    -0.170 NA
ENDROOT
BRANCH   3   7
ATOM      7  C   UNL     1      -1.247   2.264   0.021  0.00  0.00    +0.199 C 
ATOM      8  C   UNL     1      -2.360   1.598   0.796  0.00  0.00    +0.019 A 
ATOM      9  C   UNL     1      -2.478   1.198   2.108  0.00  0.00    +0.009 A 
ATOM     10  C   UNL     1      -3.647   0.600   2.545  0.00  0.00    +0.000 A 
ATOM     11  C   UNL     1      -4.693   0.406   1.661  0.00  0.00    +0.002 A 
ATOM     12  C   UNL     1      -4.577   0.805   0.345  0.00  0.00    +0.024 A 
ATOM     13  C   UNL     1      -3.403   1.409  -0.102  0.00  0.00    +0.043 A 
ATOM     14  N   UNL     1      -3.048   1.892  -1.362  0.00  0.00    -0.271 N 
ATOM     15  C   UNL     1      -1.806   2.411  -1.379  0.00  0.00    +0.261 C 
ATOM     16  O   UNL     1      -1.240   2.901  -2.333  0.00  0.00    -0.271 OA
ATOM     17  C   UNL     1      -3.928   1.844  -2.532  0.00  0.00    +0.138 C 
BRANCH   7  18
ATOM     18  O   UNL     1      -0.947   3.546   0.577  0.00  0.00    -0.371 OA
ATOM     19  H   UNL     1      -1.703   4.148   0.608  0.00  0.00    +0.212 HD
ENDBRANCH   7  18
ENDBRANCH   3   7
BRANCH   5  20
ATOM     20  C   UNL     1       3.477   0.729  -0.028  0.00  0.00    +0.068 A 
ATOM     21  C   UNL     1       4.166   1.713  -0.723  0.00  0.00    +0.029 A 
ATOM     22  C   UNL     1       5.547   1.713  -0.731  0.00  0.00    +0.022 A 
ATOM     23  C   UNL     1       6.244   0.727  -0.054  0.00  0.00    +0.041 A 
ATOM     24  C   UNL     1       5.559  -0.258   0.635  0.00  0.00    +0.022 A 
ATOM     25  C   UNL     1       4.178  -0.260   0.650  0.00  0.00    +0.029 A 
ATOM     26 CL   UNL     1       7.980   0.727  -0.071  0.00  0.00    -0.084 Cl
ENDBRANCH   5  20
BRANCH   4  27
ATOM     27  N   UNL     1       1.695   3.155   0.002  0.00  0.00    -0.343 N 
ATOM     28  H   UNL     1       1.042   3.872   0.012  0.00  0.00    +0.144 HD
ATOM     29  H   UNL     1       2.643   3.363  -0.006  0.00  0.00    +0.144 HD
ENDBRANCH   4  27
TORSDOF 4
