REMARK  Name = ZINC28289677
REMARK  11 active torsions:
REMARK  status: ('A' for Active; 'I' for Inactive)
REMARK    1  A    between atoms: C_1  and  C_2
REMARK    2  A    between atoms: C_2  and  C_3
REMARK    3  A    between atoms: C_2  and  C_4
REMARK    4  A    between atoms: C_2  and  C_5
REMARK    5  A    between atoms: C_8  and  C_11
REMARK    6  A    between atoms: C_11  and  C_13
REMARK    7  A    between atoms: C_11  and  N_29
REMARK    8  A    between atoms: C_13  and  N_14
REMARK    9  A    between atoms: C_15  and  C_17
REMARK   10  A    between atoms: N_29  and  C_30
REMARK   11  A    between atoms: N_29  and  C_31
REMARK                            x       y       z     vdW  Elec       q    Type
REMARK                         _______ _______ _______ _____ _____    ______ ____
ROOT
ATOM      1  C   UNL     1      -0.295   0.132   1.401  0.00  0.00    +0.094 C 
ENDROOT
BRANCH   1   2
ATOM      2  N   UNL     1      -0.338  -1.235   1.926  0.00  0.00    -0.310 N 
ATOM      3  C   UNL     1      -0.573  -1.447   3.236  0.00  0.00    +0.279 C 
ATOM      4  O   UNL     1      -0.749  -0.504   3.982  0.00  0.00    -0.267 OA
ATOM      5  H   UNL     1      -0.179  -2.089   1.250  0.00  0.00    +0.149 HD
BRANCH   3   6
ATOM      6  C   UNL     1      -0.617  -2.830   3.767  0.00  0.00    +0.193 A 
ATOM      7  C   UNL     1      -0.849  -3.013   5.088  0.00  0.00    +0.103 A 
ATOM      8  C   UNL     1      -0.899  -4.385   5.615  0.00  0.00    +0.193 A 
ATOM      9  O   UNL     1      -1.109  -4.609   6.795  0.00  0.00    -0.287 OA
ATOM     10  C   UNL     1      -0.675  -5.478   4.650  0.00  0.00    +0.064 A 
ATOM     11  C   UNL     1      -0.697  -6.814   5.048  0.00  0.00    +0.016 A 
ATOM     12  C   UNL     1      -0.485  -7.799   4.125  0.00  0.00    +0.016 A 
ATOM     13  C   UNL     1      -0.250  -7.477   2.794  0.00  0.00    +0.021 A 
ATOM     14  C   UNL     1      -0.227  -6.161   2.382  0.00  0.00    +0.062 A 
ATOM     15  C   UNL     1      -0.439  -5.142   3.305  0.00  0.00    +0.141 A 
ATOM     16  O   UNL     1      -0.419  -3.852   2.920  0.00  0.00    -0.450 OA
ATOM     17 BR   UNL     1       0.039  -8.857   1.535  0.00  0.00    -0.050 Br
ENDBRANCH   3   6
ENDBRANCH   1   2
BRANCH   1  18
ATOM     18  C   UNL     1      -0.137   0.090  -0.120  0.00  0.00    -0.021 C 
BRANCH  18  22
ATOM     19  C   UNL     1      -0.208   4.069  -1.671  0.00  0.00    -0.042 A 
ATOM     20  C   UNL     1       0.991   3.389  -1.567  0.00  0.00    +0.004 A 
ATOM     21  C   UNL     1       1.014   2.101  -1.065  0.00  0.00    +0.002 A 
ATOM     22  C   UNL     1      -0.162   1.494  -0.667  0.00  0.00    -0.059 A 
ATOM     23  C   UNL     1      -1.361   2.172  -0.776  0.00  0.00    +0.002 A 
ATOM     24  C   UNL     1      -1.384   3.461  -1.273  0.00  0.00    +0.004 A 
BRANCH  19  26
ATOM     25  C   UNL     1       0.318   5.474  -3.645  0.00  0.00    +0.015 C 
ATOM     26  C   UNL     1      -0.233   5.473  -2.218  0.00  0.00    -0.013 C 
ATOM     27  C   UNL     1      -1.672   5.992  -2.225  0.00  0.00    +0.015 C 
ATOM     28  C   UNL     1       0.631   6.379  -1.337  0.00  0.00    +0.015 C 
ENDBRANCH  19  26
ENDBRANCH  18  22
BRANCH  18  29
ATOM     29  N   UNL     1      -1.240  -0.684  -0.706  0.00  0.00    +0.382 N 
ATOM     30  C   UNL     1      -2.469  -0.528   0.083  0.00  0.00    -0.096 C 
ATOM     31  C   UNL     1      -1.462  -0.305  -2.108  0.00  0.00    -0.096 C 
ATOM     32  H   UNL     1      -0.957  -1.746  -0.684  0.00  0.00    -0.082 HD
ENDBRANCH  18  29
ENDBRANCH   1  18
TORSDOF 6
