REMARK  Name = ZINC50208607
REMARK  6 active torsions:
REMARK  status: ('A' for Active; 'I' for Inactive)
REMARK    1  A    between atoms: C_1  and  C_2
REMARK    2  A    between atoms: C_2  and  C_3
REMARK    3  A    between atoms: C_2  and  C_4
REMARK    4  A    between atoms: C_2  and  C_5
REMARK    5  A    between atoms: C_7  and  C_10
REMARK    6  A    between atoms: C_15  and  N_16
REMARK                            x       y       z     vdW  Elec       q    Type
REMARK                         _______ _______ _______ _____ _____    ______ ____
ROOT
ATOM      1  C   UNL     1       1.936  -3.078  -3.423  0.00  0.00    +0.061 A 
ATOM      2  C   UNL     1       1.066  -4.171  -3.460  0.00  0.00    +0.030 A 
ATOM      3  C   UNL     1       1.455  -5.338  -4.083  0.00  0.00    +0.019 A 
ATOM      4  C   UNL     1       2.706  -5.434  -4.673  0.00  0.00    +0.017 A 
ATOM      5  C   UNL     1       3.575  -4.362  -4.643  0.00  0.00    +0.024 A 
ATOM      6  C   UNL     1       3.198  -3.176  -4.026  0.00  0.00    +0.037 A 
ATOM      7 BR   UNL     1       0.276  -6.816  -4.132  0.00  0.00    -0.050 Br
ENDROOT
BRANCH   1  10
ATOM      8  C   UNL     1       0.734  -0.446  -1.283  0.00  0.00    +0.177 A 
ATOM      9  N   UNL     1       0.971  -1.728  -1.570  0.00  0.00    -0.191 NA
ATOM     10  C   UNL     1       1.526  -1.827  -2.758  0.00  0.00    +0.260 A 
ATOM     11  O   UNL     1       1.655  -0.586  -3.260  0.00  0.00    -0.333 OA
ATOM     12  N   UNL     1       1.126   0.295  -2.280  0.00  0.00    -0.060 NA
BRANCH   8  14
ATOM     13  C   UNL     1      -0.000   1.588  -0.069  0.00  0.00    +0.019 C 
ATOM     14  C   UNL     1       0.106   0.063  -0.011  0.00  0.00    +0.025 C 
ATOM     15  C   UNL     1       0.973  -0.343   1.183  0.00  0.00    +0.019 C 
ATOM     16  C   UNL     1      -1.292  -0.540   0.145  0.00  0.00    +0.019 C 
ENDBRANCH   8  14
ENDBRANCH   1  10
BRANCH   6  17
ATOM     17  N   UNL     1       4.071  -2.093  -4.001  0.00  0.00    -0.357 N 
ATOM     18  H   UNL     1       3.846  -1.301  -3.489  0.00  0.00    +0.142 HD
ATOM     19  H   UNL     1       4.905  -2.130  -4.496  0.00  0.00    +0.142 HD
ENDBRANCH   6  17
TORSDOF 3
