REMARK  Name = ZINC01414701
REMARK  7 active torsions:
REMARK  status: ('A' for Active; 'I' for Inactive)
REMARK    1  A    between atoms: C_1  and  C_2
REMARK    2  A    between atoms: C_5  and  C_8
REMARK    3  A    between atoms: C_8  and  C_9
REMARK    4  A    between atoms: C_10  and  C_29
REMARK    5  A    between atoms: N_12  and  C_17
REMARK    6  A    between atoms: C_17  and  C_18
REMARK    7  A    between atoms: C_18  and  C_19
REMARK                            x       y       z     vdW  Elec       q    Type
REMARK                         _______ _______ _______ _____ _____    ______ ____
ROOT
ATOM      1  C   UNL     1      -5.064   4.274  -1.779  0.00  0.00    +0.076 C 
ATOM      2  C   UNL     1      -4.159   3.066  -1.853  0.00  0.00    +0.145 C 
ATOM      3  N   UNL     1      -2.817   3.566  -2.163  0.00  0.00    -0.283 N 
ATOM      4  C   UNL     1      -2.863   4.903  -2.279  0.00  0.00    +0.288 C 
ATOM      5  O   UNL     1      -1.913   5.613  -2.536  0.00  0.00    -0.266 OA
ATOM      6  C   UNL     1      -4.251   5.388  -2.046  0.00  0.00    +0.249 C 
ATOM      7  O   UNL     1      -4.618   6.548  -2.082  0.00  0.00    -0.282 OA
ENDROOT
BRANCH   2   8
ATOM      8  C   UNL     1      -4.151   2.350  -0.527  0.00  0.00    -0.022 A 
ATOM      9  C   UNL     1      -3.409   2.853   0.525  0.00  0.00    +0.007 A 
ATOM     10  C   UNL     1      -3.405   2.199   1.743  0.00  0.00    +0.015 A 
ATOM     11  C   UNL     1      -4.134   1.035   1.905  0.00  0.00    +0.018 A 
ATOM     12  C   UNL     1      -4.871   0.529   0.850  0.00  0.00    +0.015 A 
ATOM     13  C   UNL     1      -4.880   1.186  -0.365  0.00  0.00    +0.007 A 
ATOM     14 BR   UNL     1      -4.123   0.136   3.569  0.00  0.00    -0.050 Br
ENDBRANCH   2   8
BRANCH   1  15
ATOM     15  C   UNL     1      -6.417   4.281  -1.509  0.00  0.00    +0.195 C 
ATOM     16  O   UNL     1      -7.091   3.116  -1.407  0.00  0.00    -0.287 OA
BRANCH  15  21
ATOM     17  C   UNL     1      -9.186   9.274  -0.820  0.00  0.00    +0.044 C 
ATOM     18  C   UNL     1      -8.460   7.966  -1.001  0.00  0.00    -0.050 A 
ATOM     19  C   UNL     1      -8.957   7.019  -1.880  0.00  0.00    +0.004 A 
ATOM     20  C   UNL     1      -8.299   5.819  -2.050  0.00  0.00    +0.012 A 
ATOM     21  C   UNL     1      -7.127   5.561  -1.333  0.00  0.00    +0.022 A 
ATOM     22  C   UNL     1      -6.634   6.520  -0.442  0.00  0.00    +0.012 A 
ATOM     23  C   UNL     1      -7.301   7.717  -0.286  0.00  0.00    +0.004 A 
ENDBRANCH  15  21
ENDBRANCH   1  15
BRANCH   3  24
ATOM     24  C   UNL     1      -1.618   2.739  -2.325  0.00  0.00    +0.114 C 
BRANCH  24  25
ATOM     25  C   UNL     1      -0.919   2.583  -0.973  0.00  0.00    +0.056 C 
BRANCH  25  26
ATOM     26  C   UNL     1       0.314   1.732  -1.141  0.00  0.00    -0.021 A 
ATOM     27  C   UNL     1       0.404   0.408  -0.939  0.00  0.00    +0.087 A 
ATOM     28  N   UNL     1       1.679  -0.017  -1.196  0.00  0.00    -0.360 N 
ATOM     29  H   UNL     1       1.938  -1.080  -1.082  0.00  0.00    +0.165 HD
ATOM     30  C   UNL     1       2.461   1.050  -1.578  0.00  0.00    +0.047 A 
ATOM     31  C   UNL     1       1.640   2.193  -1.560  0.00  0.00    +0.003 A 
ATOM     32  C   UNL     1       2.170   3.437  -1.908  0.00  0.00    +0.010 A 
ATOM     33  C   UNL     1       3.486   3.538  -2.264  0.00  0.00    +0.001 A 
ATOM     34  C   UNL     1       4.299   2.414  -2.283  0.00  0.00    +0.002 A 
ATOM     35  C   UNL     1       3.796   1.177  -1.944  0.00  0.00    +0.026 A 
ENDBRANCH  25  26
ENDBRANCH  24  25
ENDBRANCH   3  24
TORSDOF 6
