REMARK  Name = ZINC01774472
REMARK  11 active torsions:
REMARK  status: ('A' for Active; 'I' for Inactive)
REMARK    1  A    between atoms: C_1  and  C_2
REMARK    2  A    between atoms: C_2  and  O_3
REMARK    3  A    between atoms: O_3  and  C_4
REMARK    4  A    between atoms: C_4  and  C_6
REMARK    5  A    between atoms: C_6  and  C_8
REMARK    6  A    between atoms: C_6  and  N_19
REMARK    7  A    between atoms: C_8  and  C_9
REMARK    8  A    between atoms: C_20  and  C_22
REMARK    9  A    between atoms: C_22  and  C_24
REMARK   10  A    between atoms: C_22  and  N_31
REMARK   11  A    between atoms: C_24  and  C_25
REMARK                            x       y       z     vdW  Elec       q    Type
REMARK                         _______ _______ _______ _____ _____    ______ ____
ROOT
ATOM      1  N   UNL     1      -0.458  -1.781   1.661  0.00  0.00    -0.301 N 
ATOM      2  C   UNL     1      -0.690  -0.523   1.236  0.00  0.00    +0.235 C 
ATOM      3  O   UNL     1      -1.455   0.192   1.848  0.00  0.00    -0.274 OA
ATOM      4  H   UNL     1       0.155  -2.352   1.171  0.00  0.00    +0.150 HD
ENDROOT
BRANCH   1   5
ATOM      5  C   UNL     1      -1.130  -2.285   2.861  0.00  0.00    +0.186 C 
BRANCH   5   6
ATOM      6  C   UNL     1      -0.346  -1.882   4.083  0.00  0.00    +0.328 C 
ATOM      7  O   UNL     1       0.671  -1.240   3.963  0.00  0.00    -0.249 OA
BRANCH   6   8
ATOM      8  O   UNL     1      -0.776  -2.237   5.303  0.00  0.00    -0.464 OA
BRANCH   8  10
ATOM      9  C   UNL     1      -0.615  -2.308   7.732  0.00  0.00    +0.048 C 
ATOM     10  C   UNL     1       0.030  -1.815   6.435  0.00  0.00    +0.229 C 
ENDBRANCH   8  10
ENDBRANCH   6   8
ENDBRANCH   5   6
BRANCH   5  11
ATOM     11  C   UNL     1      -1.220  -3.811   2.792  0.00  0.00    +0.071 C 
BRANCH  11  12
ATOM     12  C   UNL     1      -2.106  -4.210   1.641  0.00  0.00    -0.020 A 
ATOM     13  C   UNL     1      -3.417  -4.492   1.702  0.00  0.00    +0.087 A 
ATOM     14  N   UNL     1      -3.885  -4.814   0.457  0.00  0.00    -0.360 N 
ATOM     15  H   UNL     1      -4.801  -5.055   0.251  0.00  0.00    +0.165 HD
ATOM     16  C   UNL     1      -2.859  -4.747  -0.459  0.00  0.00    +0.047 A 
ATOM     17  C   UNL     1      -1.702  -4.360   0.241  0.00  0.00    +0.003 A 
ATOM     18  C   UNL     1      -0.494  -4.204  -0.443  0.00  0.00    +0.010 A 
ATOM     19  C   UNL     1      -0.444  -4.425  -1.790  0.00  0.00    +0.001 A 
ATOM     20  C   UNL     1      -1.584  -4.803  -2.486  0.00  0.00    +0.002 A 
ATOM     21  C   UNL     1      -2.784  -4.970  -1.830  0.00  0.00    +0.026 A 
ENDBRANCH  11  12
ENDBRANCH   5  11
ENDBRANCH   1   5
BRANCH   2  22
ATOM     22  C   UNL     1       0.002  -0.004   0.002  0.00  0.00    +0.175 C 
BRANCH  22  23
ATOM     23  N   UNL     1      -0.018   1.461   0.010  0.00  0.00    -0.222 N 
ATOM     24  C   UNL     1      -1.137   2.207   0.019  0.00  0.00    +0.255 C 
ATOM     25  O   UNL     1      -2.274   1.779   0.022  0.00  0.00    -0.270 OA
ATOM     26  C   UNL     1      -0.752   3.634   0.027  0.00  0.00    +0.049 A 
ATOM     27  C   UNL     1      -1.457   4.827   0.040  0.00  0.00    +0.014 A 
ATOM     28  C   UNL     1      -0.771   6.031   0.039  0.00  0.00    +0.001 A 
ATOM     29  C   UNL     1       0.611   6.050   0.026  0.00  0.00    +0.001 A 
ATOM     30  C   UNL     1       1.330   4.864   0.014  0.00  0.00    +0.014 A 
ATOM     31  C   UNL     1       0.657   3.653   0.015  0.00  0.00    +0.049 A 
ATOM     32  C   UNL     1       1.081   2.237   0.004  0.00  0.00    +0.255 C 
ATOM     33  O   UNL     1       2.229   1.841  -0.008  0.00  0.00    -0.270 OA
ENDBRANCH  22  23
BRANCH  22  34
ATOM     34  C   UNL     1      -0.724  -0.517  -1.243  0.00  0.00    +0.067 C 
BRANCH  34  35
ATOM     35  C   UNL     1       0.037  -0.101  -2.476  0.00  0.00    -0.045 A 
ATOM     36  C   UNL     1      -0.251   1.101  -3.093  0.00  0.00    +0.004 A 
ATOM     37  C   UNL     1       0.450   1.485  -4.221  0.00  0.00    +0.000 A 
ATOM     38  C   UNL     1       1.433   0.661  -4.737  0.00  0.00    +0.000 A 
ATOM     39  C   UNL     1       1.717  -0.544  -4.123  0.00  0.00    +0.000 A 
ATOM     40  C   UNL     1       1.019  -0.925  -2.992  0.00  0.00    +0.004 A 
ENDBRANCH  34  35
ENDBRANCH  22  34
ENDBRANCH   2  22
TORSDOF 10
