REMARK  Name = ZINC12932550
REMARK  6 active torsions:
REMARK  status: ('A' for Active; 'I' for Inactive)
REMARK    1  A    between atoms: C_1  and  C_2
REMARK    2  A    between atoms: C_2  and  C_24
REMARK    3  A    between atoms: N_5  and  C_9
REMARK    4  A    between atoms: C_9  and  C_10
REMARK    5  A    between atoms: C_10  and  C_12
REMARK    6  A    between atoms: C_16  and  N_18
REMARK                            x       y       z     vdW  Elec       q    Type
REMARK                         _______ _______ _______ _____ _____    ______ ____
ROOT
ATOM      1  C   UNL     1       0.007   1.505  -0.060  0.00  0.00    +0.047 C 
ATOM      2  C   UNL     1       0.031  -0.025  -0.063  0.00  0.00    +0.135 C 
ATOM      3  C   UNL     1       0.761  -0.549   1.158  0.00  0.00    +0.251 C 
ATOM      4  O   UNL     1       0.459  -0.381   2.320  0.00  0.00    -0.272 OA
ATOM      5  N   UNL     1       1.817  -1.240   0.683  0.00  0.00    -0.216 N 
ATOM      6  C   UNL     1       1.854  -1.226  -0.654  0.00  0.00    +0.310 C 
ATOM      7  O   UNL     1       2.713  -1.780  -1.312  0.00  0.00    -0.252 OA
ATOM      8  N   UNL     1       0.835  -0.529  -1.190  0.00  0.00    -0.281 N 
ATOM      9  H   UNL     1       0.663  -0.387  -2.134  0.00  0.00    +0.152 HD
ENDROOT
BRANCH   2  10
ATOM     10  C   UNL     1      -1.370  -0.576  -0.119  0.00  0.00    -0.012 A 
ATOM     11  C   UNL     1      -2.054  -0.844   1.052  0.00  0.00    +0.010 A 
ATOM     12  C   UNL     1      -3.340  -1.349   1.005  0.00  0.00    +0.050 A 
ATOM     13  C   UNL     1      -3.947  -1.587  -0.217  0.00  0.00    +0.166 A 
ATOM     14  C   UNL     1      -3.259  -1.317  -1.397  0.00  0.00    +0.167 A 
ATOM     15  C   UNL     1      -1.972  -0.806  -1.343  0.00  0.00    +0.055 A 
ATOM     16  O   UNL     1      -4.064  -1.632  -2.453  0.00  0.00    -0.453 OA
ATOM     17  C   UNL     1      -5.095  -2.479  -1.912  0.00  0.00    +0.466 C 
ATOM     18  O   UNL     1      -5.183  -2.071  -0.534  0.00  0.00    -0.453 OA
ENDBRANCH   2  10
BRANCH   5  19
ATOM     19  C   UNL     1       2.801  -1.922   1.527  0.00  0.00    +0.197 C 
BRANCH  19  20
ATOM     20  C   UNL     1       2.350  -3.337   1.782  0.00  0.00    +0.181 C 
ATOM     21  O   UNL     1       1.309  -3.736   1.306  0.00  0.00    -0.290 OA
BRANCH  20  22
ATOM     22  C   UNL     1       3.173  -4.234   2.609  0.00  0.00    +0.021 A 
ATOM     23  C   UNL     1       4.378  -3.778   3.154  0.00  0.00    +0.011 A 
ATOM     24  C   UNL     1       5.144  -4.620   3.933  0.00  0.00    +0.002 A 
ATOM     25  C   UNL     1       4.732  -5.919   4.168  0.00  0.00    +0.023 A 
ATOM     26  C   UNL     1       3.539  -6.384   3.627  0.00  0.00    +0.037 A 
ATOM     27  C   UNL     1       2.757  -5.547   2.847  0.00  0.00    +0.035 A 
BRANCH  26  28
ATOM     28  N   UNL     1       3.127  -7.700   3.869  0.00  0.00    -0.271 N 
ATOM     29  C   UNL     1       3.935  -8.705   4.570  0.00  0.00    +0.114 C 
ATOM     30  C   UNL     1       2.941  -9.816   4.982  0.00  0.00    +0.029 C 
ATOM     31  C   UNL     1       1.830  -9.652   3.919  0.00  0.00    +0.098 C 
ATOM     32  C   UNL     1       1.944  -8.207   3.483  0.00  0.00    +0.220 C 
ATOM     33  O   UNL     1       1.091  -7.596   2.875  0.00  0.00    -0.275 OA
ENDBRANCH  26  28
ENDBRANCH  20  22
ENDBRANCH  19  20
ENDBRANCH   5  19
TORSDOF 5
