REMARK  Name = ZINC67559683
REMARK  6 active torsions:
REMARK  status: ('A' for Active; 'I' for Inactive)
REMARK    1  A    between atoms: C_1  and  C_2
REMARK    2  A    between atoms: C_5  and  C_8
REMARK    3  A    between atoms: C_13  and  C_14
REMARK    4  A    between atoms: C_23  and  C_26
REMARK    5  A    between atoms: C_26  and  C_27
REMARK    6  A    between atoms: C_26  and  C_28
REMARK                            x       y       z     vdW  Elec       q    Type
REMARK                         _______ _______ _______ _____ _____    ______ ____
ROOT
ATOM      1  C   UNL     1       2.017  -4.590   1.598  0.00  0.00    +0.055 C 
ATOM      2  C   UNL     1       3.365  -5.104   1.085  0.00  0.00    +0.013 C 
ATOM      3  C   UNL     1       4.484  -4.604   2.001  0.00  0.00    +0.020 C 
ATOM      4  C   UNL     1       4.265  -5.152   3.415  0.00  0.00    +0.108 C 
ATOM      5  N   UNL     1       2.913  -4.785   3.859  0.00  0.00    -0.297 N 
ATOM      6  C   UNL     1       1.769  -5.137   3.007  0.00  0.00    +0.117 C 
ATOM      7  C   UNL     1       2.721  -4.118   5.062  0.00  0.00    +0.258 A 
ATOM      8  N   UNL     1       3.689  -3.744   5.913  0.00  0.00    -0.178 NA
ATOM      9  C   UNL     1       3.169  -3.140   6.944  0.00  0.00    +0.231 A 
ATOM     10  O   UNL     1       1.839  -3.106   6.789  0.00  0.00    -0.336 OA
ATOM     11  N   UNL     1       1.565  -3.745   5.551  0.00  0.00    -0.040 NA
ENDROOT
BRANCH   1  17
ATOM     12  C   UNL     1       0.061  -4.257  -0.021  0.00  0.00    +0.023 A 
ATOM     13  C   UNL     1      -0.798  -5.097  -0.757  0.00  0.00    +0.143 A 
ATOM     14  N   UNL     1      -0.469  -6.336  -0.503  0.00  0.00    -0.181 NA
ATOM     15  N   UNL     1       0.603  -6.336   0.397  0.00  0.00    -0.281 N 
ATOM     16  H   UNL     1       1.046  -7.122   0.754  0.00  0.00    +0.189 HD
ATOM     17  C   UNL     1       0.918  -5.055   0.677  0.00  0.00    +0.048 A 
BRANCH  12  22
ATOM     18  C   UNL     1      -0.018   1.503   0.010  0.00  0.00    +0.044 C 
ATOM     19  C   UNL     1       0.002  -0.004   0.002  0.00  0.00    -0.050 A 
ATOM     20  C   UNL     1       0.006  -0.687  -1.201  0.00  0.00    +0.004 A 
ATOM     21  C   UNL     1       0.025  -2.067  -1.214  0.00  0.00    +0.009 A 
ATOM     22  C   UNL     1       0.041  -2.772  -0.013  0.00  0.00    -0.015 A 
ATOM     23  C   UNL     1       0.037  -2.080   1.196  0.00  0.00    +0.009 A 
ATOM     24  C   UNL     1       0.023  -0.700   1.197  0.00  0.00    +0.004 A 
ENDBRANCH  12  22
ENDBRANCH   1  17
BRANCH   9  25
ATOM     25  C   UNL     1       3.934  -2.576   8.114  0.00  0.00    +0.072 C 
ATOM     26  C   UNL     1       3.672  -1.072   8.217  0.00  0.00    +0.017 C 
ATOM     27  C   UNL     1       3.476  -3.263   9.402  0.00  0.00    +0.017 C 
ENDBRANCH   9  25
TORSDOF 3
