REMARK  Name = ZINC13739445
REMARK  4 active torsions:
REMARK  status: ('A' for Active; 'I' for Inactive)
REMARK    1  A    between atoms: C_1  and  C_2
REMARK    2  A    between atoms: C_4  and  C_25
REMARK    3  A    between atoms: C_6  and  N_24
REMARK    4  A    between atoms: C_7  and  C_11
REMARK                            x       y       z     vdW  Elec       q    Type
REMARK                         _______ _______ _______ _____ _____    ______ ____
ROOT
ATOM      1  C   UNL     1      -0.018   1.503   0.010  0.00  0.00    +0.065 C 
ATOM      2  C   UNL     1       0.002  -0.004   0.002  0.00  0.00    +0.040 A 
ATOM      3  C   UNL     1       0.006  -0.686  -1.206  0.00  0.00    +0.036 A 
ATOM      4  C   UNL     1       0.024  -2.061  -1.228  0.00  0.00    +0.068 A 
ATOM      5  C   UNL     1       0.040  -2.768   0.000  0.00  0.00    +0.041 A 
ATOM      6  C   UNL     1       0.061  -4.206   0.221  0.00  0.00    +0.054 A 
ATOM      7  C   UNL     1       0.074  -4.668   1.519  0.00  0.00    +0.097 A 
ATOM      8  S   UNL     1       0.058  -3.173   2.489  0.00  0.00    -0.062 S 
ATOM      9  C   UNL     1       0.035  -1.980   1.174  0.00  0.00    +0.112 A 
ATOM     10  N   UNL     1       0.022  -0.665   1.143  0.00  0.00    -0.245 NA
ENDROOT
BRANCH   7  11
ATOM     11  C   UNL     1       0.096  -6.009   1.973  0.00  0.00    +0.258 C 
ATOM     12  O   UNL     1       0.105  -6.924   1.169  0.00  0.00    -0.269 OA
ATOM     13  N   UNL     1       0.106  -6.273   3.294  0.00  0.00    -0.260 N 
ATOM     14  C   UNL     1       0.127  -7.584   3.738  0.00  0.00    +0.166 A 
ATOM     15  N   UNL     1       0.145  -8.692   3.033  0.00  0.00    -0.225 NA
ATOM     16  C   UNL     1       0.165  -9.915   3.605  0.00  0.00    +0.081 A 
ATOM     17  C   UNL     1       0.185 -11.177   2.966  0.00  0.00    +0.044 A 
ATOM     18  C   UNL     1       0.203 -12.334   3.702  0.00  0.00    +0.020 A 
ATOM     19  C   UNL     1       0.203 -12.311   5.090  0.00  0.00    +0.016 A 
ATOM     20  C   UNL     1       0.184 -11.094   5.747  0.00  0.00    +0.018 A 
ATOM     21  C   UNL     1       0.166  -9.931   5.018  0.00  0.00    +0.041 A 
ATOM     22  S   UNL     1       0.145  -8.199   5.416  0.00  0.00    -0.052 S 
ATOM     23 BR   UNL     1       0.229 -13.999   2.805  0.00  0.00    -0.050 Br
ATOM     24  H   UNL     1       0.099  -5.545   3.935  0.00  0.00    +0.157 HD
ENDBRANCH   7  11
BRANCH   4  25
ATOM     25  C   UNL     1       0.028  -2.805  -2.539  0.00  0.00    +0.418 C 
ATOM     26  F   UNL     1       0.010  -1.888  -3.595  0.00  0.00    -0.166 F 
ATOM     27  F   UNL     1       1.180  -3.593  -2.624  0.00  0.00    -0.166 F 
ATOM     28  F   UNL     1      -1.104  -3.624  -2.613  0.00  0.00    -0.166 F 
ENDBRANCH   4  25
BRANCH   6  29
ATOM     29  N   UNL     1       0.068  -5.089  -0.849  0.00  0.00    -0.356 N 
ATOM     30  H   UNL     1       0.058  -4.750  -1.758  0.00  0.00    +0.142 HD
ATOM     31  H   UNL     1       0.082  -6.046  -0.688  0.00  0.00    +0.142 HD
ENDBRANCH   6  29
TORSDOF 3
