REMARK  Name = ZINC65002481
REMARK  11 active torsions:
REMARK  status: ('A' for Active; 'I' for Inactive)
REMARK    1  A    between atoms: C_1  and  C_2
REMARK    2  A    between atoms: C_2  and  C_3
REMARK    3  A    between atoms: C_2  and  O_4
REMARK    4  A    between atoms: O_4  and  C_5
REMARK    5  A    between atoms: C_8  and  C_13
REMARK    6  A    between atoms: C_10  and  O_11
REMARK    7  A    between atoms: O_11  and  C_12
REMARK    8  A    between atoms: C_25  and  C_29
REMARK    9  A    between atoms: C_29  and  C_30
REMARK   10  A    between atoms: C_29  and  C_31
REMARK   11  A    between atoms: C_29  and  C_32
REMARK                            x       y       z     vdW  Elec       q    Type
REMARK                         _______ _______ _______ _____ _____    ______ ____
ROOT
ATOM      1  C   UNL     1       6.263  -0.826  -0.938  0.00  0.00    +0.142 A 
ATOM      2  N   UNL     1       6.903  -0.587   0.247  0.00  0.00    -0.306 N 
ATOM      3  H   UNL     1       6.381  -0.359   1.033  0.00  0.00    +0.170 HD
ATOM      4  C   UNL     1       8.243  -0.664   0.344  0.00  0.00    +0.260 A 
ATOM      5  O   UNL     1       8.800  -0.449   1.407  0.00  0.00    -0.267 OA
ATOM      6  C   UNL     1       9.007  -1.002  -0.821  0.00  0.00    +0.075 A 
ATOM      7  C   UNL     1      10.457  -1.139  -0.946  0.00  0.00    -0.023 A 
ATOM      8  C   UNL     1      10.939  -1.469  -2.163  0.00  0.00    -0.004 A 
ATOM      9  S   UNL     1       9.509  -1.615  -3.200  0.00  0.00    -0.073 S 
ATOM     10  C   UNL     1       8.265  -1.230  -1.994  0.00  0.00    +0.116 A 
ATOM     11  N   UNL     1       6.942  -1.144  -2.021  0.00  0.00    -0.222 NA
ATOM     12  C   UNL     1      12.374  -1.666  -2.547  0.00  0.00    +0.046 C 
ATOM     13  C   UNL     1      13.258  -1.075  -1.440  0.00  0.00    -0.000 C 
ATOM     14  C   UNL     1      12.747  -1.574  -0.085  0.00  0.00    +0.009 C 
ATOM     15  C   UNL     1      11.401  -0.923   0.234  0.00  0.00    +0.037 C 
ENDROOT
BRANCH   1  19
ATOM     16  C   UNL     1       2.026  -0.553  -1.118  0.00  0.00    +0.162 A 
ATOM     17  C   UNL     1       2.687  -0.308   0.078  0.00  0.00    +0.050 A 
ATOM     18  C   UNL     1       4.061  -0.396   0.140  0.00  0.00    +0.015 A 
ATOM     19  C   UNL     1       4.791  -0.732  -1.002  0.00  0.00    +0.021 A 
ATOM     20  C   UNL     1       4.126  -0.979  -2.206  0.00  0.00    +0.061 A 
ATOM     21  C   UNL     1       2.748  -0.894  -2.260  0.00  0.00    +0.162 A 
BRANCH  21  22
ATOM     22  O   UNL     1       2.097  -1.140  -3.428  0.00  0.00    -0.491 OA
ATOM     23  C   UNL     1       2.900  -1.485  -4.558  0.00  0.00    +0.277 C 
ENDBRANCH  21  22
BRANCH  16  24
ATOM     24  O   UNL     1       0.671  -0.465  -1.174  0.00  0.00    -0.486 OA
BRANCH  24  26
ATOM     25  C   UNL     1      -0.049   1.266   0.351  0.00  0.00    +0.051 C 
ATOM     26  C   UNL     1      -0.016  -0.235   0.058  0.00  0.00    +0.167 C 
ATOM     27  C   UNL     1      -1.447  -0.766  -0.049  0.00  0.00    +0.051 C 
ENDBRANCH  24  26
ENDBRANCH  16  24
ENDBRANCH   1  19
BRANCH  13  28
ATOM     28  C   UNL     1      14.706  -1.525  -1.643  0.00  0.00    -0.035 C 
ATOM     29  C   UNL     1      15.204  -1.039  -3.006  0.00  0.00    +0.011 C 
ATOM     30  C   UNL     1      15.584  -0.934  -0.539  0.00  0.00    +0.011 C 
ATOM     31  C   UNL     1      14.777  -3.053  -1.589  0.00  0.00    +0.011 C 
ENDBRANCH  13  28
TORSDOF 5
