REMARK  Name = ZINC21225228
REMARK  4 active torsions:
REMARK  status: ('A' for Active; 'I' for Inactive)
REMARK    1  A    between atoms: C_1  and  C_2
REMARK    2  A    between atoms: C_2  and  C_3
REMARK    3  A    between atoms: C_6  and  C_9
REMARK    4  A    between atoms: C_20  and  C_23
REMARK                            x       y       z     vdW  Elec       q    Type
REMARK                         _______ _______ _______ _____ _____    ______ ____
ROOT
ATOM      1  C   UNL     1      -5.419  -2.005   0.043  0.00  0.00    +0.063 C 
ATOM      2  C   UNL     1      -5.459  -3.357   0.758  0.00  0.00    +0.109 C 
ATOM      3  C   UNL     1      -5.252  -3.140   2.235  0.00  0.00    +0.218 C 
ATOM      4  O   UNL     1      -4.659  -3.969   2.891  0.00  0.00    -0.275 OA
ATOM      5  N   UNL     1      -5.725  -2.029   2.826  0.00  0.00    -0.289 N 
ATOM      6  C   UNL     1      -6.422  -1.087   2.114  0.00  0.00    +0.018 C 
ATOM      7  C   UNL     1      -6.311  -1.027   0.770  0.00  0.00    +0.020 C 
ATOM      8  C   UNL     1      -7.011  -0.066   0.021  0.00  0.00    +0.162 C 
ATOM      9  O   UNL     1      -6.894  -0.049  -1.188  0.00  0.00    -0.292 OA
ATOM     10  C   UNL     1      -7.904   0.943   0.693  0.00  0.00    +0.088 C 
ATOM     11  C   UNL     1      -7.380   1.204   2.109  0.00  0.00    +0.032 C 
ATOM     12  C   UNL     1      -7.316  -0.128   2.860  0.00  0.00    +0.059 C 
ATOM     13  H   UNL     1      -5.554  -1.863   3.901  0.00  0.00    +0.155 HD
ENDROOT
BRANCH  11  14
ATOM     14  C   UNL     1      -8.313   2.145   2.827  0.00  0.00    -0.042 A 
ATOM     15  C   UNL     1      -7.842   3.353   3.308  0.00  0.00    +0.005 A 
ATOM     16  C   UNL     1      -8.696   4.216   3.966  0.00  0.00    +0.022 A 
ATOM     17  C   UNL     1     -10.024   3.872   4.146  0.00  0.00    +0.059 A 
ATOM     18  C   UNL     1     -10.496   2.663   3.665  0.00  0.00    +0.060 A 
ATOM     19  C   UNL     1      -9.641   1.802   3.001  0.00  0.00    +0.025 A 
ATOM     20 CL   UNL     1     -12.162   2.230   3.889  0.00  0.00    -0.082 Cl
ATOM     21 CL   UNL     1     -11.098   4.957   4.974  0.00  0.00    -0.082 Cl
ENDBRANCH  11  14
BRANCH   1  25
ATOM     22  C   UNL     1      -1.412  -0.526   0.013  0.00  0.00    -0.048 A 
ATOM     23  C   UNL     1      -2.047  -0.777   1.215  0.00  0.00    +0.004 A 
ATOM     24  C   UNL     1      -3.345  -1.251   1.224  0.00  0.00    +0.004 A 
ATOM     25  C   UNL     1      -4.005  -1.483   0.032  0.00  0.00    -0.039 A 
ATOM     26  C   UNL     1      -3.369  -1.237  -1.170  0.00  0.00    +0.004 A 
ATOM     27  C   UNL     1      -2.072  -0.758  -1.179  0.00  0.00    +0.004 A 
BRANCH  22  29
ATOM     28  C   UNL     1      -0.019   1.526   0.010  0.00  0.00    +0.009 C 
ATOM     29  C   UNL     1       0.002  -0.004   0.002  0.00  0.00    +0.032 C 
ENDBRANCH  22  29
ENDBRANCH   1  25
TORSDOF 3
