REMARK  Name = ZINC04063347
REMARK  3 active torsions:
REMARK  status: ('A' for Active; 'I' for Inactive)
REMARK    1  A    between atoms: C_1  and  C_2
REMARK    2  A    between atoms: C_5  and  C_8
REMARK    3  A    between atoms: C_13  and  C_18
REMARK                            x       y       z     vdW  Elec       q    Type
REMARK                         _______ _______ _______ _____ _____    ______ ____
ROOT
ATOM      1  C   UNL     1       2.281   0.454   3.588  0.00  0.00    +0.136 C 
ATOM      2  C   UNL     1       1.560   0.856   2.323  0.00  0.00    +0.036 C 
ATOM      3  C   UNL     1       0.242   1.082   2.205  0.00  0.00    +0.017 C 
ATOM      4  C   UNL     1      -0.350   1.507   0.871  0.00  0.00    +0.059 C 
ATOM      5  C   UNL     1       0.439   0.871  -0.273  0.00  0.00    +0.032 C 
ATOM      6  C   UNL     1       1.891   1.349  -0.160  0.00  0.00    +0.088 C 
ATOM      7  C   UNL     1       2.410   0.986   1.199  0.00  0.00    +0.163 C 
ATOM      8  O   UNL     1       3.602   0.798   1.341  0.00  0.00    -0.292 OA
ATOM      9  N   UNL     1      -0.660   0.967   3.213  0.00  0.00    -0.316 N 
ATOM     10  C   UNL     1      -0.492   1.491   4.490  0.00  0.00    +0.052 A 
ATOM     11  C   UNL     1      -1.310   2.488   4.993  0.00  0.00    +0.025 A 
ATOM     12  C   UNL     1      -1.117   2.934   6.289  0.00  0.00    +0.002 A 
ATOM     13  C   UNL     1      -0.119   2.386   7.074  0.00  0.00    +0.002 A 
ATOM     14  C   UNL     1       0.710   1.401   6.567  0.00  0.00    +0.025 A 
ATOM     15  C   UNL     1       0.533   0.967   5.263  0.00  0.00    +0.049 A 
ATOM     16  N   UNL     1       1.409   0.058   4.674  0.00  0.00    -0.331 N 
ATOM     17  H   UNL     1      -1.480   0.483   3.030  0.00  0.00    +0.152 HD
ATOM     18  H   UNL     1       1.436  -0.857   4.997  0.00  0.00    +0.147 HD
ENDROOT
BRANCH   1  23
ATOM     19  C   UNL     1       5.501   4.914   5.359  0.00  0.00    +0.044 C 
ATOM     20  C   UNL     1       4.661   3.751   4.896  0.00  0.00    -0.050 A 
ATOM     21  C   UNL     1       5.268   2.568   4.519  0.00  0.00    +0.004 A 
ATOM     22  C   UNL     1       4.497   1.501   4.095  0.00  0.00    +0.006 A 
ATOM     23  C   UNL     1       3.121   1.617   4.050  0.00  0.00    -0.023 A 
ATOM     24  C   UNL     1       2.515   2.802   4.423  0.00  0.00    +0.006 A 
ATOM     25  C   UNL     1       3.285   3.868   4.850  0.00  0.00    +0.004 A 
ENDBRANCH   1  23
BRANCH   5  26
ATOM     26  C   UNL     1      -0.140   1.304  -1.596  0.00  0.00    -0.043 A 
ATOM     27  C   UNL     1      -0.199   2.647  -1.918  0.00  0.00    +0.005 A 
ATOM     28  C   UNL     1      -0.724   3.043  -3.134  0.00  0.00    +0.020 A 
ATOM     29  C   UNL     1      -1.201   2.097  -4.023  0.00  0.00    +0.041 A 
ATOM     30  C   UNL     1      -1.147   0.753  -3.697  0.00  0.00    +0.020 A 
ATOM     31  C   UNL     1      -0.616   0.357  -2.484  0.00  0.00    +0.005 A 
ATOM     32 CL   UNL     1      -1.867   2.595  -5.547  0.00  0.00    -0.084 Cl
ENDBRANCH   5  26
TORSDOF 2
