REMARK  Name = ZINC37637394
REMARK  6 active torsions:
REMARK  status: ('A' for Active; 'I' for Inactive)
REMARK    1  A    between atoms: C_1  and  C_2
REMARK    2  A    between atoms: C_5  and  N_23
REMARK    3  A    between atoms: C_7  and  C_8
REMARK    4  A    between atoms: C_8  and  C_9
REMARK    5  A    between atoms: C_10  and  C_22
REMARK    6  A    between atoms: C_12  and  C_16
REMARK                            x       y       z     vdW  Elec       q    Type
REMARK                         _______ _______ _______ _____ _____    ______ ____
ROOT
ATOM      1  C   UNL     1      -1.404  -0.012   3.093  0.00  0.00    +0.042 A 
ATOM      2  C   UNL     1      -1.918  -0.902   3.989  0.00  0.00    +0.049 A 
ATOM      3  N   UNL     1      -3.173  -0.774   4.414  0.00  0.00    -0.234 NA
ATOM      4  C   UNL     1      -3.945   0.204   3.989  0.00  0.00    +0.141 A 
ATOM      5  N   UNL     1      -3.488   1.125   3.094  0.00  0.00    -0.307 N 
ATOM      6  C   UNL     1      -2.220   1.042   2.636  0.00  0.00    +0.255 A 
ATOM      7  O   UNL     1      -1.792   1.860   1.839  0.00  0.00    -0.267 OA
ATOM      8  C   UNL     1      -1.064  -2.035   4.498  0.00  0.00    +0.066 C 
ATOM      9  H   UNL     1      -4.070   1.839   2.790  0.00  0.00    +0.170 HD
ENDROOT
BRANCH   4  10
ATOM     10  C   UNL     1      -5.331   0.305   4.489  0.00  0.00    +0.017 A 
ATOM     11  C   UNL     1      -6.165   1.333   4.044  0.00  0.00    +0.011 A 
ATOM     12  C   UNL     1      -7.458   1.421   4.515  0.00  0.00    +0.001 A 
ATOM     13  C   UNL     1      -7.930   0.494   5.428  0.00  0.00    +0.000 A 
ATOM     14  C   UNL     1      -7.109  -0.527   5.874  0.00  0.00    +0.001 A 
ATOM     15  C   UNL     1      -5.816  -0.630   5.406  0.00  0.00    +0.011 A 
ENDBRANCH   4  10
BRANCH   1  16
ATOM     16  C   UNL     1       0.015  -0.148   2.605  0.00  0.00    +0.077 C 
BRANCH  16  23
ATOM     17  C   UNL     1       2.531  -0.856   1.374  0.00  0.00    +0.044 C 
ATOM     18  C   UNL     1       1.234  -1.270   0.729  0.00  0.00    -0.047 A 
ATOM     19  C   UNL     1       1.248  -1.993  -0.450  0.00  0.00    +0.006 A 
ATOM     20  C   UNL     1       0.058  -2.372  -1.042  0.00  0.00    +0.033 A 
ATOM     21  C   UNL     1      -1.146  -2.029  -0.456  0.00  0.00    +0.126 A 
ATOM     22  C   UNL     1      -1.160  -1.307   0.723  0.00  0.00    +0.037 A 
ATOM     23  C   UNL     1       0.030  -0.931   1.317  0.00  0.00    -0.038 A 
BRANCH  21  24
ATOM     24  N   UNL     1      -2.420  -2.434  -1.091  0.00  0.00    +0.056 N 
ATOM     25  O   UNL     1      -2.408  -3.065  -2.122  0.00  0.00    -0.126 OA
ATOM     26  O   UNL     1      -3.473  -2.134  -0.578  0.00  0.00    -0.126 OA
ENDBRANCH  21  24
ENDBRANCH  16  23
ENDBRANCH   1  16
TORSDOF 4
