REMARK  Name = ZINC23588688
REMARK  9 active torsions:
REMARK  status: ('A' for Active; 'I' for Inactive)
REMARK    1  A    between atoms: C_1  and  C_2
REMARK    2  A    between atoms: C_2  and  C_3
REMARK    3  A    between atoms: C_8  and  N_9
REMARK    4  A    between atoms: C_12  and  C_17
REMARK    5  A    between atoms: C_17  and  S_18
REMARK    6  A    between atoms: S_18  and  C_19
REMARK    7  A    between atoms: N_23  and  C_24
REMARK    8  A    between atoms: C_27  and  C_31
REMARK    9  A    between atoms: C_29  and  C_30
REMARK                            x       y       z     vdW  Elec       q    Type
REMARK                         _______ _______ _______ _____ _____    ______ ____
ROOT
ATOM      1  N   UNL     1       4.120   3.700  -8.022  0.00  0.00    -0.283 N 
ATOM      2  C   UNL     1       4.613   3.053  -6.905  0.00  0.00    +0.224 A 
ATOM      3  N   UNL     1       4.491   3.613  -5.704  0.00  0.00    -0.198 NA
ATOM      4  C   UNL     1       4.962   2.995  -4.635  0.00  0.00    +0.146 A 
ATOM      5  N   UNL     1       5.560   1.823  -4.754  0.00  0.00    -0.199 NA
ATOM      6  C   UNL     1       5.681   1.254  -5.952  0.00  0.00    +0.217 A 
ATOM      7  N   UNL     1       5.209   1.872  -7.029  0.00  0.00    -0.181 NA
ATOM      8  N   UNL     1       6.301   0.028  -6.075  0.00  0.00    -0.327 N 
ATOM      9  H   UNL     1       3.542   4.629  -7.910  0.00  0.00    +0.155 HD
ATOM     10  H   UNL     1       6.400  -0.441  -7.065  0.00  0.00    +0.145 HD
ATOM     11  H   UNL     1       6.695  -0.481  -5.183  0.00  0.00    +0.145 HD
ENDROOT
BRANCH   1  17
ATOM     12  C   UNL     1       3.495   3.473 -10.344  0.00  0.00    -0.026 A 
ATOM     13  C   UNL     1       3.731   2.951 -11.600  0.00  0.00    +0.005 A 
ATOM     14  C   UNL     1       4.822   2.130 -11.816  0.00  0.00    +0.000 A 
ATOM     15  C   UNL     1       5.682   1.829 -10.775  0.00  0.00    +0.002 A 
ATOM     16  C   UNL     1       5.455   2.353  -9.518  0.00  0.00    +0.023 A 
ATOM     17  C   UNL     1       4.356   3.173  -9.296  0.00  0.00    +0.037 A 
BRANCH  12  19
ATOM     18  C   UNL     1       2.733   5.830 -10.236  0.00  0.00    +0.009 C 
ATOM     19  C   UNL     1       2.305   4.367 -10.109  0.00  0.00    +0.033 C 
ENDBRANCH  12  19
ENDBRANCH   1  17
BRANCH   4  20
ATOM     20  C   UNL     1       4.822   3.632  -3.276  0.00  0.00    +0.153 C 
BRANCH  20  21
ATOM     21  S   UNL     1       3.263   3.106  -2.521  0.00  0.00    -0.078 S 
BRANCH  21  22
ATOM     22  C   UNL     1       3.356   3.973  -0.990  0.00  0.00    +0.196 A 
ATOM     23  N   UNL     1       4.330   4.761  -0.597  0.00  0.00    -0.122 NA
ATOM     24  N   UNL     1       4.072   5.227   0.572  0.00  0.00    -0.137 NA
ATOM     25  C   UNL     1       2.924   4.775   0.992  0.00  0.00    +0.230 A 
ATOM     26  N   UNL     1       2.427   3.954   0.014  0.00  0.00    -0.277 N 
BRANCH  26  27
ATOM     27  C   UNL     1       1.217   3.246   0.035  0.00  0.00    +0.053 A 
ATOM     28  C   UNL     1       0.010   3.933   0.056  0.00  0.00    +0.027 A 
ATOM     29  C   UNL     1      -1.180   3.233   0.078  0.00  0.00    +0.005 A 
ATOM     30  C   UNL     1      -1.171   1.850   0.073  0.00  0.00    -0.050 A 
ATOM     31  C   UNL     1       0.029   1.164   0.057  0.00  0.00    +0.008 A 
ATOM     32  C   UNL     1       1.223   1.858   0.036  0.00  0.00    -0.026 A 
ATOM     33  C   UNL     1       2.531   1.110   0.013  0.00  0.00    +0.046 C 
ATOM     34  C   UNL     1      -2.472   1.089   0.089  0.00  0.00    +0.044 C 
ENDBRANCH  26  27
ENDBRANCH  21  22
ENDBRANCH  20  21
ENDBRANCH   4  20
TORSDOF 6
