REMARK  Name = ZINC03410571
REMARK  9 active torsions:
REMARK  status: ('A' for Active; 'I' for Inactive)
REMARK    1  A    between atoms: C_1  and  C_2
REMARK    2  A    between atoms: C_2  and  C_4
REMARK    3  A    between atoms: C_2  and  S_16
REMARK    4  A    between atoms: N_6  and  C_7
REMARK    5  A    between atoms: C_10  and  C_13
REMARK    6  A    between atoms: C_13  and  C_15
REMARK    7  A    between atoms: S_16  and  C_17
REMARK    8  A    between atoms: C_20  and  C_28
REMARK    9  A    between atoms: N_21  and  C_22
REMARK                            x       y       z     vdW  Elec       q    Type
REMARK                         _______ _______ _______ _____ _____    ______ ____
ROOT
ATOM      1  C   UNL     1       0.940  -2.857   1.048  0.00  0.00    +0.197 A 
ATOM      2  N   UNL     1       0.930  -4.074   0.551  0.00  0.00    -0.122 NA
ATOM      3  N   UNL     1       1.304  -4.053  -0.678  0.00  0.00    -0.128 NA
ATOM      4  C   UNL     1       1.571  -2.821  -1.046  0.00  0.00    +0.169 A 
ATOM      5  N   UNL     1       1.342  -2.015   0.048  0.00  0.00    -0.270 N 
ENDROOT
BRANCH   4   6
ATOM      6  C   UNL     1       2.029  -2.383  -2.381  0.00  0.00    +0.023 A 
ATOM      7  C   UNL     1       1.923  -1.041  -2.751  0.00  0.00    +0.015 A 
ATOM      8  C   UNL     1       2.351  -0.634  -3.998  0.00  0.00    +0.050 A 
ATOM      9  C   UNL     1       2.888  -1.553  -4.886  0.00  0.00    +0.166 A 
ATOM     10  C   UNL     1       2.997  -2.895  -4.522  0.00  0.00    +0.167 A 
ATOM     11  C   UNL     1       2.574  -3.308  -3.272  0.00  0.00    +0.061 A 
ATOM     12  O   UNL     1       3.551  -3.585  -5.562  0.00  0.00    -0.453 OA
ATOM     13  C   UNL     1       4.156  -2.588  -6.406  0.00  0.00    +0.466 C 
ATOM     14  O   UNL     1       3.374  -1.405  -6.153  0.00  0.00    -0.453 OA
ENDBRANCH   4   6
BRANCH   5  15
ATOM     15  C   UNL     1       1.496  -0.623   0.121  0.00  0.00    +0.051 A 
ATOM     16  C   UNL     1       0.381   0.194   0.244  0.00  0.00    +0.026 A 
ATOM     17  C   UNL     1       0.535   1.565   0.317  0.00  0.00    +0.002 A 
ATOM     18  C   UNL     1       1.800   2.123   0.269  0.00  0.00    +0.000 A 
ATOM     19  C   UNL     1       2.912   1.311   0.147  0.00  0.00    +0.002 A 
ATOM     20  C   UNL     1       2.764  -0.060   0.073  0.00  0.00    +0.026 A 
ENDBRANCH   5  15
BRANCH   1  21
ATOM     21  S   UNL     1       0.510  -2.397   2.693  0.00  0.00    -0.073 S 
BRANCH  21  23
ATOM     22  C   UNL     1      -1.130  -4.581   2.666  0.00  0.00    +0.029 C 
ATOM     23  C   UNL     1       0.103  -4.021   3.379  0.00  0.00    +0.137 C 
BRANCH  23  24
ATOM     24  C   UNL     1      -0.187  -3.887   4.852  0.00  0.00    +0.230 C 
ATOM     25  O   UNL     1      -0.570  -2.828   5.300  0.00  0.00    -0.274 OA
ATOM     26  N   UNL     1      -0.021  -4.945   5.670  0.00  0.00    -0.285 N 
ATOM     27  H   UNL     1       0.353  -5.771   5.325  0.00  0.00    +0.155 HD
BRANCH  26  28
ATOM     28  C   UNL     1      -0.385  -4.852   7.011  0.00  0.00    +0.033 A 
ATOM     29  C   UNL     1      -0.927  -5.957   7.662  0.00  0.00    +0.024 A 
ATOM     30  C   UNL     1      -1.283  -5.872   8.983  0.00  0.00    +0.013 A 
ATOM     31  C   UNL     1      -1.111  -4.667   9.675  0.00  0.00    +0.017 A 
ATOM     32  C   UNL     1      -0.570  -3.556   9.016  0.00  0.00    +0.013 A 
ATOM     33  C   UNL     1      -0.212  -3.652   7.696  0.00  0.00    +0.024 A 
BRANCH  31  34
ATOM     34  C   UNL     1      -1.495  -4.569  11.089  0.00  0.00    +0.160 C 
ATOM     35  O   UNL     1      -1.441  -3.500  11.660  0.00  0.00    -0.292 OA
ATOM     36  C   UNL     1      -1.957  -5.796  11.832  0.00  0.00    +0.091 C 
ENDBRANCH  31  34
ENDBRANCH  26  28
ENDBRANCH  23  24
ENDBRANCH  21  23
ENDBRANCH   1  21
TORSDOF 7
