REMARK  Name = ZINC39668734
REMARK  7 active torsions:
REMARK  status: ('A' for Active; 'I' for Inactive)
REMARK    1  A    between atoms: C_1  and  C_2
REMARK    2  A    between atoms: C_2  and  C_4
REMARK    3  A    between atoms: C_2  and  O_30
REMARK    4  A    between atoms: C_4  and  N_5
REMARK    5  A    between atoms: C_6  and  C_8
REMARK    6  A    between atoms: C_19  and  C_21
REMARK    7  A    between atoms: O_30  and  C_31
REMARK                            x       y       z     vdW  Elec       q    Type
REMARK                         _______ _______ _______ _____ _____    ______ ____
ROOT
ATOM      1  C   UNL     1       1.599  -4.024   2.346  0.00  0.00    +0.100 C 
ATOM      2  C   UNL     1       2.606  -4.460   1.258  0.00  0.00    +0.121 C 
ATOM      3  N   UNL     1       3.884  -4.646   1.985  0.00  0.00    -0.296 N 
ATOM      4  C   UNL     1       3.491  -5.276   3.268  0.00  0.00    +0.115 C 
ATOM      5  C   UNL     1       2.181  -4.565   3.663  0.00  0.00    -0.004 C 
ATOM      6  C   UNL     1       1.213  -5.557   4.301  0.00  0.00    -0.010 C 
ATOM      7  C   UNL     1       1.787  -6.036   5.637  0.00  0.00    -0.082 C 
ATOM      8  N   UNL     1       1.994  -4.884   6.524  0.00  0.00    +0.379 N 
ATOM      9  C   UNL     1       2.996  -3.981   5.945  0.00  0.00    -0.082 C 
ATOM     10  C   UNL     1       2.474  -3.415   4.622  0.00  0.00    -0.010 C 
ATOM     11  C   UNL     1       5.125  -4.317   1.572  0.00  0.00    +0.248 C 
ATOM     12  O   UNL     1       5.278  -3.708   0.530  0.00  0.00    -0.270 OA
ATOM     13  H   UNL     1       1.123  -4.388   6.638  0.00  0.00    -0.086 HD
ATOM     14  H   UNL     1       2.314  -5.208   7.424  0.00  0.00    -0.086 HD
ENDROOT
BRANCH  11  15
ATOM     15  C   UNL     1       6.291  -4.694   2.380  0.00  0.00    +0.052 A 
ATOM     16  C   UNL     1       6.245  -5.758   3.224  0.00  0.00    +0.059 A 
ATOM     17  S   UNL     1       7.762  -5.830   3.935  0.00  0.00    -0.096 S 
ATOM     18  C   UNL     1       8.542  -4.448   3.149  0.00  0.00    +0.020 A 
ATOM     19  C   UNL     1       7.543  -3.939   2.298  0.00  0.00    +0.001 A 
ATOM     20  C   UNL     1       7.872  -2.814   1.518  0.00  0.00    +0.010 A 
ATOM     21  C   UNL     1       9.123  -2.256   1.596  0.00  0.00    +0.001 A 
ATOM     22  C   UNL     1      10.092  -2.779   2.440  0.00  0.00    +0.001 A 
ATOM     23  C   UNL     1       9.794  -3.876   3.225  0.00  0.00    +0.015 A 
ENDBRANCH  11  15
BRANCH   1  25
ATOM     24  N   UNL     1       0.415  -1.937   2.947  0.00  0.00    -0.312 N 
ATOM     25  C   UNL     1       1.497  -2.522   2.395  0.00  0.00    +0.218 C 
ATOM     26  O   UNL     1       2.388  -1.838   1.937  0.00  0.00    -0.275 OA
ATOM     27  H   UNL     1      -0.298  -2.484   3.313  0.00  0.00    +0.149 HD
BRANCH  24  28
ATOM     28  C   UNL     1       0.316  -0.476   2.995  0.00  0.00    +0.148 C 
BRANCH  28  30
ATOM     29  C   UNL     1      -1.161   1.444   3.605  0.00  0.00    +0.053 C 
ATOM     30  C   UNL     1      -0.999  -0.076   3.667  0.00  0.00    +0.187 C 
BRANCH  30  31
ATOM     31  O   UNL     1      -0.984  -0.499   5.032  0.00  0.00    -0.486 OA
BRANCH  31  32
ATOM     32  C   UNL     1      -2.189  -0.705   5.627  0.00  0.00    +0.139 A 
ATOM     33  C   UNL     1      -3.365  -0.611   4.890  0.00  0.00    +0.049 A 
ATOM     34  C   UNL     1      -4.569  -0.829   5.540  0.00  0.00    +0.023 A 
ATOM     35  C   UNL     1      -4.562  -1.131   6.889  0.00  0.00    +0.111 A 
ATOM     36  N   UNL     1      -3.429  -1.213   7.558  0.00  0.00    -0.260 NA
ATOM     37  C   UNL     1      -2.262  -1.018   6.976  0.00  0.00    +0.156 A 
ENDBRANCH  31  32
ENDBRANCH  30  31
ENDBRANCH  28  30
ENDBRANCH  24  28
ENDBRANCH   1  25
TORSDOF 6
