REMARK  Name = ZINC14238091
REMARK  9 active torsions:
REMARK  status: ('A' for Active; 'I' for Inactive)
REMARK    1  A    between atoms: C_3  and  C_21
REMARK    2  A    between atoms: C_4  and  S_7
REMARK    3  A    between atoms: S_7  and  C_8
REMARK    4  A    between atoms: C_8  and  C_9
REMARK    5  A    between atoms: N_11  and  C_12
REMARK    6  A    between atoms: N_23  and  C_24
REMARK    7  A    between atoms: C_24  and  C_25
REMARK    8  A    between atoms: C_25  and  C_27
REMARK    9  A    between atoms: C_25  and  N_61
REMARK                            x       y       z     vdW  Elec       q    Type
REMARK                         _______ _______ _______ _____ _____    ______ ____
ROOT
ATOM      1  C   UNL     1       5.467  -3.037   0.583  0.00  0.00    +0.020 A 
ATOM      2  C   UNL     1       4.422  -3.928   0.757  0.00  0.00    +0.017 A 
ATOM      3  C   UNL     1       3.160  -3.416   1.080  0.00  0.00    +0.068 A 
ATOM      4  C   UNL     1       3.007  -2.025   1.213  0.00  0.00    +0.109 A 
ATOM      5  N   UNL     1       4.042  -1.218   1.030  0.00  0.00    -0.248 NA
ATOM      6  C   UNL     1       5.239  -1.681   0.730  0.00  0.00    +0.112 A 
ENDROOT
BRANCH   3   7
ATOM      7  C   UNL     1       2.013  -4.320   1.278  0.00  0.00    +0.247 C 
ATOM      8  O   UNL     1       0.921  -3.864   1.558  0.00  0.00    -0.270 OA
ATOM      9  N   UNL     1       2.173  -5.652   1.147  0.00  0.00    -0.312 N 
ATOM     10  H   UNL     1       3.044  -6.016   0.923  0.00  0.00    +0.149 HD
BRANCH   9  11
ATOM     11  C   UNL     1       1.033  -6.550   1.343  0.00  0.00    +0.097 C 
BRANCH  11  12
ATOM     12  C   UNL     1       1.482  -7.998   1.139  0.00  0.00    +0.016 C 
BRANCH  12  17
ATOM     13  C   UNL     1       2.301  -7.919   3.430  0.00  0.00    -0.078 C 
ATOM     14  C   UNL     1       3.322  -8.746   4.252  0.00  0.00    -0.020 C 
ATOM     15  C   UNL     1       3.397 -10.077   3.470  0.00  0.00    -0.020 C 
ATOM     16  C   UNL     1       2.915  -9.737   2.048  0.00  0.00    -0.078 C 
ATOM     17  N   UNL     1       2.628  -8.301   2.048  0.00  0.00    +0.387 N 
ATOM     18  H   UNL     1       3.456  -7.783   1.731  0.00  0.00    -0.081 HD
ENDBRANCH  12  17
BRANCH  12  19
ATOM     19  C   UNL     1       0.341  -8.928   1.460  0.00  0.00    +0.093 A 
ATOM     20  C   UNL     1      -0.389  -9.616   0.564  0.00  0.00    +0.043 A 
ATOM     21  C   UNL     1      -1.343 -10.359   1.297  0.00  0.00    +0.041 A 
ATOM     22  C   UNL     1      -1.144 -10.074   2.597  0.00  0.00    +0.195 A 
ATOM     23  O   UNL     1      -0.122  -9.207   2.690  0.00  0.00    -0.469 OA
ENDBRANCH  12  19
ENDBRANCH  11  12
ENDBRANCH   9  11
ENDBRANCH   3   7
BRANCH   4  24
ATOM     24  S   UNL     1       1.431  -1.351   1.618  0.00  0.00    -0.096 S 
BRANCH  24  25
ATOM     25  C   UNL     1       1.841   0.412   1.649  0.00  0.00    +0.171 C 
BRANCH  25  26
ATOM     26  C   UNL     1       0.607   1.209   1.986  0.00  0.00    +0.227 C 
ATOM     27  O   UNL     1      -0.447   0.641   2.184  0.00  0.00    -0.275 OA
ATOM     28  N   UNL     1       0.673   2.553   2.065  0.00  0.00    -0.285 N 
ATOM     29  H   UNL     1       1.528   3.002   1.978  0.00  0.00    +0.155 HD
BRANCH  28  30
ATOM     30  C   UNL     1      -0.494   3.301   2.268  0.00  0.00    +0.037 A 
ATOM     31  C   UNL     1      -1.698   2.868   1.729  0.00  0.00    +0.027 A 
ATOM     32  C   UNL     1      -2.851   3.602   1.933  0.00  0.00    +0.051 A 
ATOM     33  C   UNL     1      -2.807   4.778   2.665  0.00  0.00    +0.166 A 
ATOM     34  C   UNL     1      -1.599   5.217   3.201  0.00  0.00    +0.168 A 
ATOM     35  C   UNL     1      -0.445   4.478   3.002  0.00  0.00    +0.072 A 
ATOM     36  O   UNL     1      -1.819   6.386   3.871  0.00  0.00    -0.453 OA
ATOM     37  C   UNL     1      -3.089   6.869   3.395  0.00  0.00    +0.466 C 
ATOM     38  O   UNL     1      -3.784   5.672   2.999  0.00  0.00    -0.453 OA
ENDBRANCH  28  30
ENDBRANCH  25  26
ENDBRANCH  24  25
ENDBRANCH   4  24
TORSDOF 9
