REMARK  Name = ZINC36597479
REMARK  14 active torsions:
REMARK  status: ('A' for Active; 'I' for Inactive)
REMARK    1  A    between atoms: C_1  and  C_2
REMARK    2  A    between atoms: C_5  and  C_7
REMARK    3  A    between atoms: C_7  and  N_8
REMARK    4  A    between atoms: N_8  and  C_9
REMARK    5  A    between atoms: C_9  and  C_11
REMARK    6  A    between atoms: C_9  and  C_21
REMARK    7  A    between atoms: C_14  and  C_17
REMARK    8  A    between atoms: N_23  and  C_24
REMARK    9  A    between atoms: C_24  and  C_25
REMARK   10  A    between atoms: C_24  and  C_26
REMARK   11  A    between atoms: C_24  and  C_27
REMARK   12  A    between atoms: C_28  and  C_30
REMARK   13  A    between atoms: C_31  and  O_37
REMARK   14  A    between atoms: C_35  and  O_36
REMARK                            x       y       z     vdW  Elec       q    Type
REMARK                         _______ _______ _______ _____ _____    ______ ____
ROOT
ATOM      1  N   UNL     1       1.945  -3.478  -1.238  0.00  0.00    -0.274 N 
ATOM      2  C   UNL     1       0.991  -4.364  -1.584  0.00  0.00    +0.255 C 
ATOM      3  O   UNL     1       1.061  -4.948  -2.649  0.00  0.00    -0.270 OA
ENDROOT
BRANCH   2   4
ATOM      4  C   UNL     1      -0.137  -4.626  -0.674  0.00  0.00    +0.119 A 
ATOM      5  C   UNL     1      -1.312  -3.868  -0.769  0.00  0.00    +0.133 A 
ATOM      6  C   UNL     1      -2.367  -4.123   0.092  0.00  0.00    +0.046 A 
ATOM      7  C   UNL     1      -2.264  -5.122   1.043  0.00  0.00    +0.007 A 
ATOM      8  C   UNL     1      -1.109  -5.875   1.146  0.00  0.00    +0.046 A 
ATOM      9  C   UNL     1      -0.044  -5.640   0.291  0.00  0.00    +0.133 A 
BRANCH   9  10
ATOM     10  O   UNL     1       1.085  -6.385   0.390  0.00  0.00    -0.506 OA
ATOM     11  H   UNL     1       1.745  -6.020   0.997  0.00  0.00    +0.292 HD
ENDBRANCH   9  10
BRANCH   5  12
ATOM     12  O   UNL     1      -1.417  -2.888  -1.701  0.00  0.00    -0.506 OA
ATOM     13  H   UNL     1      -1.776  -3.186  -2.548  0.00  0.00    +0.292 HD
ENDBRANCH   5  12
ENDBRANCH   2   4
BRANCH   1  14
ATOM     14  C   UNL     1       1.922  -2.860   0.091  0.00  0.00    +0.183 C 
BRANCH  14  19
ATOM     15  C   UNL     1       0.719   2.010  -0.439  0.00  0.00    +0.086 C 
ATOM     16  C   UNL     1       0.591   0.529  -0.191  0.00  0.00    +0.102 A 
ATOM     17  C   UNL     1      -0.546  -0.123   0.111  0.00  0.00    +0.045 A 
ATOM     18  C   UNL     1      -0.208  -1.488   0.260  0.00  0.00    +0.046 A 
ATOM     19  C   UNL     1       1.115  -1.588   0.040  0.00  0.00    +0.122 A 
ATOM     20  O   UNL     1       1.593  -0.365  -0.238  0.00  0.00    -0.463 OA
ENDBRANCH  14  19
ENDBRANCH   1  14
BRANCH   1  21
ATOM     21  C   UNL     1       3.004  -3.132  -2.188  0.00  0.00    +0.193 C 
BRANCH  21  22
ATOM     22  C   UNL     1       2.386  -2.665  -3.481  0.00  0.00    -0.018 A 
ATOM     23  C   UNL     1       2.158  -3.566  -4.504  0.00  0.00    +0.006 A 
ATOM     24  C   UNL     1       1.591  -3.137  -5.689  0.00  0.00    +0.013 A 
ATOM     25  C   UNL     1       1.252  -1.807  -5.852  0.00  0.00    +0.055 A 
ATOM     26  C   UNL     1       1.479  -0.906  -4.829  0.00  0.00    +0.013 A 
ATOM     27  C   UNL     1       2.042  -1.335  -3.642  0.00  0.00    +0.006 A 
BRANCH  25  28
ATOM     28  C   UNL     1       0.634  -1.339  -7.145  0.00  0.00    +0.417 C 
ATOM     29  F   UNL     1      -0.758  -1.442  -7.061  0.00  0.00    -0.166 F 
ATOM     30  F   UNL     1       0.991  -0.006  -7.376  0.00  0.00    -0.166 F 
ATOM     31  F   UNL     1       1.098  -2.135  -8.198  0.00  0.00    -0.166 F 
ENDBRANCH  25  28
ENDBRANCH  21  22
BRANCH  21  32
ATOM     32  C   UNL     1       3.859  -4.345  -2.450  0.00  0.00    +0.239 C 
ATOM     33  O   UNL     1       3.608  -5.395  -1.897  0.00  0.00    -0.273 OA
ATOM     34  N   UNL     1       4.903  -4.263  -3.300  0.00  0.00    -0.309 N 
ATOM     35  H   UNL     1       5.103  -3.424  -3.742  0.00  0.00    +0.149 HD
BRANCH  34  36
ATOM     36  C   UNL     1       5.734  -5.442  -3.554  0.00  0.00    +0.026 C 
ATOM     37  C   UNL     1       4.868  -6.560  -4.139  0.00  0.00    +0.031 C 
ATOM     38  C   UNL     1       6.840  -5.082  -4.548  0.00  0.00    +0.031 C 
ATOM     39  C   UNL     1       6.362  -5.917  -2.242  0.00  0.00    +0.031 C 
ENDBRANCH  34  36
ENDBRANCH  21  32
ENDBRANCH   1  21
TORSDOF 10
