REMARK  Name = ZINC16933581
REMARK  10 active torsions:
REMARK  status: ('A' for Active; 'I' for Inactive)
REMARK    1  A    between atoms: C_1  and  C_2
REMARK    2  A    between atoms: C_2  and  C_3
REMARK    3  A    between atoms: C_3  and  O_4
REMARK    4  A    between atoms: O_4  and  C_5
REMARK    5  A    between atoms: C_10  and  C_11
REMARK    6  A    between atoms: N_15  and  C_27
REMARK    7  A    between atoms: N_17  and  C_18
REMARK    8  A    between atoms: C_21  and  C_25
REMARK    9  A    between atoms: C_23  and  O_24
REMARK   10  A    between atoms: C_27  and  C_28
REMARK                            x       y       z     vdW  Elec       q    Type
REMARK                         _______ _______ _______ _____ _____    ______ ____
ROOT
ATOM      1  C   UNL     1       5.657   3.412   0.406  0.00  0.00    +0.032 C 
ATOM      2  C   UNL     1       4.351   3.143   0.148  0.00  0.00    +0.078 C 
ATOM      3  C   UNL     1       3.201   4.065   0.087  0.00  0.00    +0.259 C 
ATOM      4  O   UNL     1       3.332   5.259   0.280  0.00  0.00    -0.269 OA
ATOM      5  N   UNL     1       2.021   3.534  -0.186  0.00  0.00    -0.246 N 
ATOM      6  C   UNL     1       1.894   2.178  -0.402  0.00  0.00    +0.169 C 
ATOM      7  N   UNL     1       0.808   1.494  -0.681  0.00  0.00    -0.222 NA
ATOM      8  S   UNL     1       3.563   1.578  -0.201  0.00  0.00    -0.049 S 
ENDROOT
BRANCH   7   9
ATOM      9  C   UNL     1       0.874   0.134  -0.826  0.00  0.00    +0.108 A 
ATOM     10  C   UNL     1       1.801  -0.434  -1.701  0.00  0.00    +0.032 A 
ATOM     11  C   UNL     1       1.866  -1.806  -1.839  0.00  0.00    +0.005 A 
ATOM     12  C   UNL     1       1.008  -2.620  -1.120  0.00  0.00    -0.047 A 
ATOM     13  C   UNL     1       0.081  -2.067  -0.254  0.00  0.00    +0.051 A 
ATOM     14  C   UNL     1       0.007  -0.694  -0.101  0.00  0.00    +0.142 A 
ATOM     15  C   UNL     1       1.084  -4.116  -1.282  0.00  0.00    +0.044 C 
BRANCH  14  16
ATOM     16  O   UNL     1      -0.903  -0.151   0.751  0.00  0.00    -0.505 OA
ATOM     17  H   UNL     1      -1.755   0.048   0.341  0.00  0.00    +0.292 HD
ENDBRANCH  14  16
ENDBRANCH   7   9
BRANCH   1  23
ATOM     18  C   UNL     1       7.927   2.487   0.845  0.00  0.00    +0.128 A 
ATOM     19  C   UNL     1       8.875   1.491   0.673  0.00  0.00    +0.046 A 
ATOM     20  C   UNL     1       8.584   0.382  -0.098  0.00  0.00    +0.004 A 
ATOM     21  C   UNL     1       7.345   0.255  -0.705  0.00  0.00    +0.001 A 
ATOM     22  C   UNL     1       6.387   1.232  -0.542  0.00  0.00    +0.011 A 
ATOM     23  C   UNL     1       6.670   2.364   0.232  0.00  0.00    +0.018 A 
BRANCH  18  24
ATOM     24  O   UNL     1       8.213   3.576   1.603  0.00  0.00    -0.491 OA
BRANCH  24  25
ATOM     25  C   UNL     1       9.512   3.632   2.195  0.00  0.00    +0.229 C 
BRANCH  25  27
ATOM     26  C   UNL     1      11.038   4.983   3.640  0.00  0.00    +0.007 C 
ATOM     27  C   UNL     1       9.647   4.923   3.006  0.00  0.00    +0.038 C 
ENDBRANCH  25  27
ENDBRANCH  24  25
ENDBRANCH  18  24
ENDBRANCH   1  23
BRANCH   5  28
ATOM     28  C   UNL     1       0.838   4.395  -0.262  0.00  0.00    +0.112 C 
ATOM     29  C   UNL     1       0.190   4.493   1.120  0.00  0.00    +0.025 C 
ENDBRANCH   5  28
TORSDOF 7
