REMARK  Name = ZINC59423215
REMARK  16 active torsions:
REMARK  status: ('A' for Active; 'I' for Inactive)
REMARK    1  A    between atoms: C_1  and  C_2
REMARK    2  A    between atoms: C_2  and  O_3
REMARK    3  A    between atoms: O_3  and  C_4
REMARK    4  A    between atoms: C_4  and  C_6
REMARK    5  A    between atoms: C_7  and  C_32
REMARK    6  A    between atoms: C_8  and  C_28
REMARK    7  A    between atoms: C_10  and  N_11
REMARK    8  A    between atoms: C_12  and  C_14
REMARK    9  A    between atoms: C_14  and  N_15
REMARK   10  A    between atoms: N_15  and  C_16
REMARK   11  A    between atoms: N_15  and  C_19
REMARK   12  A    between atoms: C_16  and  C_17
REMARK   13  A    between atoms: C_19  and  C_20
REMARK   14  A    between atoms: C_23  and  O_26
REMARK   15  A    between atoms: O_26  and  C_27
REMARK   16  A    between atoms: N_30  and  C_31
REMARK                            x       y       z     vdW  Elec       q    Type
REMARK                         _______ _______ _______ _____ _____    ______ ____
ROOT
ATOM      1  N   UNL     1       3.969  -2.412   2.046  0.00  0.00    -0.281 N 
ATOM      2  C   UNL     1       5.262  -2.789   1.987  0.00  0.00    +0.201 C 
ATOM      3  O   UNL     1       5.739  -3.459   2.877  0.00  0.00    -0.278 OA
ATOM      4  H   UNL     1       3.587  -1.876   1.334  0.00  0.00    +0.155 HD
ENDROOT
BRANCH   1   9
ATOM      5  C   UNL     1       1.844  -2.494   3.354  0.00  0.00    +0.091 A 
ATOM      6  C   UNL     1       1.268  -2.993   4.515  0.00  0.00    -0.015 A 
ATOM      7  C   UNL     1       2.085  -3.728   5.330  0.00  0.00    +0.079 A 
ATOM      8  S   UNL     1       3.637  -3.704   4.457  0.00  0.00    -0.068 S 
ATOM      9  C   UNL     1       3.189  -2.788   3.122  0.00  0.00    +0.087 A 
ATOM     10  C   UNL     1      -0.178  -2.739   4.857  0.00  0.00    +0.046 C 
BRANCH   7  11
ATOM     11  C   UNL     1       1.763  -4.374   6.605  0.00  0.00    +0.251 C 
ATOM     12  O   UNL     1       0.639  -4.288   7.064  0.00  0.00    -0.270 OA
ATOM     13  N   UNL     1       2.712  -5.062   7.270  0.00  0.00    -0.314 N 
ATOM     14  C   UNL     1       2.391  -5.707   8.545  0.00  0.00    +0.128 C 
ATOM     15  H   UNL     1       3.608  -5.130   6.905  0.00  0.00    +0.149 HD
ENDBRANCH   7  11
BRANCH   5  16
ATOM     16  C   UNL     1       1.066  -1.692   2.403  0.00  0.00    +0.342 C 
ATOM     17  O   UNL     1       0.464  -2.237   1.498  0.00  0.00    -0.245 OA
BRANCH  16  18
ATOM     18  O   UNL     1       1.018  -0.351   2.533  0.00  0.00    -0.461 OA
BRANCH  18  20
ATOM     19  C   UNL     1       0.306   1.864   1.879  0.00  0.00    +0.048 C 
ATOM     20  C   UNL     1       0.241   0.366   1.572  0.00  0.00    +0.229 C 
ENDBRANCH  18  20
ENDBRANCH  16  18
ENDBRANCH   5  16
ENDBRANCH   1   9
BRANCH   2  21
ATOM     21  C   UNL     1       6.114  -2.378   0.813  0.00  0.00    +0.020 C 
BRANCH  21  22
ATOM     22  N   UNL     1       7.472  -2.911   0.984  0.00  0.00    +0.390 N 
ATOM     23  H   UNL     1       7.841  -2.611   1.874  0.00  0.00    -0.080 HD
BRANCH  22  24
ATOM     24  C   UNL     1       7.432  -4.378   0.940  0.00  0.00    -0.051 C 
BRANCH  24  25
ATOM     25  C   UNL     1       8.797  -4.928   1.266  0.00  0.00    -0.053 C 
ATOM     26  C   UNL     1       8.942  -5.781   2.250  0.00  0.00    +0.002 C 
ENDBRANCH  24  25
ENDBRANCH  22  24
BRANCH  22  27
ATOM     27  C   UNL     1       8.333  -2.412  -0.097  0.00  0.00    -0.042 C 
BRANCH  27  28
ATOM     28  C   UNL     1       8.486  -0.918   0.032  0.00  0.00    -0.064 A 
ATOM     29  C   UNL     1       7.665  -0.075  -0.695  0.00  0.00    +0.005 A 
ATOM     30  C   UNL     1       7.803   1.294  -0.579  0.00  0.00    +0.046 A 
ATOM     31  C   UNL     1       8.767   1.824   0.267  0.00  0.00    +0.120 A 
ATOM     32  C   UNL     1       9.589   0.976   0.995  0.00  0.00    +0.046 A 
ATOM     33  C   UNL     1       9.443  -0.393   0.879  0.00  0.00    +0.005 A 
BRANCH  31  34
ATOM     34  O   UNL     1       8.905   3.171   0.382  0.00  0.00    -0.495 OA
ATOM     35  C   UNL     1       9.918   3.645   1.271  0.00  0.00    +0.277 C 
ENDBRANCH  31  34
ENDBRANCH  27  28
ENDBRANCH  22  27
ENDBRANCH  21  22
ENDBRANCH   2  21
TORSDOF 12
