REMARK  Name = ZINC00648997
REMARK  13 active torsions:
REMARK  status: ('A' for Active; 'I' for Inactive)
REMARK    1  A    between atoms: C_1  and  C_2
REMARK    2  A    between atoms: C_2  and  O_3
REMARK    3  A    between atoms: O_3  and  C_4
REMARK    4  A    between atoms: C_4  and  C_6
REMARK    5  A    between atoms: C_7  and  C_38
REMARK    6  A    between atoms: C_11  and  C_13
REMARK    7  A    between atoms: C_18  and  O_19
REMARK    8  A    between atoms: O_19  and  C_20
REMARK    9  A    between atoms: C_25  and  C_28
REMARK   10  A    between atoms: C_31  and  O_36
REMARK   11  A    between atoms: C_32  and  O_34
REMARK   12  A    between atoms: O_34  and  C_35
REMARK   13  A    between atoms: O_36  and  C_37
REMARK                            x       y       z     vdW  Elec       q    Type
REMARK                         _______ _______ _______ _____ _____    ______ ____
ROOT
ATOM      1  C   UNL     1       1.667  -2.384   2.318  0.00  0.00    +0.065 C 
ATOM      2  C   UNL     1       1.490  -3.684   2.609  0.00  0.00    +0.016 C 
ATOM      3  N   UNL     1       1.944  -4.196   3.793  0.00  0.00    -0.321 N 
ATOM      4  C   UNL     1       2.905  -3.540   4.514  0.00  0.00    +0.016 C 
ATOM      5  C   UNL     1       3.141  -2.227   4.306  0.00  0.00    +0.024 C 
ATOM      6  C   UNL     1       2.357  -1.458   3.276  0.00  0.00    +0.096 C 
ATOM      7  C   UNL     1       4.123  -1.541   5.042  0.00  0.00    +0.162 C 
ATOM      8  O   UNL     1       4.321  -0.363   4.818  0.00  0.00    -0.292 OA
ATOM      9  C   UNL     1       4.932  -2.239   6.101  0.00  0.00    +0.088 C 
ATOM     10  C   UNL     1       4.105  -3.389   6.683  0.00  0.00    +0.032 C 
ATOM     11  C   UNL     1       3.693  -4.318   5.538  0.00  0.00    +0.059 C 
ATOM     12  C   UNL     1       0.789  -4.584   1.624  0.00  0.00    +0.061 C 
ATOM     13  H   UNL     1       1.580  -5.032   4.126  0.00  0.00    +0.152 HD
ENDROOT
BRANCH   6  14
ATOM     14  C   UNL     1       1.325  -0.612   3.977  0.00  0.00    +0.007 A 
ATOM     15  C   UNL     1       0.344  -1.212   4.742  0.00  0.00    +0.023 A 
ATOM     16  C   UNL     1      -0.603  -0.436   5.386  0.00  0.00    +0.018 A 
ATOM     17  C   UNL     1      -0.570   0.942   5.265  0.00  0.00    +0.019 A 
ATOM     18  C   UNL     1       0.410   1.546   4.501  0.00  0.00    +0.047 A 
ATOM     19  C   UNL     1       1.364   0.770   3.859  0.00  0.00    +0.124 A 
ATOM     20 BR   UNL     1      -1.946  -1.259   6.432  0.00  0.00    -0.050 Br
BRANCH  19  21
ATOM     21  O   UNL     1       2.332   1.362   3.110  0.00  0.00    -0.495 OA
ATOM     22  C   UNL     1       2.310   2.789   3.033  0.00  0.00    +0.277 C 
ENDBRANCH  19  21
ENDBRANCH   6  14
BRANCH  10  23
ATOM     23  C   UNL     1       4.933  -4.151   7.686  0.00  0.00    -0.040 A 
ATOM     24  C   UNL     1       6.115  -4.751   7.291  0.00  0.00    +0.008 A 
ATOM     25  C   UNL     1       6.878  -5.451   8.207  0.00  0.00    +0.049 A 
ATOM     26  C   UNL     1       6.459  -5.552   9.524  0.00  0.00    +0.161 A 
ATOM     27  C   UNL     1       5.270  -4.948   9.921  0.00  0.00    +0.162 A 
ATOM     28  C   UNL     1       4.512  -4.244   8.999  0.00  0.00    +0.053 A 
BRANCH  27  29
ATOM     29  O   UNL     1       4.855  -5.044  11.213  0.00  0.00    -0.491 OA
ATOM     30  C   UNL     1       3.625  -4.399  11.549  0.00  0.00    +0.277 C 
ENDBRANCH  27  29
BRANCH  26  31
ATOM     31  O   UNL     1       7.208  -6.241  10.427  0.00  0.00    -0.491 OA
ATOM     32  C   UNL     1       8.416  -6.835   9.948  0.00  0.00    +0.277 C 
ENDBRANCH  26  31
ENDBRANCH  10  23
BRANCH   1  33
ATOM     33  C   UNL     1       1.197  -1.880   1.083  0.00  0.00    +0.338 C 
ATOM     34  O   UNL     1       0.751  -2.642   0.245  0.00  0.00    -0.245 OA
BRANCH  33  35
ATOM     35  O   UNL     1       1.244  -0.555   0.833  0.00  0.00    -0.462 OA
BRANCH  35  37
ATOM     36  C   UNL     1       0.886   1.405  -0.535  0.00  0.00    +0.048 C 
ATOM     37  C   UNL     1       0.752  -0.116  -0.435  0.00  0.00    +0.229 C 
ENDBRANCH  35  37
ENDBRANCH  33  35
ENDBRANCH   1  33
TORSDOF 8
