REMARK  Name = ZINC14552032
REMARK  8 active torsions:
REMARK  status: ('A' for Active; 'I' for Inactive)
REMARK    1  A    between atoms: C_1  and  C_2
REMARK    2  A    between atoms: C_6  and  C_36
REMARK    3  A    between atoms: C_7  and  N_8
REMARK    4  A    between atoms: N_8  and  S_9
REMARK    5  A    between atoms: S_9  and  C_12
REMARK    6  A    between atoms: C_25  and  C_28
REMARK    7  A    between atoms: C_31  and  S_34
REMARK    8  A    between atoms: S_34  and  C_35
REMARK                            x       y       z     vdW  Elec       q    Type
REMARK                         _______ _______ _______ _____ _____    ______ ____
ROOT
ATOM      1  C   UNL     1      -7.024   0.923  -1.235  0.00  0.00    +0.109 A 
ATOM      2  C   UNL     1      -6.740   1.798  -2.268  0.00  0.00    +0.030 A 
ATOM      3  C   UNL     1      -5.533   2.467  -2.286  0.00  0.00    +0.025 A 
ATOM      4  C   UNL     1      -4.608   2.260  -1.270  0.00  0.00    +0.031 A 
ATOM      5  C   UNL     1      -4.889   1.385  -0.231  0.00  0.00    -0.018 A 
ATOM      6  C   UNL     1      -6.107   0.718  -0.225  0.00  0.00    +0.034 A 
ATOM      7  C   UNL     1      -3.927   1.133   0.886  0.00  0.00    +0.049 C 
ATOM      8  C   UNL     1      -3.257  -0.213   0.742  0.00  0.00    -0.023 C 
ATOM      9  C   UNL     1      -2.010  -0.144   1.141  0.00  0.00    -0.030 C 
ATOM     10  C   UNL     1      -1.680   1.259   1.612  0.00  0.00    +0.033 C 
ATOM     11  C   UNL     1      -2.759   2.138   0.913  0.00  0.00    +0.029 C 
ATOM     12  C   UNL     1      -2.272   2.411  -0.513  0.00  0.00    +0.105 C 
ATOM     13  N   UNL     1      -3.388   2.942  -1.303  0.00  0.00    -0.336 N 
ATOM     14  H   UNL     1      -3.282   3.747  -1.835  0.00  0.00    +0.147 HD
ENDROOT
BRANCH  12  15
ATOM     15  C   UNL     1      -1.153   3.420  -0.479  0.00  0.00    -0.027 A 
ATOM     16  C   UNL     1       0.160   2.997  -0.582  0.00  0.00    +0.006 A 
ATOM     17  C   UNL     1       1.188   3.919  -0.557  0.00  0.00    +0.015 A 
ATOM     18  C   UNL     1       0.903   5.272  -0.423  0.00  0.00    +0.008 A 
ATOM     19  C   UNL     1      -0.417   5.693  -0.314  0.00  0.00    +0.015 A 
ATOM     20  C   UNL     1      -1.440   4.765  -0.340  0.00  0.00    +0.006 A 
BRANCH  18  21
ATOM     21  S   UNL     1       2.211   6.452  -0.391  0.00  0.00    -0.129 S 
ATOM     22  C   UNL     1       1.362   8.044  -0.205  0.00  0.00    +0.090 C 
ENDBRANCH  18  21
ENDBRANCH  12  15
BRANCH   1  23
ATOM     23  S   UNL     1      -8.563   0.066  -1.210  0.00  0.00    +0.072 S 
ATOM     24  O   UNL     1      -9.082   0.123  -2.532  0.00  0.00    -0.150 OA
ATOM     25  O   UNL     1      -8.333  -1.163  -0.535  0.00  0.00    -0.150 OA
BRANCH  23  26
ATOM     26  N   UNL     1      -9.596   0.943  -0.258  0.00  0.00    -0.216 N 
ATOM     27  H   UNL     1      -9.914   0.574   0.581  0.00  0.00    +0.174 HD
BRANCH  26  34
ATOM     28  C   UNL     1      -8.431   3.203   1.018  0.00  0.00    +0.046 C 
ATOM     29  C   UNL     1      -9.467   3.345  -0.066  0.00  0.00    -0.028 A 
ATOM     30  C   UNL     1      -9.874   4.601  -0.472  0.00  0.00    +0.005 A 
ATOM     31  C   UNL     1     -10.829   4.733  -1.463  0.00  0.00    +0.001 A 
ATOM     32  C   UNL     1     -11.376   3.609  -2.055  0.00  0.00    +0.005 A 
ATOM     33  C   UNL     1     -10.969   2.350  -1.658  0.00  0.00    -0.028 A 
ATOM     34  C   UNL     1     -10.010   2.214  -0.662  0.00  0.00    +0.054 A 
ATOM     35  C   UNL     1     -11.565   1.126  -2.304  0.00  0.00    +0.046 C 
ENDBRANCH  26  34
ENDBRANCH  23  26
ENDBRANCH   1  23
TORSDOF 5
