REMARK  Name = ZINC09455867
REMARK  14 active torsions:
REMARK  status: ('A' for Active; 'I' for Inactive)
REMARK    1  A    between atoms: C_1  and  C_2
REMARK    2  A    between atoms: C_4  and  C_35
REMARK    3  A    between atoms: C_5  and  C_34
REMARK    4  A    between atoms: C_6  and  S_9
REMARK    5  A    between atoms: C_7  and  C_8
REMARK    6  A    between atoms: S_9  and  N_12
REMARK    7  A    between atoms: C_15  and  C_18
REMARK    8  A    between atoms: N_20  and  C_21
REMARK    9  A    between atoms: C_21  and  C_22
REMARK   10  A    between atoms: C_22  and  C_23
REMARK   11  A    between atoms: C_22  and  C_24
REMARK   12  A    between atoms: C_22  and  N_77
REMARK   13  A    between atoms: C_26  and  C_33
REMARK   14  A    between atoms: C_29  and  C_32
REMARK                            x       y       z     vdW  Elec       q    Type
REMARK                         _______ _______ _______ _____ _____    ______ ____
ROOT
ATOM      1  N   UNL     1      -4.219   3.124   2.267  0.00  0.00    -0.177 NA
ATOM      2  C   UNL     1      -4.909   2.365   1.216  0.00  0.00    +0.110 C 
ATOM      3  C   UNL     1      -4.012   1.203   0.776  0.00  0.00    +0.030 C 
ATOM      4  C   UNL     1      -2.644   1.750   0.362  0.00  0.00    +0.077 C 
ATOM      5  C   UNL     1      -1.986   2.443   1.557  0.00  0.00    +0.030 C 
ATOM      6  C   UNL     1      -2.860   3.618   2.005  0.00  0.00    +0.110 C 
ENDROOT
BRANCH   4   7
ATOM      7  C   UNL     1      -1.770   0.614  -0.103  0.00  0.00    +0.216 C 
ATOM      8  O   UNL     1      -2.198  -0.521  -0.103  0.00  0.00    -0.276 OA
ATOM      9  N   UNL     1      -0.513   0.859  -0.525  0.00  0.00    -0.316 N 
ATOM     10  H   UNL     1      -0.171   1.766  -0.526  0.00  0.00    +0.149 HD
BRANCH   9  11
ATOM     11  C   UNL     1       0.334  -0.245  -0.983  0.00  0.00    +0.092 C 
BRANCH  11  12
ATOM     12  C   UNL     1       1.659   0.314  -1.508  0.00  0.00    -0.055 C 
ATOM     13  C   UNL     1       2.324   1.157  -0.419  0.00  0.00    -0.008 C 
ATOM     14  C   UNL     1       2.583  -0.844  -1.893  0.00  0.00    -0.008 C 
BRANCH  12  22
ATOM     15  C   UNL     1       0.656   0.405  -3.711  0.00  0.00    -0.046 C 
ATOM     16  C   UNL     1       0.361   1.330  -4.895  0.00  0.00    +0.099 C 
ATOM     17  O   UNL     1       1.591   1.857  -5.400  0.00  0.00    -0.378 OA
ATOM     18  C   UNL     1       2.345   2.589  -4.430  0.00  0.00    +0.099 C 
ATOM     19  C   UNL     1       2.660   1.677  -3.241  0.00  0.00    -0.046 C 
ATOM     20  C   UNL     1       3.651   3.078  -5.059  0.00  0.00    +0.036 C 
ATOM     21  C   UNL     1      -0.347   0.541  -5.997  0.00  0.00    +0.036 C 
ATOM     22  N   UNL     1       1.389   1.172  -2.682  0.00  0.00    +0.387 N 
ATOM     23  H   UNL     1       0.813   1.970  -2.386  0.00  0.00    -0.081 HD
ENDBRANCH  12  22
ENDBRANCH  11  12
ENDBRANCH   9  11
ENDBRANCH   4   7
BRANCH   1  24
ATOM     24  S   UNL     1      -4.958   3.418   3.719  0.00  0.00    +0.061 S 
ATOM     25  O   UNL     1      -4.342   4.578   4.261  0.00  0.00    -0.153 OA
ATOM     26  O   UNL     1      -6.358   3.337   3.486  0.00  0.00    -0.153 OA
BRANCH  24  32
ATOM     27  C   UNL     1      -2.085   1.325   7.552  0.00  0.00    +0.044 C 
ATOM     28  C   UNL     1      -3.202   1.173   6.551  0.00  0.00    -0.045 A 
ATOM     29  C   UNL     1      -3.905  -0.015   6.476  0.00  0.00    +0.007 A 
ATOM     30  C   UNL     1      -4.929  -0.154   5.558  0.00  0.00    -0.045 A 
ATOM     31  C   UNL     1      -5.251   0.894   4.716  0.00  0.00    -0.021 A 
ATOM     32  C   UNL     1      -4.548   2.082   4.793  0.00  0.00    +0.112 A 
ATOM     33  C   UNL     1      -3.521   2.220   5.707  0.00  0.00    -0.021 A 
ATOM     34  C   UNL     1      -2.751   3.513   5.785  0.00  0.00    +0.046 C 
ATOM     35  C   UNL     1      -6.367   0.742   3.716  0.00  0.00    +0.046 C 
ATOM     36  C   UNL     1      -5.696  -1.449   5.476  0.00  0.00    +0.044 C 
ENDBRANCH  24  32
ENDBRANCH   1  24
TORSDOF 6
