REMARK  Name = ZINC02625822
REMARK  7 active torsions:
REMARK  status: ('A' for Active; 'I' for Inactive)
REMARK    1  A    between atoms: C_3  and  S_26
REMARK    2  A    between atoms: C_6  and  N_7
REMARK    3  A    between atoms: C_8  and  C_10
REMARK    4  A    between atoms: C_10  and  S_11
REMARK    5  A    between atoms: S_11  and  C_12
REMARK    6  A    between atoms: C_15  and  C_18
REMARK    7  A    between atoms: S_26  and  N_29
REMARK                            x       y       z     vdW  Elec       q    Type
REMARK                         _______ _______ _______ _____ _____    ______ ____
ROOT
ATOM      1  N   UNL     1      -5.940   3.727   0.046  0.00  0.00    -0.285 N 
ATOM      2  C   UNL     1      -5.406   4.815   0.635  0.00  0.00    +0.227 C 
ATOM      3  O   UNL     1      -6.127   5.627   1.175  0.00  0.00    -0.275 OA
ATOM      4  H   UNL     1      -5.371   3.112  -0.444  0.00  0.00    +0.155 HD
ENDROOT
BRANCH   1  10
ATOM      5  C   UNL     1      -7.787   2.180   0.224  0.00  0.00    +0.025 A 
ATOM      6  C   UNL     1      -9.144   1.944   0.322  0.00  0.00    +0.030 A 
ATOM      7  C   UNL     1     -10.033   3.003   0.326  0.00  0.00    +0.106 A 
ATOM      8  C   UNL     1      -9.566   4.302   0.237  0.00  0.00    +0.030 A 
ATOM      9  C   UNL     1      -8.210   4.545   0.143  0.00  0.00    +0.025 A 
ATOM     10  C   UNL     1      -7.314   3.483   0.140  0.00  0.00    +0.034 A 
BRANCH   7  11
ATOM     11  S   UNL     1     -11.764   2.697   0.445  0.00  0.00    +0.061 S 
ATOM     12  O   UNL     1     -11.911   1.427   1.066  0.00  0.00    -0.153 OA
ATOM     13  O   UNL     1     -12.350   3.877   0.976  0.00  0.00    -0.153 OA
BRANCH  11  14
ATOM     14  N   UNL     1     -12.340   2.538  -1.100  0.00  0.00    -0.177 NA
ATOM     15  C   UNL     1     -12.829   3.708  -1.841  0.00  0.00    +0.109 C 
ATOM     16  C   UNL     1     -12.091   3.777  -3.187  0.00  0.00    +0.017 C 
ATOM     17  C   UNL     1     -12.265   2.448  -3.926  0.00  0.00    +0.003 C 
ATOM     18  C   UNL     1     -11.650   1.318  -3.098  0.00  0.00    +0.017 C 
ATOM     19  C   UNL     1     -12.377   1.222  -1.753  0.00  0.00    +0.109 C 
ENDBRANCH  11  14
ENDBRANCH   7  11
ENDBRANCH   1  10
BRANCH   2  20
ATOM     20  C   UNL     1      -3.913   5.022   0.623  0.00  0.00    +0.173 C 
BRANCH  20  21
ATOM     21  S   UNL     1      -3.511   6.560   1.488  0.00  0.00    -0.077 S 
BRANCH  21  22
ATOM     22  C   UNL     1      -1.756   6.552   1.327  0.00  0.00    +0.190 A 
ATOM     23  N   UNL     1      -0.894   7.498   1.803  0.00  0.00    -0.316 N 
ATOM     24  H   UNL     1      -1.121   8.303   2.295  0.00  0.00    +0.169 HD
ATOM     25  C   UNL     1       0.363   7.069   1.447  0.00  0.00    +0.164 A 
ATOM     26  N   UNL     1       0.214   5.938   0.796  0.00  0.00    -0.128 NA
ATOM     27  N   UNL     1      -1.033   5.636   0.722  0.00  0.00    -0.122 NA
BRANCH  25  28
ATOM     28  C   UNL     1       1.641   7.750   1.742  0.00  0.00    +0.039 A 
ATOM     29  C   UNL     1       1.646   8.957   2.443  0.00  0.00    +0.033 A 
ATOM     30  C   UNL     1       2.844   9.586   2.720  0.00  0.00    +0.042 A 
ATOM     31  C   UNL     1       4.037   9.028   2.293  0.00  0.00    +0.021 A 
ATOM     32  C   UNL     1       4.039   7.835   1.593  0.00  0.00    +0.022 A 
ATOM     33  C   UNL     1       2.848   7.193   1.315  0.00  0.00    +0.052 A 
ATOM     34 CL   UNL     1       2.852   5.696   0.435  0.00  0.00    -0.083 Cl
ATOM     35 CL   UNL     1       2.853  11.083   3.598  0.00  0.00    -0.084 Cl
ENDBRANCH  25  28
ENDBRANCH  21  22
ENDBRANCH  20  21
ENDBRANCH   2  20
TORSDOF 7
