REMARK  Name = ZINC43740647
REMARK  12 active torsions:
REMARK  status: ('A' for Active; 'I' for Inactive)
REMARK    1  A    between atoms: CG1_1  and  CB_2
REMARK    2  A    between atoms: CB_2  and  CG2_3
REMARK    3  A    between atoms: CB_2  and  CA_4
REMARK    4  A    between atoms: CA_4  and  C_6
REMARK    5  A    between atoms: CA_4  and  N_9
REMARK    6  A    between atoms: C_10  and  C_12
REMARK    7  A    between atoms: C_12  and  C_13
REMARK    8  A    between atoms: C_13  and  C_14
REMARK    9  A    between atoms: C_14  and  O_16
REMARK   10  A    between atoms: O_16  and  C_17
REMARK   11  A    between atoms: C_23  and  C_40
REMARK   12  A    between atoms: C_38  and  C_39
REMARK                            x       y       z     vdW  Elec       q    Type
REMARK                         _______ _______ _______ _____ _____    ______ ____
ROOT
ATOM      1  C   UNK A   0      -7.301  -1.359  -6.216  0.00  0.00    +0.183 C 
ATOM      2  C   UNK A   0      -8.477  -0.412  -5.912  0.00  0.00    +0.045 C 
ATOM      3  C   UNK A   0      -9.750  -1.102  -6.454  0.00  0.00    +0.008 C 
ATOM      4  C   UNK A   0      -9.364  -2.592  -6.489  0.00  0.00    +0.002 C 
ATOM      5  C   UNK A   0      -7.902  -2.574  -6.973  0.00  0.00    +0.008 C 
ATOM      6  C   UNK A   0      -7.834  -2.237  -8.465  0.00  0.00    +0.011 C 
ATOM      7  C   UNK A   0      -8.705  -3.195  -9.271  0.00  0.00    +0.005 C 
ATOM      8  C   UNK A   0     -10.165  -3.020  -8.837  0.00  0.00    +0.002 C 
ATOM      9  C   UNK A   0     -10.274  -3.407  -7.376  0.00  0.00    -0.003 C 
ATOM     10  C   UNK A   0     -11.726  -3.258  -6.918  0.00  0.00    +0.008 C 
ATOM     11  C   UNK A   0     -12.630  -4.203  -7.717  0.00  0.00    +0.032 C 
ATOM     12  C   UNK A   0     -12.415  -3.905  -9.191  0.00  0.00    -0.060 C 
ATOM     13  C   UNK A   0     -13.470  -3.630  -9.953  0.00  0.00    +0.046 C 
ATOM     14  C   UNK A   0     -13.259  -3.302 -11.370  0.00  0.00    +0.156 C 
ATOM     15  O   UNK A   0     -14.120  -3.479 -12.206  0.00  0.00    -0.293 OA
ATOM     16  C   UNK A   0     -11.900  -2.727 -11.725  0.00  0.00    +0.080 C 
ATOM     17  C   UNK A   0     -10.838  -3.677 -11.174  0.00  0.00    +0.019 C 
ATOM     18  C   UNK A   0     -11.047  -3.939  -9.684  0.00  0.00    -0.007 C 
ATOM     19  C   UNK A   0     -10.529  -5.361  -9.459  0.00  0.00    +0.016 C 
ATOM     20  C   UNK A   0      -7.172  -3.876  -6.639  0.00  0.00    +0.015 C 
ENDROOT
BRANCH   1  21
ATOM     21  O   UNK A   0      -6.693  -1.792  -4.997  0.00  0.00    -0.461 OA
BRANCH  21  22
ATOM     22  C   UNK A   0      -5.660  -1.068  -4.540  0.00  0.00    +0.308 C 
ATOM     23  O   UNK A   0      -5.284  -0.098  -5.154  0.00  0.00    -0.251 OA
BRANCH  22  24
ATOM     24  C   UNK A   0      -4.968  -1.464  -3.261  0.00  0.00    +0.130 C 
BRANCH  24  25
ATOM     25  C   UNK A   0      -3.834  -0.480  -2.968  0.00  0.00    +0.107 C 
BRANCH  25  27
ATOM     26  N   VAL A   1      -2.105  -0.148  -1.230  0.00  0.00    -0.302 N 
ATOM     27  C   UNK A   0      -3.143  -0.876  -1.689  0.00  0.00    +0.214 C 
ATOM     28  O   UNK A   0      -3.520  -1.850  -1.073  0.00  0.00    -0.276 OA
ATOM     29  H   VAL A   1      -1.804   0.631  -1.724  0.00  0.00    +0.150 HD
BRANCH  26  30
ATOM     30  CA  VAL A   1      -1.433  -0.534   0.013  0.00  0.00    +0.189 C 
BRANCH  30  32
ATOM     31  CG1 VAL A   1      -0.019   1.526   0.010  0.00  0.00    +0.009 C 
ATOM     32  CB  VAL A   1       0.002  -0.004   0.002  0.00  0.00    +0.014 C 
ATOM     33  CG2 VAL A   1       0.742  -0.511   1.242  0.00  0.00    +0.009 C 
ENDBRANCH  30  32
BRANCH  30  34
ATOM     34  C   VAL A   1      -2.175   0.051   1.187  0.00  0.00    +0.376 C 
ATOM     35  O   VAL A   1      -3.059   0.871   1.003  0.00  0.00    -0.244 OA
ATOM     36  OXT VAL A   1      -1.893  -0.296   2.321  0.00  0.00    -0.244 OA
ENDBRANCH  30  34
ENDBRANCH  26  30
ENDBRANCH  25  27
ENDBRANCH  24  25
ENDBRANCH  22  24
ENDBRANCH  21  22
ENDBRANCH   1  21
TORSDOF 8
