REMARK  Name = ZINC21273540
REMARK  7 active torsions:
REMARK  status: ('A' for Active; 'I' for Inactive)
REMARK    1  A    between atoms: C_1  and  C_2
REMARK    2  A    between atoms: C_2  and  C_4
REMARK    3  A    between atoms: C_2  and  S_20
REMARK    4  A    between atoms: N_9  and  C_10
REMARK    5  A    between atoms: S_20  and  C_21
REMARK    6  A    between atoms: C_24  and  C_32
REMARK    7  A    between atoms: N_25  and  C_26
REMARK                            x       y       z     vdW  Elec       q    Type
REMARK                         _______ _______ _______ _____ _____    ______ ____
ROOT
ATOM      1  C   UNL     1       0.366  -4.437   0.098  0.00  0.00    +0.233 C 
ATOM      2  O   UNL     1       1.437  -4.925  -0.194  0.00  0.00    -0.274 OA
ATOM      3  N   UNL     1      -0.640  -5.225   0.524  0.00  0.00    -0.239 N 
ATOM      4  C   UNL     1      -0.457  -6.557   0.625  0.00  0.00    +0.306 C 
ATOM      5  O   UNL     1       0.617  -7.046   0.333  0.00  0.00    -0.252 OA
ATOM      6  N   UNL     1      -1.463  -7.345   1.052  0.00  0.00    -0.294 N 
ATOM      7  H   UNL     1      -1.612  -4.782   0.789  0.00  0.00    +0.159 HD
ATOM      8  H   UNL     1      -2.435  -6.902   1.316  0.00  0.00    +0.151 HD
ENDROOT
BRANCH   6   9
ATOM      9  C   UNL     1      -1.264  -8.792   1.162  0.00  0.00    +0.037 C 
ATOM     10  C   UNL     1      -0.902  -9.364  -0.210  0.00  0.00    +0.029 C 
ATOM     11  C   UNL     1      -0.694 -10.875  -0.095  0.00  0.00    -0.008 C 
ATOM     12  C   UNL     1      -1.982 -11.530   0.407  0.00  0.00    +0.007 C 
ATOM     13  C   UNL     1      -2.343 -10.959   1.780  0.00  0.00    -0.008 C 
ATOM     14  C   UNL     1      -2.551  -9.448   1.664  0.00  0.00    +0.029 C 
ATOM     15  C   UNL     1      -1.208 -11.243   2.766  0.00  0.00    +0.007 C 
ATOM     16  C   UNL     1       0.080 -10.588   2.264  0.00  0.00    -0.008 C 
ATOM     17  C   UNL     1       0.442 -11.159   0.891  0.00  0.00    +0.007 C 
ATOM     18  C   UNL     1      -0.129  -9.076   2.148  0.00  0.00    +0.029 C 
ENDBRANCH   6   9
BRANCH   1  20
ATOM     19  C   UNL     1      -0.585  -2.634  -1.315  0.00  0.00    +0.029 C 
ATOM     20  C   UNL     1       0.161  -2.948  -0.016  0.00  0.00    +0.137 C 
BRANCH  20  21
ATOM     21  S   UNL     1       1.768  -2.116  -0.026  0.00  0.00    -0.073 S 
BRANCH  21  22
ATOM     22  C   UNL     1       1.242  -0.434  -0.012  0.00  0.00    +0.197 A 
ATOM     23  N   UNL     1       0.002  -0.004   0.002  0.00  0.00    -0.122 NA
ATOM     24  N   UNL     1      -0.015   1.281   0.009  0.00  0.00    -0.133 NA
ATOM     25  C   UNL     1       1.202   1.746   0.000  0.00  0.00    +0.142 A 
ATOM     26  N   UNL     1       2.049   0.670  -0.014  0.00  0.00    -0.274 N 
BRANCH  26  27
ATOM     27  C   UNL     1       3.451   0.696  -0.027  0.00  0.00    +0.050 A 
ATOM     28  C   UNL     1       4.148   1.216   1.055  0.00  0.00    +0.026 A 
ATOM     29  C   UNL     1       5.529   1.235   1.041  0.00  0.00    +0.002 A 
ATOM     30  C   UNL     1       6.217   0.747  -0.054  0.00  0.00    +0.000 A 
ATOM     31  C   UNL     1       5.526   0.233  -1.135  0.00  0.00    +0.002 A 
ATOM     32  C   UNL     1       4.145   0.206  -1.125  0.00  0.00    +0.026 A 
ENDBRANCH  26  27
BRANCH  25  33
ATOM     33  C   UNL     1       1.603   3.199   0.004  0.00  0.00    +0.057 C 
ATOM     34  C   UNL     1       0.500   4.236   0.227  0.00  0.00    +0.012 C 
ATOM     35  C   UNL     1       1.123   4.067  -1.161  0.00  0.00    +0.012 C 
ENDBRANCH  25  33
ENDBRANCH  21  22
ENDBRANCH  20  21
ENDBRANCH   1  20
TORSDOF 6
