REMARK  Name = ZINC39525868
REMARK  5 active torsions:
REMARK  status: ('A' for Active; 'I' for Inactive)
REMARK    1  A    between atoms: C_1  and  C_2
REMARK    2  A    between atoms: C_2  and  O_3
REMARK    3  A    between atoms: O_3  and  C_4
REMARK    4  A    between atoms: C_14  and  C_18
REMARK    5  A    between atoms: C_23  and  O_24
REMARK                            x       y       z     vdW  Elec       q    Type
REMARK                         _______ _______ _______ _____ _____    ______ ____
ROOT
ATOM      1  C   UNL     1       0.746  -1.891  -1.280  0.00  0.00    +0.120 C 
ATOM      2  C   UNL     1      -0.487  -2.402  -2.029  0.00  0.00    +0.032 C 
ATOM      3  C   UNL     1      -0.435  -3.928  -2.066  0.00  0.00    +0.004 C 
ATOM      4  C   UNL     1       0.824  -4.420  -2.755  0.00  0.00    +0.023 C 
ATOM      5  C   UNL     1       2.117  -3.777  -2.276  0.00  0.00    +0.034 C 
ATOM      6  C   UNL     1       1.994  -2.276  -2.065  0.00  0.00    +0.054 C 
ATOM      7  C   UNL     1       3.148  -3.982  -3.419  0.00  0.00    +0.023 C 
ATOM      8  C   UNL     1       4.476  -3.349  -3.009  0.00  0.00    +0.004 C 
ATOM      9  C   UNL     1       4.986  -4.021  -1.732  0.00  0.00    +0.024 C 
ATOM     10  C   UNL     1       3.927  -3.902  -0.635  0.00  0.00    +0.101 C 
ATOM     11  N   UNL     1       2.655  -4.455  -1.102  0.00  0.00    -0.233 NA
ATOM     12  I   UNL     1       1.312  -4.647   0.426  0.00  0.00    +0.022 I 
ENDROOT
BRANCH  10  13
ATOM     13  C   UNL     1       4.387  -4.670   0.578  0.00  0.00    +0.012 A 
ATOM     14  C   UNL     1       3.976  -5.975   0.766  0.00  0.00    +0.009 A 
ATOM     15  C   UNL     1       4.397  -6.680   1.879  0.00  0.00    +0.001 A 
ATOM     16  C   UNL     1       5.231  -6.080   2.805  0.00  0.00    +0.004 A 
ATOM     17  C   UNL     1       5.644  -4.775   2.621  0.00  0.00    +0.046 A 
ATOM     18  C   UNL     1       5.227  -4.068   1.502  0.00  0.00    +0.122 A 
BRANCH  18  19
ATOM     19  O   UNL     1       5.638  -2.786   1.316  0.00  0.00    -0.506 OA
ATOM     20  H   UNL     1       5.054  -2.124   1.712  0.00  0.00    +0.292 HD
ENDBRANCH  18  19
ENDBRANCH  10  13
BRANCH   1  21
ATOM     21  O   UNL     1       0.671  -0.465  -1.174  0.00  0.00    -0.377 OA
BRANCH  21  23
ATOM     22  C   UNL     1      -0.019   1.526   0.010  0.00  0.00    +0.034 C 
ATOM     23  C   UNL     1       0.002  -0.004   0.002  0.00  0.00    +0.157 C 
ENDBRANCH  21  23
ENDBRANCH   1  21
TORSDOF 4
