REMARK  Name = ZINC23560251
REMARK  7 active torsions:
REMARK  status: ('A' for Active; 'I' for Inactive)
REMARK    1  A    between atoms: C_1  and  C_2
REMARK    2  A    between atoms: C_3  and  C_26
REMARK    3  A    between atoms: C_7  and  S_11
REMARK    4  A    between atoms: S_11  and  C_12
REMARK    5  A    between atoms: C_12  and  C_13
REMARK    6  A    between atoms: N_15  and  C_16
REMARK    7  A    between atoms: C_19  and  N_23
REMARK                            x       y       z     vdW  Elec       q    Type
REMARK                         _______ _______ _______ _____ _____    ______ ____
ROOT
ATOM      1  C   UNL     1      -0.508  -4.151  -0.871  0.00  0.00    +0.227 C 
ATOM      2  O   UNL     1       0.372  -4.953  -0.644  0.00  0.00    -0.275 OA
ATOM      3  N   UNL     1      -1.721  -4.577  -1.274  0.00  0.00    -0.284 N 
ATOM      4  H   UNL     1      -2.533  -3.853  -1.436  0.00  0.00    +0.155 HD
ENDROOT
BRANCH   3   5
ATOM      5  C   UNL     1      -1.948  -5.942  -1.487  0.00  0.00    +0.048 A 
ATOM      6  C   UNL     1      -1.212  -6.888  -0.785  0.00  0.00    +0.026 A 
ATOM      7  C   UNL     1      -1.437  -8.233  -0.998  0.00  0.00    +0.034 A 
ATOM      8  C   UNL     1      -2.396  -8.640  -1.908  0.00  0.00    +0.127 A 
ATOM      9  C   UNL     1      -3.131  -7.702  -2.609  0.00  0.00    +0.049 A 
ATOM     10  C   UNL     1      -2.914  -6.354  -2.397  0.00  0.00    +0.041 A 
ATOM     11 BR   UNL     1      -3.925  -5.071  -3.349  0.00  0.00    -0.048 Br
BRANCH   8  12
ATOM     12  N   UNL     1      -2.636 -10.084  -2.132  0.00  0.00    +0.056 N 
ATOM     13  O   UNL     1      -1.989 -10.911  -1.516  0.00  0.00    -0.126 OA
ATOM     14  O   UNL     1      -3.479 -10.444  -2.933  0.00  0.00    -0.126 OA
ENDBRANCH   8  12
ENDBRANCH   3   5
BRANCH   1  15
ATOM     15  C   UNL     1      -0.246  -2.676  -0.702  0.00  0.00    +0.171 C 
BRANCH  15  16
ATOM     16  S   UNL     1       1.461  -2.426  -0.156  0.00  0.00    -0.096 S 
BRANCH  16  23
ATOM     17  C   UNL     1       4.210  -2.020   0.724  0.00  0.00    +0.045 C 
ATOM     18  C   UNL     1       3.972  -0.532   0.737  0.00  0.00    -0.029 A 
ATOM     19  C   UNL     1       4.954   0.309   1.092  0.00  0.00    -0.008 A 
ATOM     20  S   UNL     1       4.197   1.917   0.950  0.00  0.00    -0.074 S 
ATOM     21  C   UNL     1       2.581   1.415   0.419  0.00  0.00    +0.113 A 
ATOM     22  C   UNL     1       2.676   0.007   0.365  0.00  0.00    +0.043 A 
ATOM     23  C   UNL     1       1.492  -0.668  -0.043  0.00  0.00    +0.109 A 
ATOM     24  N   UNL     1       0.413   0.042  -0.337  0.00  0.00    -0.229 NA
ATOM     25  C   UNL     1       0.398   1.360  -0.265  0.00  0.00    +0.223 A 
ATOM     26  N   UNL     1       1.464   2.042   0.107  0.00  0.00    -0.228 NA
ATOM     27  C   UNL     1       6.363  -0.025   1.511  0.00  0.00    +0.052 C 
ENDBRANCH  16  23
ENDBRANCH  15  16
ENDBRANCH   1  15
TORSDOF 5
