REMARK  Name = ZINC11234358
REMARK  11 active torsions:
REMARK  status: ('A' for Active; 'I' for Inactive)
REMARK    1  A    between atoms: C_1  and  C_2
REMARK    2  A    between atoms: C_2  and  O_3
REMARK    3  A    between atoms: O_3  and  C_4
REMARK    4  A    between atoms: C_4  and  C_6
REMARK    5  A    between atoms: C_7  and  C_21
REMARK    6  A    between atoms: C_12  and  C_14
REMARK    7  A    between atoms: C_21  and  S_22
REMARK    8  A    between atoms: S_22  and  C_23
REMARK    9  A    between atoms: N_28  and  C_29
REMARK   10  A    between atoms: C_29  and  C_30
REMARK   11  A    between atoms: C_29  and  C_31
REMARK                            x       y       z     vdW  Elec       q    Type
REMARK                         _______ _______ _______ _____ _____    ______ ____
ROOT
ATOM      1  C   UNL     1       2.348  -0.167  -0.115  0.00  0.00    +0.079 C 
ATOM      2  C   UNL     1       1.125  -0.739  -0.130  0.00  0.00    +0.034 C 
ATOM      3  N   UNL     1      -0.007   0.017  -0.020  0.00  0.00    -0.272 N 
ATOM      4  C   UNL     1      -0.002   1.349   0.107  0.00  0.00    +0.304 C 
ATOM      5  O   UNL     1      -1.063   1.936   0.192  0.00  0.00    -0.252 OA
ATOM      6  N   UNL     1       1.142   2.062   0.138  0.00  0.00    -0.288 N 
ATOM      7  C   UNL     1       2.421   1.340   0.028  0.00  0.00    +0.144 C 
ATOM      8  H   UNL     1      -0.864  -0.438  -0.036  0.00  0.00    +0.156 HD
ATOM      9  H   UNL     1       1.123   3.027   0.231  0.00  0.00    +0.151 HD
ENDROOT
BRANCH   7  10
ATOM     10  C   UNL     1       3.159   1.885  -1.167  0.00  0.00    -0.022 A 
ATOM     11  C   UNL     1       2.502   2.041  -2.374  0.00  0.00    +0.007 A 
ATOM     12  C   UNL     1       3.178   2.546  -3.469  0.00  0.00    +0.020 A 
ATOM     13  C   UNL     1       4.514   2.885  -3.361  0.00  0.00    +0.041 A 
ATOM     14  C   UNL     1       5.173   2.724  -2.155  0.00  0.00    +0.020 A 
ATOM     15  C   UNL     1       4.495   2.224  -1.059  0.00  0.00    +0.007 A 
ATOM     16 CL   UNL     1       5.365   3.513  -4.737  0.00  0.00    -0.084 Cl
ENDBRANCH   7  10
BRANCH   1  17
ATOM     17  C   UNL     1       3.522  -0.948  -0.228  0.00  0.00    +0.339 C 
ATOM     18  O   UNL     1       4.173  -1.215   0.765  0.00  0.00    -0.245 OA
BRANCH  17  19
ATOM     19  O   UNL     1       3.921  -1.396  -1.436  0.00  0.00    -0.462 OA
BRANCH  19  21
ATOM     20  C   UNL     1       5.405  -2.594  -2.920  0.00  0.00    +0.048 C 
ATOM     21  C   UNL     1       5.115  -2.179  -1.476  0.00  0.00    +0.229 C 
ENDBRANCH  19  21
ENDBRANCH  17  19
ENDBRANCH   1  17
BRANCH   2  22
ATOM     22  C   UNL     1       1.008  -2.235  -0.269  0.00  0.00    +0.127 C 
BRANCH  22  23
ATOM     23  S   UNL     1       0.584  -2.960   1.338  0.00  0.00    -0.091 S 
BRANCH  23  24
ATOM     24  C   UNL     1       0.485  -4.689   1.012  0.00  0.00    +0.160 A 
ATOM     25  N   UNL     1       0.664  -5.338  -0.122  0.00  0.00    -0.133 NA
ATOM     26  N   UNL     1       0.541  -6.707  -0.154  0.00  0.00    -0.125 NA
ATOM     27  C   UNL     1       0.235  -7.365   0.947  0.00  0.00    +0.183 A 
ATOM     28  S   UNL     1       0.108  -6.032   2.129  0.00  0.00    -0.025 S 
ATOM     29  N   UNL     1       0.059  -8.730   1.137  0.00  0.00    -0.320 N 
ATOM     30  H   UNL     1      -0.168  -9.072   2.017  0.00  0.00    +0.148 HD
BRANCH  29  31
ATOM     31  C   UNL     1       0.215  -9.653   0.011  0.00  0.00    +0.066 C 
ATOM     32  C   UNL     1       1.692 -10.016  -0.151  0.00  0.00    +0.027 C 
ATOM     33  C   UNL     1      -0.596 -10.924   0.276  0.00  0.00    +0.027 C 
ENDBRANCH  29  31
ENDBRANCH  23  24
ENDBRANCH  22  23
ENDBRANCH   2  22
TORSDOF 8
