REMARK  Name = ZINC46698941
REMARK  7 active torsions:
REMARK  status: ('A' for Active; 'I' for Inactive)
REMARK    1  A    between atoms: C_1  and  C_2
REMARK    2  A    between atoms: C_2  and  C_4
REMARK    3  A    between atoms: C_2  and  N_11
REMARK    4  A    between atoms: C_12  and  C_14
REMARK    5  A    between atoms: N_17  and  C_20
REMARK    6  A    between atoms: C_21  and  C_30
REMARK    7  A    between atoms: C_23  and  C_25
REMARK                            x       y       z     vdW  Elec       q    Type
REMARK                         _______ _______ _______ _____ _____    ______ ____
ROOT
ATOM      1  C   UNL     1      -3.488  -1.112  -1.210  0.00  0.00    +0.078 C 
ATOM      2  C   UNL     1      -3.413  -2.538  -0.660  0.00  0.00    +0.032 C 
ATOM      3  C   UNL     1      -4.829  -3.109  -0.537  0.00  0.00    +0.109 C 
ATOM      4  N   UNL     1      -5.498  -2.999  -1.840  0.00  0.00    -0.299 N 
ATOM      5  C   UNL     1      -5.547  -1.688  -2.501  0.00  0.00    +0.109 C 
ATOM      6  C   UNL     1      -4.123  -1.133  -2.602  0.00  0.00    +0.032 C 
ENDROOT
BRANCH   4   7
ATOM      7  C   UNL     1      -6.068  -4.105  -2.432  0.00  0.00    +0.228 A 
ATOM      8  C   UNL     1      -7.374  -4.546  -2.276  0.00  0.00    +0.201 A 
ATOM      9  N   UNL     1      -7.507  -5.665  -3.037  0.00  0.00    -0.194 NA
ATOM     10  C   UNL     1      -6.363  -5.907  -3.628  0.00  0.00    +0.266 A 
ATOM     11  O   UNL     1      -5.468  -4.963  -3.277  0.00  0.00    -0.417 OA
BRANCH  10  12
ATOM     12  C   UNL     1      -6.099  -7.031  -4.537  0.00  0.00    +0.189 A 
ATOM     13  C   UNL     1      -6.996  -7.987  -4.910  0.00  0.00    +0.055 A 
ATOM     14  C   UNL     1      -6.319  -8.859  -5.784  0.00  0.00    +0.042 A 
ATOM     15  C   UNL     1      -5.057  -8.400  -5.902  0.00  0.00    +0.196 A 
ATOM     16  O   UNL     1      -4.928  -7.293  -5.153  0.00  0.00    -0.458 OA
ENDBRANCH  10  12
BRANCH   8  17
ATOM     17  C   UNL     1      -8.388  -3.939  -1.467  0.00  0.00    +0.124 C 
ATOM     18  N   UNL     1      -9.192  -3.458  -0.825  0.00  0.00    -0.189 NA
ENDBRANCH   8  17
ENDBRANCH   4   7
BRANCH   1  20
ATOM     19  N   UNL     1      -1.344  -0.417  -0.190  0.00  0.00    -0.309 N 
ATOM     20  C   UNL     1      -2.099  -0.535  -1.300  0.00  0.00    +0.217 C 
ATOM     21  O   UNL     1      -1.660  -0.176  -2.372  0.00  0.00    -0.275 OA
ATOM     22  H   UNL     1      -1.695  -0.705   0.668  0.00  0.00    +0.149 HD
BRANCH  19  24
ATOM     23  C   UNL     1      -0.070   1.670  -0.210  0.00  0.00    +0.033 C 
ATOM     24  C   UNL     1       0.006   0.143  -0.278  0.00  0.00    +0.100 C 
BRANCH  24  25
ATOM     25  C   UNL     1       0.839  -0.370   0.869  0.00  0.00    -0.027 A 
ATOM     26  C   UNL     1       0.281  -0.493   2.127  0.00  0.00    +0.007 A 
ATOM     27  C   UNL     1       1.044  -0.964   3.179  0.00  0.00    +0.020 A 
ATOM     28  C   UNL     1       2.367  -1.311   2.973  0.00  0.00    +0.041 A 
ATOM     29  C   UNL     1       2.925  -1.187   1.713  0.00  0.00    +0.020 A 
ATOM     30  C   UNL     1       2.160  -0.722   0.660  0.00  0.00    +0.007 A 
ATOM     31 CL   UNL     1       3.326  -1.901   4.293  0.00  0.00    -0.084 Cl
ENDBRANCH  24  25
ENDBRANCH  19  24
ENDBRANCH   1  20
TORSDOF 6
