REMARK  Name = ZINC00034540
REMARK  8 active torsions:
REMARK  status: ('A' for Active; 'I' for Inactive)
REMARK    1  A    between atoms: C_1  and  C_2
REMARK    2  A    between atoms: C_2  and  O_3
REMARK    3  A    between atoms: O_3  and  C_4
REMARK    4  A    between atoms: C_9  and  O_10
REMARK    5  A    between atoms: O_10  and  C_11
REMARK    6  A    between atoms: C_11  and  C_12
REMARK    7  A    between atoms: C_13  and  C_17
REMARK    8  A    between atoms: C_21  and  O_23
REMARK                            x       y       z     vdW  Elec       q    Type
REMARK                         _______ _______ _______ _____ _____    ______ ____
ROOT
ATOM      1  C   UNL     1      -0.741   6.717  -3.973  0.00  0.00    +0.162 A 
ATOM      2  C   UNL     1      -1.397   7.331  -2.921  0.00  0.00    +0.053 A 
ATOM      3  C   UNL     1      -1.194   6.897  -1.619  0.00  0.00    -0.044 A 
ATOM      4  C   UNL     1      -0.332   5.851  -1.368  0.00  0.00    -0.050 A 
ATOM      5  C   UNL     1       0.326   5.231  -2.420  0.00  0.00    +0.052 A 
ATOM      6  C   UNL     1       0.127   5.658  -3.720  0.00  0.00    +0.162 A 
ATOM      7  C   UNL     1      -0.076   5.351   0.030  0.00  0.00    -0.010 C 
ATOM      8  C   UNL     1      -1.287   7.271   0.838  0.00  0.00    -0.077 C 
ATOM      9  C   UNL     1      -1.938   7.593  -0.508  0.00  0.00    +0.016 C 
ATOM     10  N   UNL     1      -1.131   5.809   0.944  0.00  0.00    +0.386 N 
ATOM     11  H   UNL     1      -0.876   5.563   1.908  0.00  0.00    -0.085 HD
ATOM     12  H   UNL     1      -2.017   5.353   0.698  0.00  0.00    -0.085 HD
ENDROOT
BRANCH   7  13
ATOM     13  C   UNL     1      -0.051   3.844   0.022  0.00  0.00    -0.054 A 
ATOM     14  C   UNL     1      -1.237   3.133   0.029  0.00  0.00    +0.002 A 
ATOM     15  C   UNL     1      -1.218   1.751   0.017  0.00  0.00    +0.004 A 
ATOM     16  C   UNL     1      -0.013   1.076   0.008  0.00  0.00    +0.045 A 
ATOM     17  C   UNL     1       1.179   1.786   0.000  0.00  0.00    +0.117 A 
ATOM     18  C   UNL     1       1.157   3.174   0.008  0.00  0.00    +0.047 A 
BRANCH  17  19
ATOM     19  O   UNL     1       2.366   1.125  -0.014  0.00  0.00    -0.507 OA
ATOM     20  H   UNL     1       2.701   0.937  -0.901  0.00  0.00    +0.292 HD
ENDBRANCH  17  19
ENDBRANCH   7  13
BRANCH   1  21
ATOM     21  O   UNL     1      -0.942   7.146  -5.248  0.00  0.00    -0.489 OA
BRANCH  21  23
ATOM     22  C   UNL     1      -1.943   8.577  -6.918  0.00  0.00    +0.048 C 
ATOM     23  C   UNL     1      -1.846   8.238  -5.429  0.00  0.00    +0.226 C 
ENDBRANCH  21  23
ENDBRANCH   1  21
BRANCH   6  24
ATOM     24  O   UNL     1       0.775   5.047  -4.747  0.00  0.00    -0.489 OA
BRANCH  24  25
ATOM     25  C   UNL     1       1.649   3.967  -4.412  0.00  0.00    +0.226 C 
ATOM     26  C   UNL     1       2.284   3.409  -5.687  0.00  0.00    +0.048 C 
ENDBRANCH  24  25
ENDBRANCH   6  24
TORSDOF 6
