REMARK  Name = ZINC39545524
REMARK  5 active torsions:
REMARK  status: ('A' for Active; 'I' for Inactive)
REMARK    1  A    between atoms: C_9  and  C_22
REMARK    2  A    between atoms: C_12  and  C_15
REMARK    3  A    between atoms: C_20  and  O_21
REMARK    4  A    between atoms: N_24  and  C_25
REMARK    5  A    between atoms: C_30  and  O_31
REMARK                            x       y       z     vdW  Elec       q    Type
REMARK                         _______ _______ _______ _____ _____    ______ ____
ROOT
ATOM      1  C   UNL     1      -0.017   1.377   0.010  0.00  0.00    +0.000 A 
ATOM      2  C   UNL     1       1.167   2.093   0.002  0.00  0.00    +0.002 A 
ATOM      3  C   UNL     1       2.375   1.422  -0.018  0.00  0.00    +0.023 A 
ATOM      4  C   UNL     1       2.394   0.035  -0.026  0.00  0.00    +0.037 A 
ATOM      5  C   UNL     1       1.208  -0.686  -0.010  0.00  0.00    -0.010 A 
ATOM      6  C   UNL     1       0.002  -0.004   0.002  0.00  0.00    +0.007 A 
ATOM      7  C   UNL     1       1.197  -2.192   0.006  0.00  0.00    +0.124 C 
ATOM      8  N   UNL     1       2.452  -2.731  -0.529  0.00  0.00    -0.369 NA
ATOM      9  C   UNL     1       2.570  -4.162  -0.206  0.00  0.00    +0.151 C 
ATOM     10  C   UNL     1       3.874  -4.262   0.609  0.00  0.00    +0.069 C 
ATOM     11  C   UNL     1       4.367  -2.836   0.698  0.00  0.00    -0.000 C 
ATOM     12  C   UNL     1       3.525  -2.042   0.052  0.00  0.00    +0.079 C 
ATOM     13  N   UNL     1       3.621  -0.648  -0.058  0.00  0.00    -0.303 N 
ATOM     14  H   UNL     1       4.471  -0.190  -0.149  0.00  0.00    +0.153 HD
ATOM     15  H   UNL     1       2.474  -2.611  -1.531  0.00  0.00    +0.128 HD
ENDROOT
BRANCH  11  16
ATOM     16  C   UNL     1       5.591  -2.397   1.395  0.00  0.00    +0.023 A 
ATOM     17  C   UNL     1       5.503  -1.748   2.628  0.00  0.00    +0.012 A 
ATOM     18  C   UNL     1       6.652  -1.341   3.274  0.00  0.00    +0.001 A 
ATOM     19  C   UNL     1       7.892  -1.572   2.705  0.00  0.00    +0.004 A 
ATOM     20  C   UNL     1       7.992  -2.214   1.484  0.00  0.00    +0.046 A 
ATOM     21  C   UNL     1       6.849  -2.634   0.825  0.00  0.00    +0.124 A 
BRANCH  21  22
ATOM     22  O   UNL     1       6.947  -3.269  -0.372  0.00  0.00    -0.506 OA
ATOM     23  H   UNL     1       6.933  -2.675  -1.135  0.00  0.00    +0.292 HD
ENDBRANCH  21  22
ENDBRANCH  11  16
BRANCH   9  24
ATOM     24  C   UNL     1       2.670  -4.980  -1.467  0.00  0.00    +0.266 C 
ATOM     25  O   UNL     1       2.646  -4.433  -2.549  0.00  0.00    -0.271 OA
ATOM     26  N   UNL     1       2.786  -6.321  -1.393  0.00  0.00    -0.101 N 
ATOM     27  F   UNL     1       2.812  -6.908  -0.233  0.00  0.00    -0.101 F 
BRANCH  26  28
ATOM     28  C   UNL     1       2.879  -7.082  -2.566  0.00  0.00    +0.111 A 
ATOM     29  C   UNL     1       4.110  -7.273  -3.176  0.00  0.00    +0.030 A 
ATOM     30  C   UNL     1       4.199  -8.024  -4.332  0.00  0.00    +0.002 A 
ATOM     31  C   UNL     1       3.063  -8.587  -4.884  0.00  0.00    +0.004 A 
ATOM     32  C   UNL     1       1.832  -8.402  -4.282  0.00  0.00    +0.047 A 
ATOM     33  C   UNL     1       1.735  -7.654  -3.119  0.00  0.00    +0.141 A 
BRANCH  33  34
ATOM     34  O   UNL     1       0.527  -7.476  -2.522  0.00  0.00    -0.505 OA
ATOM     35  H   UNL     1       0.046  -6.696  -2.833  0.00  0.00    +0.292 HD
ENDBRANCH  33  34
ENDBRANCH  26  28
ENDBRANCH   9  24
TORSDOF 5
