REMARK  Name = ZINC08917822
REMARK  10 active torsions:
REMARK  status: ('A' for Active; 'I' for Inactive)
REMARK    1  A    between atoms: C_1  and  C_2
REMARK    2  A    between atoms: C_2  and  C_4
REMARK    3  A    between atoms: C_10  and  C_44
REMARK    4  A    between atoms: N_22  and  O_23
REMARK    5  A    between atoms: O_23  and  C_24
REMARK    6  A    between atoms: C_24  and  C_25
REMARK    7  A    between atoms: N_27  and  C_28
REMARK    8  A    between atoms: C_28  and  C_29
REMARK    9  A    between atoms: C_29  and  C_30
REMARK   10  A    between atoms: C_42  and  C_43
REMARK                            x       y       z     vdW  Elec       q    Type
REMARK                         _______ _______ _______ _____ _____    ______ ____
ROOT
ATOM      1  C   UNL     1       7.398  -4.170  -4.159  0.00  0.00    +0.061 C 
ATOM      2  C   UNL     1       6.305  -5.080  -4.754  0.00  0.00    +0.012 C 
ATOM      3  C   UNL     1       6.337  -6.409  -3.937  0.00  0.00    +0.005 C 
ATOM      4  C   UNL     1       6.965  -5.973  -2.579  0.00  0.00    -0.001 C 
ATOM      5  C   UNL     1       8.047  -4.979  -3.028  0.00  0.00    -0.019 C 
ATOM      6  C   UNL     1       8.525  -4.094  -1.899  0.00  0.00    +0.008 C 
ATOM      7  C   UNL     1       7.369  -3.370  -1.246  0.00  0.00    +0.005 C 
ATOM      8  C   UNL     1       6.391  -4.408  -0.676  0.00  0.00    +0.002 C 
ATOM      9  C   UNL     1       5.845  -5.282  -1.791  0.00  0.00    -0.003 C 
ATOM     10  C   UNL     1       4.911  -6.375  -1.278  0.00  0.00    +0.008 C 
ATOM     11  C   UNL     1       4.140  -5.955  -0.035  0.00  0.00    +0.031 C 
ATOM     12  C   UNL     1       3.999  -4.447  -0.027  0.00  0.00    -0.062 C 
ATOM     13  C   UNL     1       2.805  -3.875  -0.035  0.00  0.00    +0.026 C 
ATOM     14  C   UNL     1       2.667  -2.413  -0.032  0.00  0.00    +0.080 C 
ATOM     15  N   UNL     1       1.490  -1.873  -0.017  0.00  0.00    -0.089 NA
ATOM     16  C   UNL     1       3.898  -1.542  -0.041  0.00  0.00    +0.059 C 
ATOM     17  C   UNL     1       5.039  -2.304  -0.725  0.00  0.00    +0.017 C 
ATOM     18  C   UNL     1       5.261  -3.628   0.009  0.00  0.00    -0.007 C 
ATOM     19  C   UNL     1       5.644  -3.347   1.463  0.00  0.00    +0.016 C 
ATOM     20  C   UNL     1       9.237  -5.758  -3.591  0.00  0.00    +0.012 C 
ENDROOT
BRANCH   1  22
ATOM     21  C   UNL     1       7.630  -1.678  -3.418  0.00  0.00    +0.086 C 
ATOM     22  C   UNL     1       6.782  -2.909  -3.608  0.00  0.00    +0.134 C 
ATOM     23  O   UNL     1       5.610  -2.886  -3.320  0.00  0.00    -0.297 OA
ENDBRANCH   1  22
BRANCH  15  24
ATOM     24  O   UNL     1       1.358  -0.463  -0.009  0.00  0.00    -0.384 OA
BRANCH  24  25
ATOM     25  C   UNL     1       0.004  -0.005   0.007  0.00  0.00    +0.358 C 
BRANCH  25  26
ATOM     26  C   UNL     1      -0.017   1.502   0.015  0.00  0.00    +0.253 C 
ATOM     27  O   UNL     1       1.025   2.123   0.007  0.00  0.00    -0.272 OA
ATOM     28  N   UNL     1      -1.193   2.159   0.025  0.00  0.00    -0.312 N 
ATOM     29  H   UNL     1      -2.026   1.662   0.027  0.00  0.00    +0.149 HD
BRANCH  28  30
ATOM     30  C   UNL     1      -1.214   3.624   0.032  0.00  0.00    +0.110 C 
BRANCH  30  31
ATOM     31  C   UNL     1      -2.663   4.114   0.043  0.00  0.00    +0.072 C 
BRANCH  31  32
ATOM     32  C   UNL     1      -2.684   5.620   0.051  0.00  0.00    +0.018 A 
ATOM     33  C   UNL     1      -2.599   6.387   1.149  0.00  0.00    +0.031 A 
ATOM     34  C   UNL     1      -2.655   7.781   0.704  0.00  0.00    -0.000 A 
ATOM     35  C   UNL     1      -2.610   9.012   1.362  0.00  0.00    +0.010 A 
ATOM     36  C   UNL     1      -2.694  10.170   0.640  0.00  0.00    +0.001 A 
ATOM     37  C   UNL     1      -2.822  10.132  -0.742  0.00  0.00    +0.002 A 
ATOM     38  C   UNL     1      -2.868   8.928  -1.410  0.00  0.00    +0.026 A 
ATOM     39  C   UNL     1      -2.784   7.737  -0.696  0.00  0.00    +0.047 A 
ATOM     40  N   UNL     1      -2.799   6.410  -1.061  0.00  0.00    -0.358 N 
ATOM     41  H   UNL     1      -2.879   6.083  -1.971  0.00  0.00    +0.166 HD
ENDBRANCH  31  32
ENDBRANCH  30  31
ENDBRANCH  28  30
ENDBRANCH  25  26
ENDBRANCH  24  25
ENDBRANCH  15  24
TORSDOF 7
