REMARK  Name = ZINC38556310
REMARK  7 active torsions:
REMARK  status: ('A' for Active; 'I' for Inactive)
REMARK    1  A    between atoms: C_6  and  C_11
REMARK    2  A    between atoms: C_11  and  C_13
REMARK    3  A    between atoms: C_13  and  S_14
REMARK    4  A    between atoms: S_14  and  C_15
REMARK    5  A    between atoms: C_19  and  C_23
REMARK    6  A    between atoms: N_21  and  N_22
REMARK    7  A    between atoms: C_26  and  C_29
REMARK                            x       y       z     vdW  Elec       q    Type
REMARK                         _______ _______ _______ _____ _____    ______ ____
ROOT
ATOM      1  C   UNL     1       6.572  -6.604  -0.092  0.00  0.00    +0.272 C 
ATOM      2  N   UNL     1       5.795  -7.061   1.068  0.00  0.00    -0.159 NA
ATOM      3  N   UNL     1       4.965  -7.915   0.741  0.00  0.00    -0.167 NA
ATOM      4  C   UNL     1       5.027  -8.193  -0.699  0.00  0.00    +0.244 C 
ATOM      5  N   UNL     1       5.793  -7.056  -1.273  0.00  0.00    -0.183 NA
ENDROOT
BRANCH   4   6
ATOM      6  C   UNL     1       3.618  -8.244  -1.294  0.00  0.00    +0.195 C 
ATOM      7  C   UNL     1       2.787  -9.315  -0.609  0.00  0.00    +0.035 C 
ATOM      8  C   UNL     1       2.481 -10.171  -1.604  0.00  0.00    +0.091 C 
ATOM      9  N   UNL     1       3.020  -9.747  -2.777  0.00  0.00    -0.154 NA
ATOM     10  N   UNL     1       3.661  -8.692  -2.695  0.00  0.00    -0.176 NA
BRANCH   8  11
ATOM     11  C   UNL     1       1.670 -11.402  -1.441  0.00  0.00    +0.002 A 
ATOM     12  C   UNL     1       1.159 -11.742  -0.190  0.00  0.00    +0.013 A 
ATOM     13  C   UNL     1       0.405 -12.888  -0.043  0.00  0.00    +0.039 A 
ATOM     14  C   UNL     1       0.156 -13.701  -1.138  0.00  0.00    +0.123 A 
ATOM     15  C   UNL     1       0.663 -13.367  -2.383  0.00  0.00    +0.039 A 
ATOM     16  C   UNL     1       1.413 -12.220  -2.540  0.00  0.00    +0.013 A 
ATOM     17  F   UNL     1      -0.582 -14.823  -0.990  0.00  0.00    -0.205 F 
ENDBRANCH   8  11
ENDBRANCH   4   6
BRANCH   5  18
ATOM     18  N   UNL     1       6.676  -7.504  -2.338  0.00  0.00    -0.263 NA
ATOM     19  H   UNL     1       7.291  -6.761  -2.635  0.00  0.00    +0.137 HD
ATOM     20  H   UNL     1       7.202  -8.317  -2.054  0.00  0.00    +0.137 HD
ENDBRANCH   5  18
BRANCH   1  21
ATOM     21  S   UNL     1       6.715  -4.796  -0.085  0.00  0.00    -0.108 S 
BRANCH  21  22
ATOM     22  C   UNL     1       4.995  -4.219  -0.066  0.00  0.00    +0.152 C 
BRANCH  22  23
ATOM     23  C   UNL     1       4.970  -2.713  -0.058  0.00  0.00    +0.173 C 
ATOM     24  O   UNL     1       6.010  -2.089  -0.064  0.00  0.00    -0.291 OA
BRANCH  23  30
ATOM     25  C   UNL     1      -0.016   1.357   0.009  0.00  0.00    +0.001 A 
ATOM     26  C   UNL     1       1.168   2.092   0.002  0.00  0.00    +0.001 A 
ATOM     27  C   UNL     1       2.378   1.468  -0.013  0.00  0.00    +0.008 A 
ATOM     28  C   UNL     1       2.437   0.063  -0.021  0.00  0.00    -0.017 A 
ATOM     29  C   UNL     1       3.667  -0.611  -0.035  0.00  0.00    +0.020 A 
ATOM     30  C   UNL     1       3.684  -1.998  -0.043  0.00  0.00    +0.019 A 
ATOM     31  C   UNL     1       2.479  -2.728  -0.036  0.00  0.00    +0.012 A 
ATOM     32  C   UNL     1       1.281  -2.091  -0.022  0.00  0.00    +0.009 A 
ATOM     33  C   UNL     1       1.231  -0.684  -0.013  0.00  0.00    -0.018 A 
ATOM     34  C   UNL     1       0.002  -0.004   0.002  0.00  0.00    +0.008 A 
ENDBRANCH  23  30
ENDBRANCH  22  23
ENDBRANCH  21  22
ENDBRANCH   1  21
TORSDOF 7
