REMARK  Name = ZINC39992575
REMARK  13 active torsions:
REMARK  status: ('A' for Active; 'I' for Inactive)
REMARK    1  A    between atoms: C_1  and  C_2
REMARK    2  A    between atoms: C_2  and  C_3
REMARK    3  A    between atoms: C_3  and  C_4
REMARK    4  A    between atoms: C_7  and  C_10
REMARK    5  A    between atoms: C_10  and  C_12
REMARK    6  A    between atoms: C_10  and  N_17
REMARK    7  A    between atoms: N_17  and  C_18
REMARK    8  A    between atoms: C_18  and  C_20
REMARK    9  A    between atoms: C_18  and  C_21
REMARK   10  A    between atoms: N_23  and  C_24
REMARK   11  A    between atoms: C_25  and  C_37
REMARK   12  A    between atoms: N_26  and  C_36
REMARK   13  A    between atoms: N_27  and  C_30
REMARK                            x       y       z     vdW  Elec       q    Type
REMARK                         _______ _______ _______ _____ _____    ______ ____
ROOT
ATOM      1  C   UNL     1      -0.963  -8.038  -1.798  0.00  0.00    +0.014 C 
ATOM      2  C   UNL     1      -0.224  -8.876  -2.844  0.00  0.00    -0.004 C 
ENDROOT
BRANCH   1   3
ATOM      3  C   UNL     1      -2.173  -8.794  -1.312  0.00  0.00    +0.203 C 
ATOM      4  O   UNL     1      -3.281  -8.322  -1.453  0.00  0.00    -0.277 OA
ATOM      5  N   UNL     1      -2.023  -9.996  -0.721  0.00  0.00    -0.281 N 
ATOM      6  H   UNL     1      -1.146 -10.408  -0.674  0.00  0.00    +0.155 HD
BRANCH   5   7
ATOM      7  C   UNL     1      -3.141 -10.654  -0.170  0.00  0.00    +0.121 A 
ATOM      8  C   UNL     1      -3.591 -11.885  -0.503  0.00  0.00    +0.059 A 
ATOM      9  N   UNL     1      -4.698 -12.165   0.254  0.00  0.00    -0.282 N 
ATOM     10  N   UNL     1      -4.963 -11.081   1.099  0.00  0.00    -0.216 N 
ATOM     11  C   UNL     1      -4.027 -10.136   0.873  0.00  0.00    +0.293 A 
ATOM     12  O   UNL     1      -3.938  -9.056   1.429  0.00  0.00    -0.264 OA
ATOM     13  C   UNL     1      -5.478 -13.403   0.191  0.00  0.00    +0.171 C 
ATOM     14  C   UNL     1      -2.979 -12.795  -1.536  0.00  0.00    +0.067 C 
BRANCH  10  15
ATOM     15  C   UNL     1      -6.012 -10.995   2.019  0.00  0.00    +0.067 A 
ATOM     16  C   UNL     1      -6.829  -9.872   2.039  0.00  0.00    +0.028 A 
ATOM     17  C   UNL     1      -7.865  -9.790   2.950  0.00  0.00    +0.002 A 
ATOM     18  C   UNL     1      -8.088 -10.823   3.841  0.00  0.00    +0.000 A 
ATOM     19  C   UNL     1      -7.276 -11.943   3.823  0.00  0.00    +0.002 A 
ATOM     20  C   UNL     1      -6.243 -12.034   2.911  0.00  0.00    +0.028 A 
ENDBRANCH  10  15
ENDBRANCH   5   7
ENDBRANCH   1   3
BRANCH   1  21
ATOM     21  N   UNL     1      -1.389  -6.768  -2.400  0.00  0.00    +0.394 N 
ATOM     22  H   UNL     1      -2.081  -6.948  -3.112  0.00  0.00    -0.083 HD
ATOM     23  H   UNL     1      -0.592  -6.308  -2.814  0.00  0.00    -0.083 HD
BRANCH  21  24
ATOM     24  C   UNL     1      -1.969  -5.904  -1.363  0.00  0.00    -0.002 C 
BRANCH  24  28
ATOM     25  C   UNL     1      -3.589  -2.391  -3.173  0.00  0.00    -0.047 A 
ATOM     26  C   UNL     1      -4.265  -3.010  -2.139  0.00  0.00    +0.004 A 
ATOM     27  C   UNL     1      -3.741  -4.147  -1.554  0.00  0.00    +0.002 A 
ATOM     28  C   UNL     1      -2.541  -4.665  -2.002  0.00  0.00    -0.057 A 
ATOM     29  C   UNL     1      -1.865  -4.046  -3.037  0.00  0.00    +0.002 A 
ATOM     30  C   UNL     1      -2.391  -2.912  -3.625  0.00  0.00    +0.004 A 
BRANCH  25  31
ATOM     31  C   UNL     1      -4.160  -1.151  -3.812  0.00  0.00    +0.035 C 
BRANCH  31  33
ATOM     32  C   UNL     1      -5.647  -0.291  -5.626  0.00  0.00    +0.004 C 
ATOM     33  C   UNL     1      -5.067  -1.550  -4.978  0.00  0.00    +0.001 C 
ENDBRANCH  31  33
ENDBRANCH  25  31
ENDBRANCH  24  28
BRANCH  24  34
ATOM     34  C   UNL     1      -0.897  -5.513  -0.378  0.00  0.00    -0.020 A 
ATOM     35  C   UNL     1      -0.973  -5.413   0.972  0.00  0.00    +0.010 A 
ATOM     36  C   UNL     1       0.151  -5.032   1.680  0.00  0.00    +0.008 A 
ATOM     37  C   UNL     1       1.296  -4.770   1.004  0.00  0.00    +0.045 A 
ATOM     38  S   UNL     1       0.804  -5.067  -0.686  0.00  0.00    -0.103 S 
ENDBRANCH  24  34
ENDBRANCH  21  24
ENDBRANCH   1  21
TORSDOF 9
