REMARK  Name = ZINC02884294
REMARK  5 active torsions:
REMARK  status: ('A' for Active; 'I' for Inactive)
REMARK    1  A    between atoms: C_4  and  N_28
REMARK    2  A    between atoms: C_5  and  C_7
REMARK    3  A    between atoms: C_10  and  C_12
REMARK    4  A    between atoms: N_14  and  C_15
REMARK    5  A    between atoms: C_16  and  C_25
REMARK                            x       y       z     vdW  Elec       q    Type
REMARK                         _______ _______ _______ _____ _____    ______ ____
ROOT
ATOM      1  C   UNL     1       2.193   6.802   1.249  0.00  0.00    +0.284 C 
ATOM      2  O   UNL     1       1.885   7.928   0.904  0.00  0.00    -0.266 OA
ATOM      3  N   UNL     1       3.062   6.622   2.263  0.00  0.00    -0.273 N 
ATOM      4  H   UNL     1       3.308   5.725   2.538  0.00  0.00    +0.156 HD
ENDROOT
BRANCH   3   5
ATOM      5  C   UNL     1       3.605   7.719   2.912  0.00  0.00    +0.085 A 
ATOM      6  C   UNL     1       4.502   7.738   3.970  0.00  0.00    +0.068 A 
ATOM      7  C   UNL     1       4.929   9.036   4.473  0.00  0.00    -0.023 A 
ATOM      8  C   UNL     1       4.376  10.098   3.848  0.00  0.00    -0.004 A 
ATOM      9  S   UNL     1       3.323   9.400   2.606  0.00  0.00    -0.077 S 
ATOM     10  C   UNL     1       4.591  11.549   4.147  0.00  0.00    +0.043 C 
ATOM     11  C   UNL     1       6.097  11.827   4.252  0.00  0.00    +0.005 C 
ATOM     12  C   UNL     1       6.527  11.616   5.700  0.00  0.00    +0.001 C 
ATOM     13  C   UNL     1       5.694  10.507   6.339  0.00  0.00    +0.005 C 
ATOM     14  C   UNL     1       5.925   9.184   5.617  0.00  0.00    +0.037 C 
BRANCH   6  15
ATOM     15  C   UNL     1       5.005   6.493   4.559  0.00  0.00    +0.244 C 
ATOM     16  O   UNL     1       6.018   5.980   4.122  0.00  0.00    -0.270 OA
ATOM     17  N   UNL     1       4.346   5.918   5.584  0.00  0.00    -0.325 N 
ATOM     18  H   UNL     1       3.539   6.327   5.932  0.00  0.00    +0.145 HD
ATOM     19  H   UNL     1       4.679   5.095   5.974  0.00  0.00    +0.145 HD
ENDBRANCH   6  15
ENDBRANCH   3   5
BRANCH   1  23
ATOM     20  C   UNL     1       1.173   3.563   0.009  0.00  0.00    +0.138 A 
ATOM     21  C   UNL     1       0.445   4.358  -0.830  0.00  0.00    +0.051 A 
ATOM     22  C   UNL     1       0.724   5.684  -0.485  0.00  0.00    +0.055 A 
ATOM     23  C   UNL     1       1.619   5.643   0.562  0.00  0.00    +0.190 A 
ATOM     24  O   UNL     1       1.872   4.348   0.847  0.00  0.00    -0.450 OA
BRANCH  20  29
ATOM     25  C   UNL     1       0.002  -0.004   0.002  0.00  0.00    +0.001 A 
ATOM     26  C   UNL     1       1.208  -0.683  -0.014  0.00  0.00    +0.002 A 
ATOM     27  C   UNL     1       2.402   0.016  -0.021  0.00  0.00    +0.033 A 
ATOM     28  C   UNL     1       2.398   1.395  -0.013  0.00  0.00    +0.137 A 
ATOM     29  C   UNL     1       1.185   2.086   0.002  0.00  0.00    +0.047 A 
ATOM     30  C   UNL     1      -0.017   1.375   0.010  0.00  0.00    +0.014 A 
BRANCH  28  31
ATOM     31  N   UNL     1       3.677   2.141  -0.020  0.00  0.00    +0.057 N 
ATOM     32  O   UNL     1       4.734   1.536  -0.034  0.00  0.00    -0.126 OA
ATOM     33  O   UNL     1       3.672   3.359  -0.013  0.00  0.00    -0.126 OA
ENDBRANCH  28  31
ENDBRANCH  20  29
ENDBRANCH   1  23
TORSDOF 5
