REMARK  Name = ZINC01791629
REMARK  12 active torsions:
REMARK  status: ('A' for Active; 'I' for Inactive)
REMARK    1  A    between atoms: C_1  and  C_2
REMARK    2  A    between atoms: C_2  and  C_3
REMARK    3  A    between atoms: C_8  and  C_28
REMARK    4  A    between atoms: C_9  and  C_23
REMARK    5  A    between atoms: C_12  and  C_15
REMARK    6  A    between atoms: C_13  and  O_14
REMARK    7  A    between atoms: C_15  and  N_69
REMARK    8  A    between atoms: C_19  and  C_21
REMARK    9  A    between atoms: C_19  and  C_22
REMARK   10  A    between atoms: C_23  and  O_25
REMARK   11  A    between atoms: O_25  and  C_26
REMARK   12  A    between atoms: C_26  and  C_27
REMARK                            x       y       z     vdW  Elec       q    Type
REMARK                         _______ _______ _______ _____ _____    ______ ____
ROOT
ATOM      1  C   UNL     1       4.873   1.118  -0.038  0.00  0.00    -0.005 A 
ATOM      2  C   UNL     1       3.749   1.893  -0.032  0.00  0.00    +0.022 A 
ATOM      3  C   UNL     1       2.490   1.289  -0.019  0.00  0.00    +0.065 A 
ATOM      4  C   UNL     1       1.260   2.099  -0.011  0.00  0.00    +0.203 A 
ATOM      5  O   UNL     1       1.297   3.316  -0.015  0.00  0.00    -0.286 OA
ATOM      6  C   UNL     1      -0.024   1.362   0.002  0.00  0.00    +0.104 A 
ATOM      7  C   UNL     1       0.010  -0.017   0.006  0.00  0.00    +0.225 A 
ATOM      8  O   UNL     1       1.162  -0.702  -0.001  0.00  0.00    -0.447 OA
ATOM      9  C   UNL     1       2.374  -0.114  -0.012  0.00  0.00    +0.144 A 
ATOM     10  C   UNL     1       3.528  -0.886  -0.019  0.00  0.00    +0.021 A 
ATOM     11  C   UNL     1       4.769  -0.272  -0.032  0.00  0.00    +0.125 A 
ENDROOT
BRANCH   6  12
ATOM     12  C   UNL     1      -1.309   2.086   0.003  0.00  0.00    +0.117 A 
ATOM     13  N   UNL     1      -2.530   1.602  -0.090  0.00  0.00    -0.239 NA
ATOM     14  C   UNL     1      -3.620   2.381  -0.070  0.00  0.00    +0.079 A 
ATOM     15  C   UNL     1      -4.978   1.988  -0.157  0.00  0.00    +0.029 A 
ATOM     16  C   UNL     1      -5.974   2.913  -0.128  0.00  0.00    +0.002 A 
ATOM     17  C   UNL     1      -5.706   4.270  -0.013  0.00  0.00    +0.001 A 
ATOM     18  C   UNL     1      -4.395   4.698   0.074  0.00  0.00    +0.017 A 
ATOM     19  C   UNL     1      -3.380   3.773   0.045  0.00  0.00    +0.040 A 
ATOM     20  S   UNL     1      -1.607   3.844   0.125  0.00  0.00    -0.067 S 
ENDBRANCH   6  12
BRANCH   1  22
ATOM     21  C   UNL     1       6.735   1.869  -1.494  0.00  0.00    +0.009 C 
ATOM     22  C   UNL     1       6.233   1.768  -0.052  0.00  0.00    +0.035 C 
ENDBRANCH   1  22
BRANCH  11  23
ATOM     23  O   UNL     1       5.895  -1.031  -0.038  0.00  0.00    -0.506 OA
ATOM     24  H   UNL     1       6.214  -1.254  -0.923  0.00  0.00    +0.292 HD
ENDBRANCH  11  23
BRANCH   7  25
ATOM     25  C   UNL     1      -1.266  -0.764   0.018  0.00  0.00    +0.376 C 
ATOM     26  O   UNL     1      -1.825  -0.994   1.071  0.00  0.00    -0.241 OA
BRANCH  25  27
ATOM     27  O   UNL     1      -1.808  -1.190  -1.140  0.00  0.00    -0.459 OA
BRANCH  27  28
ATOM     28  C   UNL     1      -3.062  -1.917  -1.052  0.00  0.00    +0.229 C 
ATOM     29  C   UNL     1      -3.519  -2.316  -2.456  0.00  0.00    +0.048 C 
ENDBRANCH  27  28
ENDBRANCH  25  27
ENDBRANCH   7  25
BRANCH  10  30
ATOM     30  C   UNL     1       3.430  -2.390  -0.013  0.00  0.00    -0.036 C 
BRANCH  30  38
ATOM     31  C   UNL     1       4.408  -2.227  -2.221  0.00  0.00    -0.078 C 
ATOM     32  C   UNL     1       4.239  -2.655  -3.680  0.00  0.00    -0.018 C 
ATOM     33  C   UNL     1       4.378  -4.177  -3.779  0.00  0.00    +0.003 C 
ATOM     34  C   UNL     1       3.335  -4.837  -2.873  0.00  0.00    -0.050 C 
ATOM     35  C   UNL     1       3.530  -4.345  -1.437  0.00  0.00    -0.072 C 
ATOM     36  C   UNL     1       3.506  -6.356  -2.920  0.00  0.00    +0.009 C 
ATOM     37  C   UNL     1       1.931  -4.464  -3.355  0.00  0.00    +0.009 C 
ATOM     38  N   UNL     1       3.360  -2.877  -1.406  0.00  0.00    +0.383 N 
ATOM     39  H   UNL     1       2.440  -2.639  -1.796  0.00  0.00    -0.081 HD
ENDBRANCH  30  38
ENDBRANCH  10  30
TORSDOF 8
