REMARK  Name = ZINC12166892
REMARK  11 active torsions:
REMARK  status: ('A' for Active; 'I' for Inactive)
REMARK    1  A    between atoms: C_1  and  O_2
REMARK    2  A    between atoms: O_2  and  C_3
REMARK    3  A    between atoms: C_5  and  C_13
REMARK    4  A    between atoms: C_7  and  O_11
REMARK    5  A    between atoms: C_8  and  O_9
REMARK    6  A    between atoms: O_9  and  C_10
REMARK    7  A    between atoms: O_11  and  C_12
REMARK    8  A    between atoms: C_13  and  N_64
REMARK    9  A    between atoms: C_16  and  C_19
REMARK   10  A    between atoms: C_19  and  C_26
REMARK   11  A    between atoms: C_26  and  C_27
REMARK                            x       y       z     vdW  Elec       q    Type
REMARK                         _______ _______ _______ _____ _____    ______ ____
ROOT
ATOM      1  C   UNL     1      -0.731   1.580   1.266  0.00  0.00    -0.078 C 
ATOM      2  C   UNL     1      -0.013   1.086   0.008  0.00  0.00    -0.013 C 
ATOM      3  C   UNL     1      -0.755   1.594  -1.231  0.00  0.00    +0.018 C 
ATOM      4  C   UNL     1      -2.206   1.108  -1.183  0.00  0.00    -0.013 C 
ATOM      5  C   UNL     1      -2.861   1.601   0.109  0.00  0.00    -0.078 C 
ATOM      6  N   UNL     1      -2.115   1.058   1.264  0.00  0.00    +0.382 N 
ATOM      7  H   UNL     1      -2.084   0.034   1.189  0.00  0.00    -0.081 HD
ENDROOT
BRANCH   3   8
ATOM      8  C   UNL     1      -0.076   1.053  -2.491  0.00  0.00    +0.119 C 
ATOM      9  C   UNL     1       0.130  -0.445  -2.384  0.00  0.00    +0.245 C 
ATOM     10  O   UNL     1      -0.726  -1.296  -2.267  0.00  0.00    -0.273 OA
ATOM     11  N   UNL     1       1.463  -0.634  -2.445  0.00  0.00    -0.238 N 
ATOM     12  C   UNL     1       2.121   0.523  -2.574  0.00  0.00    +0.307 C 
ATOM     13  O   UNL     1       3.331   0.609  -2.650  0.00  0.00    -0.252 OA
ATOM     14  N   UNL     1       1.293   1.583  -2.611  0.00  0.00    -0.284 N 
ATOM     15  H   UNL     1       1.893  -1.503  -2.400  0.00  0.00    +0.159 HD
ATOM     16  H   UNL     1       1.548   2.515  -2.699  0.00  0.00    +0.151 HD
BRANCH   8  17
ATOM     17  C   UNL     1      -0.898   1.399  -3.734  0.00  0.00    +0.073 C 
BRANCH  17  18
ATOM     18  C   UNL     1      -0.210   0.855  -4.960  0.00  0.00    -0.010 A 
ATOM     19  C   UNL     1       0.629   1.668  -5.699  0.00  0.00    +0.006 A 
ATOM     20  C   UNL     1       1.265   1.168  -6.820  0.00  0.00    +0.000 A 
ATOM     21  C   UNL     1       1.055  -0.142  -7.208  0.00  0.00    +0.003 A 
ATOM     22  C   UNL     1       0.213  -0.955  -6.474  0.00  0.00    +0.038 A 
ATOM     23  C   UNL     1      -0.420  -0.457  -5.348  0.00  0.00    +0.127 A 
ATOM     24  F   UNL     1      -1.244  -1.250  -4.629  0.00  0.00    -0.205 F 
ENDBRANCH  17  18
ENDBRANCH   8  17
ENDBRANCH   3   8
BRANCH   6  25
ATOM     25  C   UNL     1      -2.794   1.427   2.523  0.00  0.00    -0.043 C 
BRANCH  25  28
ATOM     26  C   UNL     1      -0.184   1.774   5.234  0.00  0.00    +0.165 A 
ATOM     27  C   UNL     1      -1.018   2.065   4.165  0.00  0.00    +0.051 A 
ATOM     28  C   UNL     1      -1.890   1.106   3.685  0.00  0.00    -0.057 A 
ATOM     29  C   UNL     1      -1.937  -0.145   4.271  0.00  0.00    +0.051 A 
ATOM     30  C   UNL     1      -1.103  -0.446   5.336  0.00  0.00    +0.165 A 
ATOM     31  C   UNL     1      -0.225   0.515   5.822  0.00  0.00    +0.204 A 
BRANCH  26  33
ATOM     32  C   UNL     1       0.662   3.989   5.052  0.00  0.00    +0.277 C 
ATOM     33  O   UNL     1       0.673   2.718   5.705  0.00  0.00    -0.491 OA
ENDBRANCH  26  33
BRANCH  31  34
ATOM     34  O   UNL     1       0.593   0.226   6.871  0.00  0.00    -0.488 OA
ATOM     35  C   UNL     1       0.088   0.495   8.180  0.00  0.00    +0.277 C 
ENDBRANCH  31  34
BRANCH  30  36
ATOM     36  O   UNL     1      -1.146  -1.679   5.908  0.00  0.00    -0.491 OA
ATOM     37  C   UNL     1      -2.072  -2.618   5.357  0.00  0.00    +0.277 C 
ENDBRANCH  30  36
ENDBRANCH  25  28
ENDBRANCH   6  25
TORSDOF 8
