REMARK  Name = ZINC36080581
REMARK  9 active torsions:
REMARK  status: ('A' for Active; 'I' for Inactive)
REMARK    1  A    between atoms: C_1  and  C_2
REMARK    2  A    between atoms: C_2  and  C_13
REMARK    3  A    between atoms: N_3  and  N_4
REMARK    4  A    between atoms: C_5  and  C_7
REMARK    5  A    between atoms: C_26  and  C_29
REMARK    6  A    between atoms: C_33  and  O_37
REMARK    7  A    between atoms: C_34  and  O_35
REMARK    8  A    between atoms: O_35  and  C_36
REMARK    9  A    between atoms: O_37  and  C_38
REMARK                            x       y       z     vdW  Elec       q    Type
REMARK                         _______ _______ _______ _____ _____    ______ ____
ROOT
ATOM      1  C   UNL     1      -0.000  -0.734  -1.278  0.00  0.00    -0.002 A 
ATOM      2  C   UNL     1      -0.015  -0.031  -2.486  0.00  0.00    +0.011 A 
ATOM      3  C   UNL     1      -0.023  -0.721  -3.676  0.00  0.00    +0.024 A 
ATOM      4  C   UNL     1      -0.014  -2.116  -3.681  0.00  0.00    +0.031 A 
ATOM      5  C   UNL     1       0.013  -2.820  -2.488  0.00  0.00    -0.019 A 
ATOM      6  C   UNL     1       0.019  -2.129  -1.288  0.00  0.00    +0.015 A 
ATOM      7  C   UNL     1       0.059  -4.321  -2.442  0.00  0.00    +0.049 C 
ATOM      8  C   UNL     1       1.205  -4.723  -1.527  0.00  0.00    -0.023 C 
ATOM      9  C   UNL     1       2.247  -5.090  -2.226  0.00  0.00    -0.030 C 
ATOM     10  C   UNL     1       1.960  -5.003  -3.711  0.00  0.00    +0.033 C 
ATOM     11  C   UNL     1       0.402  -4.952  -3.789  0.00  0.00    +0.029 C 
ATOM     12  C   UNL     1      -0.102  -4.227  -5.002  0.00  0.00    +0.109 C 
ATOM     13  N   UNL     1      -0.038  -2.783  -4.899  0.00  0.00    -0.336 N 
ATOM     14  H   UNL     1      -0.036  -2.258  -5.715  0.00  0.00    +0.147 HD
ENDROOT
BRANCH  12  15
ATOM     15  C   UNL     1       0.739  -4.636  -6.184  0.00  0.00    +0.018 A 
ATOM     16  C   UNL     1       1.823  -3.865  -6.561  0.00  0.00    +0.009 A 
ATOM     17  C   UNL     1       2.596  -4.236  -7.645  0.00  0.00    +0.004 A 
ATOM     18  C   UNL     1       2.288  -5.380  -8.358  0.00  0.00    +0.049 A 
ATOM     19  C   UNL     1       1.202  -6.156  -7.987  0.00  0.00    +0.162 A 
ATOM     20  C   UNL     1       0.428  -5.786  -6.891  0.00  0.00    +0.166 A 
BRANCH  20  21
ATOM     21  O   UNL     1      -0.635  -6.548  -6.519  0.00  0.00    -0.491 OA
ATOM     22  C   UNL     1      -1.897  -6.234  -7.112  0.00  0.00    +0.277 C 
ENDBRANCH  20  21
BRANCH  19  23
ATOM     23  O   UNL     1       0.898  -7.281  -8.687  0.00  0.00    -0.491 OA
ATOM     24  C   UNL     1       1.740  -7.603  -9.796  0.00  0.00    +0.277 C 
ENDBRANCH  19  23
ENDBRANCH  12  15
BRANCH   1  26
ATOM     25  C   UNL     1      -0.018   1.503   0.010  0.00  0.00    +0.068 C 
ATOM     26  C   UNL     1       0.002  -0.004   0.002  0.00  0.00    +0.063 C 
ATOM     27  N   UNL     1       0.022  -0.659   1.123  0.00  0.00    -0.184 NA
BRANCH  27  28
ATOM     28  N   UNL     1       0.024   0.035   2.340  0.00  0.00    -0.203 N 
ATOM     29  C   UNL     1       0.044  -0.645   3.503  0.00  0.00    +0.263 C 
ATOM     30  O   UNL     1       0.060  -1.861   3.497  0.00  0.00    -0.268 OA
ATOM     31  H   UNL     1       0.011   1.005   2.345  0.00  0.00    +0.178 HD
BRANCH  29  32
ATOM     32  C   UNL     1       0.046   0.088   4.790  0.00  0.00    +0.041 A 
ATOM     33  C   UNL     1       0.022   1.486   4.820  0.00  0.00    +0.033 A 
ATOM     34  C   UNL     1       0.025   2.129   6.042  0.00  0.00    +0.111 A 
ATOM     35  N   UNL     1       0.050   1.444   7.168  0.00  0.00    -0.263 NA
ATOM     36  C   UNL     1       0.074   0.126   7.184  0.00  0.00    +0.111 A 
ATOM     37  C   UNL     1       0.067  -0.598   6.008  0.00  0.00    +0.033 A 
ENDBRANCH  29  32
ENDBRANCH  27  28
ENDBRANCH   1  26
TORSDOF 6
