REMARK  Name = ZINC39667396
REMARK  8 active torsions:
REMARK  status: ('A' for Active; 'I' for Inactive)
REMARK    1  A    between atoms: C_1  and  O_2
REMARK    2  A    between atoms: O_2  and  C_3
REMARK    3  A    between atoms: C_6  and  C_10
REMARK    4  A    between atoms: C_14  and  C_23
REMARK    5  A    between atoms: N_25  and  C_26
REMARK    6  A    between atoms: C_26  and  C_27
REMARK    7  A    between atoms: C_30  and  S_33
REMARK    8  A    between atoms: S_33  and  C_34
REMARK                            x       y       z     vdW  Elec       q    Type
REMARK                         _______ _______ _______ _____ _____    ______ ____
ROOT
ATOM      1  C   UNL     1      -4.956  -2.615   0.035  0.00  0.00    +0.247 C 
ATOM      2  O   UNL     1      -5.435  -2.996   1.085  0.00  0.00    -0.270 OA
ATOM      3  N   UNL     1      -5.609  -2.838  -1.123  0.00  0.00    -0.296 N 
ATOM      4  C   UNL     1      -5.133  -2.568  -2.500  0.00  0.00    +0.121 C 
ATOM      5  C   UNL     1      -5.633  -3.772  -3.329  0.00  0.00    +0.100 C 
ATOM      6  C   UNL     1      -6.837  -4.317  -2.542  0.00  0.00    -0.004 C 
ATOM      7  C   UNL     1      -6.963  -3.413  -1.307  0.00  0.00    +0.115 C 
ATOM      8  C   UNL     1      -8.103  -4.236  -3.389  0.00  0.00    -0.010 C 
ATOM      9  C   UNL     1      -9.274  -4.837  -2.607  0.00  0.00    -0.082 C 
ATOM     10  N   UNL     1      -8.975  -6.234  -2.271  0.00  0.00    +0.379 N 
ATOM     11  C   UNL     1      -7.810  -6.297  -1.380  0.00  0.00    -0.082 C 
ATOM     12  C   UNL     1      -6.577  -5.757  -2.111  0.00  0.00    -0.010 C 
ATOM     13  H   UNL     1      -9.772  -6.646  -1.809  0.00  0.00    -0.086 HD
ATOM     14  H   UNL     1      -8.777  -6.747  -3.117  0.00  0.00    -0.086 HD
ENDROOT
BRANCH   1  18
ATOM     15  C   UNL     1      -1.223  -0.588   0.013  0.00  0.00    +0.157 A 
ATOM     16  C   UNL     1      -1.537  -1.451   1.057  0.00  0.00    +0.085 A 
ATOM     17  C   UNL     1      -2.747  -2.110   1.067  0.00  0.00    +0.036 A 
ATOM     18  C   UNL     1      -3.659  -1.911   0.027  0.00  0.00    +0.040 A 
ATOM     19  C   UNL     1      -3.340  -1.042  -1.020  0.00  0.00    +0.036 A 
ATOM     20  C   UNL     1      -2.130  -0.382  -1.021  0.00  0.00    +0.085 A 
ATOM     21 CL   UNL     1      -1.735   0.702  -2.318  0.00  0.00    -0.080 Cl
ATOM     22 CL   UNL     1      -0.403  -1.699   2.348  0.00  0.00    -0.080 Cl
BRANCH  15  24
ATOM     23  C   UNL     1       0.019   1.335   0.651  0.00  0.00    +0.277 C 
ATOM     24  O   UNL     1      -0.030   0.061   0.006  0.00  0.00    -0.492 OA
ENDBRANCH  15  24
ENDBRANCH   1  18
BRANCH   5  25
ATOM     25  C   UNL     1      -6.062  -3.322  -4.702  0.00  0.00    +0.218 C 
ATOM     26  O   UNL     1      -6.419  -2.177  -4.881  0.00  0.00    -0.275 OA
ATOM     27  N   UNL     1      -6.048  -4.192  -5.731  0.00  0.00    -0.311 N 
ATOM     28  H   UNL     1      -5.762  -5.108  -5.588  0.00  0.00    +0.149 HD
BRANCH  27  29
ATOM     29  C   UNL     1      -6.465  -3.755  -7.066  0.00  0.00    +0.139 C 
BRANCH  29  30
ATOM     30  C   UNL     1      -6.357  -4.909  -8.029  0.00  0.00    -0.030 A 
ATOM     31  C   UNL     1      -5.177  -5.127  -8.716  0.00  0.00    +0.006 A 
ATOM     32  C   UNL     1      -5.075  -6.183  -9.599  0.00  0.00    +0.015 A 
ATOM     33  C   UNL     1      -6.161  -7.028  -9.798  0.00  0.00    +0.008 A 
ATOM     34  C   UNL     1      -7.346  -6.806  -9.106  0.00  0.00    +0.015 A 
ATOM     35  C   UNL     1      -7.438  -5.750  -8.220  0.00  0.00    +0.006 A 
BRANCH  33  36
ATOM     36  S   UNL     1      -6.036  -8.376 -10.925  0.00  0.00    -0.129 S 
ATOM     37  C   UNL     1      -7.667  -9.168 -10.844  0.00  0.00    +0.090 C 
ENDBRANCH  33  36
ENDBRANCH  29  30
ENDBRANCH  27  29
ENDBRANCH   5  25
TORSDOF 6
