REMARK  Name = ZINC39634912
REMARK  11 active torsions:
REMARK  status: ('A' for Active; 'I' for Inactive)
REMARK    1  A    between atoms: C_1  and  C_2
REMARK    2  A    between atoms: C_2  and  C_3
REMARK    3  A    between atoms: C_2  and  N_4
REMARK    4  A    between atoms: N_4  and  C_5
REMARK    5  A    between atoms: N_4  and  C_32
REMARK    6  A    between atoms: C_5  and  C_6
REMARK    7  A    between atoms: C_6  and  N_7
REMARK    8  A    between atoms: C_8  and  C_10
REMARK    9  A    between atoms: C_21  and  C_23
REMARK   10  A    between atoms: C_32  and  C_33
REMARK   11  A    between atoms: C_32  and  C_34
REMARK                            x       y       z     vdW  Elec       q    Type
REMARK                         _______ _______ _______ _____ _____    ______ ____
ROOT
ATOM      1  C   UNL     1      -7.757  -0.297  -3.055  0.00  0.00    +0.100 C 
ATOM      2  C   UNL     1      -8.169  -1.611  -3.755  0.00  0.00    +0.121 C 
ATOM      3  N   UNL     1      -9.566  -1.844  -3.321  0.00  0.00    -0.296 N 
ATOM      4  C   UNL     1     -10.183  -0.496  -3.323  0.00  0.00    +0.115 C 
ATOM      5  C   UNL     1      -9.081   0.434  -2.777  0.00  0.00    -0.004 C 
ATOM      6  C   UNL     1      -9.110   1.773  -3.508  0.00  0.00    -0.010 C 
ATOM      7  C   UNL     1     -10.410   2.507  -3.169  0.00  0.00    -0.082 C 
ATOM      8  N   UNL     1     -10.492   2.717  -1.718  0.00  0.00    +0.379 N 
ATOM      9  C   UNL     1     -10.558   1.423  -1.028  0.00  0.00    -0.082 C 
ATOM     10  C   UNL     1      -9.264   0.643  -1.276  0.00  0.00    -0.010 C 
ATOM     11  C   UNL     1     -10.146  -3.017  -2.998  0.00  0.00    +0.252 C 
ATOM     12  O   UNL     1     -11.313  -3.045  -2.658  0.00  0.00    -0.270 OA
ATOM     13  H   UNL     1      -9.676   3.222  -1.406  0.00  0.00    -0.086 HD
ATOM     14  H   UNL     1     -11.319   3.253  -1.503  0.00  0.00    -0.086 HD
ENDROOT
BRANCH  11  15
ATOM     15  C   UNL     1      -9.365  -4.268  -3.057  0.00  0.00    +0.108 A 
ATOM     16  C   UNL     1      -8.665  -4.713  -1.930  0.00  0.00    +0.138 A 
ATOM     17  C   UNL     1      -7.936  -5.886  -1.993  0.00  0.00    +0.041 A 
ATOM     18  C   UNL     1      -7.896  -6.618  -3.166  0.00  0.00    +0.026 A 
ATOM     19  C   UNL     1      -8.585  -6.185  -4.285  0.00  0.00    +0.077 A 
ATOM     20  C   UNL     1      -9.325  -5.016  -4.237  0.00  0.00    +0.156 A 
ATOM     21  F   UNL     1     -10.002  -4.598  -5.329  0.00  0.00    -0.203 F 
ATOM     22 CL   UNL     1      -8.527  -7.113  -5.751  0.00  0.00    -0.081 Cl
ATOM     23  F   UNL     1      -8.702  -4.000  -0.784  0.00  0.00    -0.205 F 
ENDBRANCH  11  15
BRANCH   1  25
ATOM     24  N   UNL     1      -6.186   0.313  -1.244  0.00  0.00    -0.317 N 
ATOM     25  C   UNL     1      -7.039  -0.592  -1.764  0.00  0.00    +0.218 C 
ATOM     26  O   UNL     1      -7.228  -1.645  -1.192  0.00  0.00    -0.275 OA
ATOM     27  H   UNL     1      -6.035   1.155  -1.702  0.00  0.00    +0.149 HD
BRANCH  24  28
ATOM     28  C   UNL     1      -5.488   0.026   0.011  0.00  0.00    +0.085 C 
BRANCH  28  29
ATOM     29  C   UNL     1      -4.588   1.208   0.377  0.00  0.00    -0.059 C 
BRANCH  29  30
ATOM     30  N   UNL     1      -3.871   0.911   1.624  0.00  0.00    +0.384 N 
ATOM     31  H   UNL     1      -4.536   0.678   2.346  0.00  0.00    -0.081 HD
BRANCH  30  33
ATOM     32  C   UNL     1      -4.036   3.277   2.232  0.00  0.00    -0.014 C 
ATOM     33  C   UNL     1      -3.094   2.088   2.034  0.00  0.00    -0.074 C 
ATOM     34  C   UNL     1      -2.369   1.787   3.347  0.00  0.00    -0.014 C 
ENDBRANCH  30  33
BRANCH  30  35
ATOM     35  C   UNL     1      -2.964  -0.224   1.408  0.00  0.00    -0.074 C 
ATOM     36  C   UNL     1      -1.650   0.280   0.808  0.00  0.00    -0.014 C 
ATOM     37  C   UNL     1      -2.683  -0.914   2.744  0.00  0.00    -0.014 C 
ENDBRANCH  30  35
ENDBRANCH  29  30
ENDBRANCH  28  29
ENDBRANCH  24  28
ENDBRANCH   1  25
TORSDOF 7
