REMARK  Name = ZINC18068388
REMARK  6 active torsions:
REMARK  status: ('A' for Active; 'I' for Inactive)
REMARK    1  A    between atoms: C_4  and  C_7
REMARK    2  A    between atoms: C_7  and  N_8
REMARK    3  A    between atoms: C_18  and  N_19
REMARK    4  A    between atoms: N_19  and  C_20
REMARK    5  A    between atoms: C_23  and  S_26
REMARK    6  A    between atoms: S_26  and  N_29
REMARK                            x       y       z     vdW  Elec       q    Type
REMARK                         _______ _______ _______ _____ _____    ______ ____
ROOT
ATOM      1  N   UNL     1       4.174  -0.964   1.330  0.00  0.00    -0.230 N 
ATOM      2  C   UNL     1       4.912  -0.025   1.944  0.00  0.00    +0.254 C 
ATOM      3  O   UNL     1       5.217   0.986   1.341  0.00  0.00    -0.270 OA
ATOM      4  C   UNL     1       5.356  -0.198   3.334  0.00  0.00    +0.045 A 
ATOM      5  C   UNL     1       6.122   0.774   3.979  0.00  0.00    +0.013 A 
ATOM      6  C   UNL     1       6.518   0.574   5.283  0.00  0.00    +0.001 A 
ATOM      7  C   UNL     1       6.164  -0.582   5.963  0.00  0.00    +0.001 A 
ATOM      8  C   UNL     1       5.407  -1.556   5.344  0.00  0.00    +0.009 A 
ATOM      9  C   UNL     1       4.998  -1.372   4.028  0.00  0.00    +0.000 A 
ATOM     10  C   UNL     1       4.186  -2.383   3.318  0.00  0.00    +0.059 C 
ATOM     11  C   UNL     1       3.804  -3.550   3.941  0.00  0.00    +0.085 C 
ATOM     12  C   UNL     1       3.793  -2.102   1.932  0.00  0.00    +0.255 C 
ATOM     13  O   UNL     1       3.120  -2.912   1.321  0.00  0.00    -0.269 OA
ENDROOT
BRANCH  11  14
ATOM     14  N   UNL     1       2.947  -4.404   3.319  0.00  0.00    -0.320 N 
ATOM     15  H   UNL     1       2.663  -4.228   2.408  0.00  0.00    +0.152 HD
BRANCH  14  16
ATOM     16  C   UNL     1       2.475  -5.534   3.992  0.00  0.00    +0.031 A 
ATOM     17  C   UNL     1       2.876  -5.784   5.298  0.00  0.00    +0.025 A 
ATOM     18  C   UNL     1       2.407  -6.901   5.961  0.00  0.00    +0.030 A 
ATOM     19  C   UNL     1       1.540  -7.771   5.325  0.00  0.00    +0.105 A 
ATOM     20  C   UNL     1       1.139  -7.525   4.024  0.00  0.00    +0.030 A 
ATOM     21  C   UNL     1       1.599  -6.406   3.358  0.00  0.00    +0.025 A 
BRANCH  19  22
ATOM     22  S   UNL     1       0.946  -9.196   6.173  0.00  0.00    +0.056 S 
ATOM     23  O   UNL     1       0.579 -10.139   5.175  0.00  0.00    -0.153 OA
ATOM     24  O   UNL     1       1.896  -9.492   7.187  0.00  0.00    -0.153 OA
BRANCH  22  25
ATOM     25  N   UNL     1      -0.451  -8.758   6.947  0.00  0.00    -0.204 NA
ATOM     26  H   UNL     1      -1.150  -9.415   7.096  0.00  0.00    +0.144 HD
ATOM     27  H   UNL     1      -0.571  -7.845   7.252  0.00  0.00    +0.144 HD
ENDBRANCH  22  25
ENDBRANCH  19  22
ENDBRANCH  14  16
ENDBRANCH  11  14
BRANCH   1  28
ATOM     28  C   UNL     1       3.761  -0.733  -0.057  0.00  0.00    +0.152 C 
BRANCH  28  32
ATOM     29  C   UNL     1       0.004   1.300  -0.106  0.00  0.00    +0.000 A 
ATOM     30  C   UNL     1       1.182   2.024  -0.091  0.00  0.00    +0.000 A 
ATOM     31  C   UNL     1       2.397   1.366  -0.075  0.00  0.00    +0.005 A 
ATOM     32  C   UNL     1       2.436  -0.016  -0.073  0.00  0.00    -0.030 A 
ATOM     33  C   UNL     1       1.258  -0.740  -0.087  0.00  0.00    +0.005 A 
ATOM     34  C   UNL     1       0.042  -0.082  -0.104  0.00  0.00    +0.000 A 
ENDBRANCH  28  32
ENDBRANCH   1  28
TORSDOF 6
