REMARK  Name = ZINC33902780
REMARK  14 active torsions:
REMARK  status: ('A' for Active; 'I' for Inactive)
REMARK    1  A    between atoms: C_1  and  C_2
REMARK    2  A    between atoms: C_2  and  C_3
REMARK    3  A    between atoms: C_6  and  C_11
REMARK    4  A    between atoms: N_8  and  C_10
REMARK    5  A    between atoms: N_13  and  C_14
REMARK    6  A    between atoms: C_14  and  C_16
REMARK    7  A    between atoms: C_14  and  C_32
REMARK    8  A    between atoms: C_18  and  O_31
REMARK    9  A    between atoms: C_20  and  O_30
REMARK   10  A    between atoms: C_22  and  O_29
REMARK   11  A    between atoms: C_24  and  S_27
REMARK   12  A    between atoms: S_27  and  C_28
REMARK   13  A    between atoms: C_32  and  C_34
REMARK   14  A    between atoms: C_32  and  O_35
REMARK                            x       y       z     vdW  Elec       q    Type
REMARK                         _______ _______ _______ _____ _____    ______ ____
ROOT
ATOM      1  C   UNL     1       6.581  -0.758  -1.516  0.00  0.00    +0.132 C 
ENDROOT
BRANCH   1   2
ATOM      2  C   UNL     1       7.471   0.228  -2.275  0.00  0.00    +0.173 C 
ATOM      3  C   UNL     1       7.277   0.035  -3.781  0.00  0.00    +0.176 C 
ATOM      4  C   UNL     1       8.215   0.983  -4.535  0.00  0.00    +0.177 C 
ATOM      5  C   UNL     1       9.657   0.714  -4.094  0.00  0.00    +0.184 C 
ATOM      6  C   UNL     1       9.759   0.881  -2.576  0.00  0.00    +0.207 C 
ATOM      7  O   UNL     1       8.839  -0.007  -1.938  0.00  0.00    -0.356 OA
BRANCH   6   8
ATOM      8  S   UNL     1      11.447   0.495  -2.036  0.00  0.00    -0.131 S 
ATOM      9  C   UNL     1      11.441   0.883  -0.264  0.00  0.00    +0.087 C 
ENDBRANCH   6   8
BRANCH   5  10
ATOM     10  O   UNL     1      10.026  -0.619  -4.455  0.00  0.00    -0.386 OA
ATOM     11  H   UNL     1      10.929  -0.859  -4.206  0.00  0.00    +0.210 HD
ENDBRANCH   5  10
BRANCH   4  12
ATOM     12  O   UNL     1       8.093   0.759  -5.941  0.00  0.00    -0.386 OA
ATOM     13  H   UNL     1       8.660   1.327  -6.480  0.00  0.00    +0.210 HD
ENDBRANCH   4  12
BRANCH   3  14
ATOM     14  O   UNL     1       7.581  -1.317  -4.132  0.00  0.00    -0.387 OA
ATOM     15  H   UNL     1       7.479  -1.511  -5.074  0.00  0.00    +0.210 HD
ENDBRANCH   3  14
ENDBRANCH   1   2
BRANCH   1  18
ATOM     16  C   UNL     1       4.276  -1.511  -1.749  0.00  0.00    +0.200 C 
ATOM     17  O   UNL     1       4.625  -2.606  -1.361  0.00  0.00    -0.278 OA
ATOM     18  N   UNL     1       5.178  -0.517  -1.862  0.00  0.00    -0.309 N 
ATOM     19  H   UNL     1       4.899   0.359  -2.173  0.00  0.00    +0.149 HD
BRANCH  16  22
ATOM     20  C   UNL     1       0.718  -0.497  -1.257  0.00  0.00    -0.029 C 
ATOM     21  C   UNL     1       2.232  -0.166  -1.192  0.00  0.00    -0.005 C 
ATOM     22  C   UNL     1       2.833  -1.263  -2.106  0.00  0.00    +0.019 C 
ATOM     23  N   UNL     1       2.018  -2.467  -1.834  0.00  0.00    +0.386 N 
ATOM     24  C   UNL     1       0.699  -2.039  -1.327  0.00  0.00    -0.075 C 
ATOM     25  C   UNL     1       1.842  -3.235  -3.074  0.00  0.00    -0.095 C 
ATOM     26  H   UNL     1       2.480  -3.040  -1.144  0.00  0.00    -0.081 HD
BRANCH  20  28
ATOM     27  C   UNL     1      -0.019   1.526   0.010  0.00  0.00    +0.004 C 
ATOM     28  C   UNL     1       0.002  -0.004   0.002  0.00  0.00    -0.002 C 
ENDBRANCH  20  28
ENDBRANCH  16  22
ENDBRANCH   1  18
BRANCH   1  29
ATOM     29  C   UNL     1       6.775  -0.565  -0.010  0.00  0.00    +0.134 C 
ATOM     30  C   UNL     1       5.885  -1.551   0.749  0.00  0.00    +0.039 C 
BRANCH  29  31
ATOM     31  O   UNL     1       8.143  -0.800   0.328  0.00  0.00    -0.390 OA
ATOM     32  H   UNL     1       8.454  -1.690   0.112  0.00  0.00    +0.210 HD
ENDBRANCH  29  31
ENDBRANCH   1  29
TORSDOF 10
