REMARK  Name = ZINC20719405
REMARK  9 active torsions:
REMARK  status: ('A' for Active; 'I' for Inactive)
REMARK    1  A    between atoms: C_1  and  C_2
REMARK    2  A    between atoms: C_2  and  C_3
REMARK    3  A    between atoms: C_3  and  C_5
REMARK    4  A    between atoms: C_3  and  N_6
REMARK    5  A    between atoms: N_6  and  S_7
REMARK    6  A    between atoms: S_7  and  C_10
REMARK    7  A    between atoms: C_23  and  C_26
REMARK    8  A    between atoms: C_35  and  O_36
REMARK    9  A    between atoms: O_36  and  C_37
REMARK                            x       y       z     vdW  Elec       q    Type
REMARK                         _______ _______ _______ _____ _____    ______ ____
ROOT
ATOM      1  C   UNL     1      -0.508   4.899   2.894  0.00  0.00    +0.106 A 
ATOM      2  C   UNL     1      -1.503   4.012   3.264  0.00  0.00    +0.030 A 
ATOM      3  C   UNL     1      -1.544   2.754   2.697  0.00  0.00    +0.025 A 
ATOM      4  C   UNL     1      -0.589   2.384   1.758  0.00  0.00    +0.031 A 
ATOM      5  C   UNL     1       0.409   3.268   1.386  0.00  0.00    -0.018 A 
ATOM      6  C   UNL     1       0.441   4.530   1.963  0.00  0.00    +0.034 A 
ATOM      7  C   UNL     1       1.472   2.923   0.379  0.00  0.00    +0.049 C 
ATOM      8  C   UNL     1       2.821   3.051   1.075  0.00  0.00    -0.023 C 
ATOM      9  C   UNL     1       3.228   1.882   1.501  0.00  0.00    -0.030 C 
ATOM     10  C   UNL     1       2.216   0.806   1.148  0.00  0.00    +0.033 C 
ATOM     11  C   UNL     1       1.436   1.439  -0.029  0.00  0.00    +0.029 C 
ATOM     12  C   UNL     1       0.020   0.899  -0.098  0.00  0.00    +0.109 C 
ATOM     13  N   UNL     1      -0.649   1.106   1.191  0.00  0.00    -0.336 N 
ATOM     14  H   UNL     1      -1.175   0.272   1.678  0.00  0.00    +0.147 HD
ENDROOT
BRANCH  12  15
ATOM     15  C   UNL     1      -0.740   1.621  -1.180  0.00  0.00    +0.022 A 
ATOM     16  C   UNL     1      -2.143   1.571  -1.211  0.00  0.00    -0.009 A 
ATOM     17  C   UNL     1      -2.869   0.853  -0.244  0.00  0.00    +0.009 A 
ATOM     18  C   UNL     1      -4.228   0.826  -0.305  0.00  0.00    +0.001 A 
ATOM     19  C   UNL     1      -4.915   1.500  -1.313  0.00  0.00    +0.001 A 
ATOM     20  C   UNL     1      -4.246   2.206  -2.265  0.00  0.00    +0.008 A 
ATOM     21  C   UNL     1      -2.842   2.257  -2.236  0.00  0.00    -0.017 A 
ATOM     22  C   UNL     1      -2.119   2.976  -3.204  0.00  0.00    +0.012 A 
ATOM     23  C   UNL     1      -0.760   3.005  -3.146  0.00  0.00    +0.046 A 
ATOM     24  C   UNL     1      -0.069   2.333  -2.133  0.00  0.00    +0.126 A 
BRANCH  24  25
ATOM     25  O   UNL     1       1.288   2.386  -2.099  0.00  0.00    -0.495 OA
ATOM     26  C   UNL     1       1.934   3.146  -3.122  0.00  0.00    +0.277 C 
ENDBRANCH  24  25
ENDBRANCH  12  15
BRANCH   1  27
ATOM     27  S   UNL     1      -0.453   6.505   3.615  0.00  0.00    +0.059 S 
ATOM     28  O   UNL     1       0.248   7.337   2.701  0.00  0.00    -0.153 OA
ATOM     29  O   UNL     1      -1.772   6.799   4.055  0.00  0.00    -0.153 OA
BRANCH  27  30
ATOM     30  N   UNL     1       0.486   6.400   4.975  0.00  0.00    -0.187 NA
ATOM     31  H   UNL     1       0.003   6.409   5.964  0.00  0.00    +0.148 HD
BRANCH  30  32
ATOM     32  C   UNL     1       1.911   6.079   4.859  0.00  0.00    +0.073 C 
ATOM     33  C   UNL     1       2.725   7.373   4.840  0.00  0.00    +0.025 C 
BRANCH  32  35
ATOM     34  C   UNL     1       1.616   3.876   6.001  0.00  0.00    +0.005 C 
ATOM     35  C   UNL     1       2.340   5.223   6.052  0.00  0.00    +0.017 C 
ENDBRANCH  32  35
ENDBRANCH  30  32
ENDBRANCH  27  30
ENDBRANCH   1  27
TORSDOF 6
