REMARK  Name = ZINC30961298
REMARK  10 active torsions:
REMARK  status: ('A' for Active; 'I' for Inactive)
REMARK    1  A    between atoms: C_1  and  C_2
REMARK    2  A    between atoms: C_2  and  C_3
REMARK    3  A    between atoms: C_2  and  C_4
REMARK    4  A    between atoms: C_4  and  C_6
REMARK    5  A    between atoms: C_4  and  N_25
REMARK    6  A    between atoms: N_8  and  N_9
REMARK    7  A    between atoms: C_10  and  C_11
REMARK    8  A    between atoms: C_14  and  N_20
REMARK    9  A    between atoms: C_15  and  N_17
REMARK   10  A    between atoms: C_26  and  C_28
REMARK                            x       y       z     vdW  Elec       q    Type
REMARK                         _______ _______ _______ _____ _____    ______ ____
ROOT
ATOM      1  C   UNL     1      -3.376  -2.132   0.690  0.00  0.00    +0.253 C 
ATOM      2  O   UNL     1      -2.275  -2.358   1.148  0.00  0.00    -0.272 OA
ATOM      3  N   UNL     1      -4.334  -3.078   0.741  0.00  0.00    -0.205 N 
ATOM      4  H   UNL     1      -5.360  -2.840   0.424  0.00  0.00    +0.177 HD
ENDROOT
BRANCH   3   5
ATOM      5  N   UNL     1      -4.023  -4.366   1.197  0.00  0.00    -0.188 NA
ATOM      6  C   UNL     1      -4.935  -5.289   1.206  0.00  0.00    +0.138 C 
BRANCH   6   7
ATOM      7  C   UNL     1      -6.146  -5.137   0.379  0.00  0.00    -0.003 A 
ATOM      8  C   UNL     1      -6.247  -4.077  -0.527  0.00  0.00    +0.011 A 
ATOM      9  C   UNL     1      -7.378  -3.941  -1.301  0.00  0.00    +0.026 A 
ATOM     10  C   UNL     1      -8.423  -4.851  -1.175  0.00  0.00    +0.060 A 
ATOM     11  C   UNL     1      -8.328  -5.903  -0.271  0.00  0.00    +0.148 A 
ATOM     12  C   UNL     1      -7.198  -6.049   0.503  0.00  0.00    +0.044 A 
BRANCH  10  13
ATOM     13  N   UNL     1      -9.569  -4.706  -1.956  0.00  0.00    -0.328 N 
ATOM     14  C   UNL     1     -10.175  -3.363  -1.769  0.00  0.00    +0.105 C 
ATOM     15  C   UNL     1     -11.052  -3.190  -3.034  0.00  0.00    +0.020 C 
ATOM     16  C   UNL     1     -10.198  -3.851  -4.140  0.00  0.00    +0.020 C 
ATOM     17  C   UNL     1      -9.245  -4.805  -3.396  0.00  0.00    +0.105 C 
ENDBRANCH  10  13
BRANCH  11  18
ATOM     18  N   UNL     1      -9.443  -6.868  -0.141  0.00  0.00    +0.058 N 
ATOM     19  O   UNL     1      -9.403  -7.732   0.717  0.00  0.00    -0.126 OA
ATOM     20  O   UNL     1     -10.399  -6.799  -0.891  0.00  0.00    -0.126 OA
ENDBRANCH  11  18
ENDBRANCH   6   7
ENDBRANCH   3   5
BRANCH   1  21
ATOM     21  C   UNL     1      -3.672  -0.793   0.064  0.00  0.00    +0.163 C 
BRANCH  21  22
ATOM     22  N   UNL     1      -2.819   0.230   0.674  0.00  0.00    -0.300 N 
ATOM     23  C   UNL     1      -3.210   1.520   0.675  0.00  0.00    +0.246 C 
ATOM     24  O   UNL     1      -4.270   1.834   0.170  0.00  0.00    -0.270 OA
ATOM     25  H   UNL     1      -1.860  -0.054   1.131  0.00  0.00    +0.150 HD
BRANCH  23  26
ATOM     26  C   UNL     1      -2.350   2.552   1.290  0.00  0.00    +0.055 A 
ATOM     27  C   UNL     1      -1.132   2.194   1.871  0.00  0.00    +0.016 A 
ATOM     28  C   UNL     1      -0.332   3.162   2.439  0.00  0.00    +0.021 A 
ATOM     29  C   UNL     1      -0.736   4.488   2.439  0.00  0.00    +0.042 A 
ATOM     30  C   UNL     1      -1.944   4.849   1.869  0.00  0.00    +0.040 A 
ATOM     31  C   UNL     1      -2.755   3.889   1.297  0.00  0.00    +0.054 A 
ATOM     32 CL   UNL     1      -4.271   4.343   0.583  0.00  0.00    -0.083 Cl
ATOM     33 CL   UNL     1       0.279   5.700   3.157  0.00  0.00    -0.083 Cl
ENDBRANCH  23  26
ENDBRANCH  21  22
BRANCH  21  35
ATOM     34  C   UNL     1      -4.295  -1.917  -2.079  0.00  0.00    +0.009 C 
ATOM     35  C   UNL     1      -3.393  -0.860  -1.439  0.00  0.00    +0.012 C 
ATOM     36  C   UNL     1      -3.676   0.504  -2.071  0.00  0.00    +0.009 C 
ENDBRANCH  21  35
ENDBRANCH   1  21
TORSDOF 8
