REMARK  Name = ZINC14166520
REMARK  8 active torsions:
REMARK  status: ('A' for Active; 'I' for Inactive)
REMARK    1  A    between atoms: C_1  and  C_2
REMARK    2  A    between atoms: C_7  and  N_8
REMARK    3  A    between atoms: N_8  and  C_9
REMARK    4  A    between atoms: N_8  and  S_27
REMARK    5  A    between atoms: C_9  and  C_10
REMARK    6  A    between atoms: N_12  and  N_13
REMARK    7  A    between atoms: C_14  and  C_15
REMARK    8  A    between atoms: S_27  and  C_30
REMARK                            x       y       z     vdW  Elec       q    Type
REMARK                         _______ _______ _______ _____ _____    ______ ____
ROOT
ATOM      1  C   UNL     1      -2.545   5.525   0.328  0.00  0.00    +0.228 C 
ENDROOT
BRANCH   1   2
ATOM      2  C   UNL     1      -2.380   4.028   0.369  0.00  0.00    +0.251 C 
ATOM      3  O   UNL     1      -3.331   3.307   0.155  0.00  0.00    -0.272 OA
ATOM      4  N   UNL     1      -1.175   3.491   0.645  0.00  0.00    -0.206 N 
ATOM      5  H   UNL     1      -0.414   4.067   0.817  0.00  0.00    +0.177 HD
BRANCH   4   6
ATOM      6  N   UNL     1      -1.021   2.099   0.684  0.00  0.00    -0.188 NA
ATOM      7  C   UNL     1       0.140   1.581   0.950  0.00  0.00    +0.139 C 
BRANCH   7   8
ATOM      8  C   UNL     1       0.301   0.119   0.991  0.00  0.00    +0.002 A 
ATOM      9  C   UNL     1       1.539  -0.462   1.262  0.00  0.00    +0.010 A 
ATOM     10  C   UNL     1       1.708  -1.841   1.310  0.00  0.00    +0.005 A 
ATOM     11  C   UNL     1       0.667  -2.692   1.081  0.00  0.00    -0.039 A 
ATOM     12  C   UNL     1      -0.586  -2.156   0.800  0.00  0.00    -0.011 A 
ATOM     13  C   UNL     1      -0.829  -0.773   0.743  0.00  0.00    -0.009 A 
ATOM     14  C   UNL     1      -2.128  -0.342   0.454  0.00  0.00    +0.009 A 
ATOM     15  C   UNL     1      -3.100  -1.279   0.238  0.00  0.00    +0.001 A 
ATOM     16  C   UNL     1      -2.839  -2.649   0.300  0.00  0.00    +0.004 A 
ATOM     17  C   UNL     1      -1.585  -3.100   0.580  0.00  0.00    -0.039 A 
ATOM     18  C   UNL     1      -0.956  -4.464   0.724  0.00  0.00    +0.040 C 
ATOM     19  C   UNL     1       0.528  -4.196   1.054  0.00  0.00    +0.040 C 
ENDBRANCH   7   8
ENDBRANCH   4   6
ENDBRANCH   1   2
BRANCH   1  20
ATOM     20  N   UNL     1      -3.937   5.854   0.010  0.00  0.00    -0.194 N 
BRANCH  20  27
ATOM     21  C   UNL     1      -3.857   8.364  -1.327  0.00  0.00    +0.046 C 
ATOM     22  C   UNL     1      -4.334   7.109  -2.013  0.00  0.00    -0.026 A 
ATOM     23  C   UNL     1      -4.743   7.155  -3.332  0.00  0.00    +0.025 A 
ATOM     24  C   UNL     1      -5.187   6.005  -3.960  0.00  0.00    +0.041 A 
ATOM     25  C   UNL     1      -5.216   4.805  -3.272  0.00  0.00    +0.022 A 
ATOM     26  C   UNL     1      -4.802   4.752  -1.956  0.00  0.00    +0.026 A 
ATOM     27  C   UNL     1      -4.356   5.905  -1.322  0.00  0.00    +0.055 A 
ATOM     28 CL   UNL     1      -5.708   6.068  -5.615  0.00  0.00    -0.084 Cl
ENDBRANCH  20  27
BRANCH  20  29
ATOM     29  S   UNL     1      -5.013   6.166   1.229  0.00  0.00    +0.075 S 
ATOM     30  O   UNL     1      -6.311   6.069   0.659  0.00  0.00    -0.150 OA
ATOM     31  O   UNL     1      -4.608   5.378   2.340  0.00  0.00    -0.150 OA
BRANCH  29  32
ATOM     32  C   UNL     1      -4.794   7.850   1.700  0.00  0.00    +0.109 A 
ATOM     33  C   UNL     1      -3.793   8.194   2.589  0.00  0.00    +0.029 A 
ATOM     34  C   UNL     1      -3.618   9.516   2.954  0.00  0.00    +0.002 A 
ATOM     35  C   UNL     1      -4.450  10.492   2.438  0.00  0.00    +0.000 A 
ATOM     36  C   UNL     1      -5.455  10.146   1.554  0.00  0.00    +0.002 A 
ATOM     37  C   UNL     1      -5.627   8.825   1.184  0.00  0.00    +0.029 A 
ENDBRANCH  29  32
ENDBRANCH  20  29
ENDBRANCH   1  20
TORSDOF 7
