REMARK  Name = ZINC13479725
REMARK  6 active torsions:
REMARK  status: ('A' for Active; 'I' for Inactive)
REMARK    1  A    between atoms: C_1  and  C_2
REMARK    2  A    between atoms: C_2  and  N_44
REMARK    3  A    between atoms: C_9  and  C_21
REMARK    4  A    between atoms: C_11  and  C_19
REMARK    5  A    between atoms: C_13  and  C_14
REMARK    6  A    between atoms: C_13  and  C_16
REMARK                            x       y       z     vdW  Elec       q    Type
REMARK                         _______ _______ _______ _____ _____    ______ ____
ROOT
ATOM      1  C   UNL     1      -0.013   1.084   0.008  0.00  0.00    -0.051 C 
ATOM      2  C   UNL     1      -0.752   1.589  -1.203  0.00  0.00    -0.043 C 
ATOM      3  C   UNL     1      -2.031   1.825  -1.171  0.00  0.00    -0.034 C 
ATOM      4  C   UNL     1      -2.889   1.603   0.046  0.00  0.00    +0.010 C 
ATOM      5  C   UNL     1      -2.090   1.064   1.224  0.00  0.00    -0.070 C 
ATOM      6  C   UNL     1      -3.989   0.600  -0.318  0.00  0.00    +0.050 C 
ATOM      7  C   UNL     1      -4.607   0.939  -1.639  0.00  0.00    +0.146 C 
ATOM      8  C   UNL     1      -4.046   1.704  -2.572  0.00  0.00    +0.065 C 
ATOM      9  C   UNL     1      -2.712   2.376  -2.409  0.00  0.00    +0.202 C 
ATOM     10  N   UNL     1      -4.724   1.890  -3.749  0.00  0.00    -0.304 NA
ATOM     11  H   UNL     1      -5.588   1.469  -3.883  0.00  0.00    +0.186 HD
ATOM     12  N   UNL     1      -0.714   1.588   1.204  0.00  0.00    +0.382 N 
ATOM     13  H   UNL     1      -0.745   2.614   1.167  0.00  0.00    -0.081 HD
ENDROOT
BRANCH   6  14
ATOM     14  C   UNL     1      -5.054   0.625   0.748  0.00  0.00    -0.007 A 
ATOM     15  C   UNL     1      -5.735   1.798   1.017  0.00  0.00    +0.007 A 
ATOM     16  C   UNL     1      -6.716   1.820   1.991  0.00  0.00    +0.000 A 
ATOM     17  C   UNL     1      -7.009   0.673   2.704  0.00  0.00    +0.003 A 
ATOM     18  C   UNL     1      -6.327  -0.499   2.441  0.00  0.00    +0.038 A 
ATOM     19  C   UNL     1      -5.348  -0.524   1.461  0.00  0.00    +0.127 A 
ATOM     20  F   UNL     1      -4.680  -1.669   1.202  0.00  0.00    -0.205 F 
ENDBRANCH   6  14
BRANCH  12  22
ATOM     21  C   UNL     1       1.354   1.890   2.482  0.00  0.00    -0.017 C 
ATOM     22  C   UNL     1       0.005   1.171   2.430  0.00  0.00    -0.082 C 
ENDBRANCH  12  22
BRANCH   9  23
ATOM     23  C   UNL     1      -2.907   3.828  -2.260  0.00  0.00    +0.095 C 
ATOM     24  N   UNL     1      -3.057   4.948  -2.146  0.00  0.00    -0.194 NA
ENDBRANCH   9  23
BRANCH   9  25
ATOM     25  C   UNL     1      -1.877   2.108  -3.591  0.00  0.00    +0.095 C 
ATOM     26  N   UNL     1      -1.233   1.901  -4.504  0.00  0.00    -0.194 NA
ENDBRANCH   9  25
BRANCH   7  27
ATOM     27  C   UNL     1      -5.902   0.398  -1.920  0.00  0.00    +0.072 C 
ATOM     28  N   UNL     1      -6.930  -0.032  -2.143  0.00  0.00    -0.196 NA
ENDBRANCH   7  27
TORSDOF 5
