REMARK  Name = ZINC02386320
REMARK  4 active torsions:
REMARK  status: ('A' for Active; 'I' for Inactive)
REMARK    1  A    between atoms: C_1  and  C_2
REMARK    2  A    between atoms: C_2  and  C_3
REMARK    3  A    between atoms: C_3  and  C_4
REMARK    4  A    between atoms: C_4  and  N_5
REMARK                            x       y       z     vdW  Elec       q    Type
REMARK                         _______ _______ _______ _____ _____    ______ ____
ROOT
ATOM      1  N   UNL     1      -0.698   1.558   1.213  0.00  0.00    -0.220 N 
ATOM      2  C   UNL     1      -1.692   0.937   1.891  0.00  0.00    +0.220 A 
ATOM      3  N   UNL     1      -2.011   1.710   2.906  0.00  0.00    -0.101 NA
ATOM      4  N   UNL     1      -1.286   2.770   2.909  0.00  0.00    -0.022 NA
ATOM      5  N   UNL     1      -0.461   2.751   1.918  0.00  0.00    -0.043 NA
ATOM      6  S   UNL     1      -2.421  -0.616   1.489  0.00  0.00    -0.008 SA
ENDROOT
BRANCH   1   7
ATOM      7  C   UNL     1      -0.013   1.086   0.008  0.00  0.00    +0.148 C 
BRANCH   7   8
ATOM      8  C   UNL     1      -0.753   1.593  -1.232  0.00  0.00    +0.023 C 
BRANCH   8  10
ATOM      9  C   UNL     1      -0.777   1.606  -3.730  0.00  0.00    +0.004 C 
ATOM     10  C   UNL     1      -0.037   1.099  -2.490  0.00  0.00    -0.002 C 
ENDBRANCH   8  10
ENDBRANCH   7   8
ENDBRANCH   1   7
TORSDOF 3
