REMARK  Name = ZINC19897619
REMARK  3 active torsions:
REMARK  status: ('A' for Active; 'I' for Inactive)
REMARK    1  A    between atoms: C_12  and  N_26
REMARK    2  A    between atoms: C_13  and  C_24
REMARK    3  A    between atoms: C_14  and  C_16
REMARK                            x       y       z     vdW  Elec       q    Type
REMARK                         _______ _______ _______ _____ _____    ______ ____
ROOT
ATOM      1  C   UNL     1      -1.220   1.753   0.017  0.00  0.00    +0.000 A 
ATOM      2  C   UNL     1      -1.246   3.136   0.030  0.00  0.00    +0.001 A 
ATOM      3  C   UNL     1      -0.066   3.853   0.017  0.00  0.00    +0.012 A 
ATOM      4  C   UNL     1       1.150   3.176  -0.005  0.00  0.00    +0.020 A 
ATOM      5  C   UNL     1       1.171   1.782   0.001  0.00  0.00    -0.036 A 
ATOM      6  C   UNL     1      -0.013   1.076   0.008  0.00  0.00    +0.004 A 
ATOM      7  C   UNL     1       2.497   1.067   0.015  0.00  0.00    +0.040 C 
ATOM      8  C   UNL     1       3.507   1.843  -0.825  0.00  0.00    +0.040 C 
ATOM      9  C   UNL     1       3.542   3.296  -0.421  0.00  0.00    -0.014 C 
ATOM     10  C   UNL     1       2.430   3.923  -0.052  0.00  0.00    +0.138 C 
ATOM     11  O   UNL     1       2.433   5.236   0.285  0.00  0.00    -0.441 OA
ATOM     12  C   UNL     1       3.444   6.031  -0.103  0.00  0.00    +0.199 C 
ATOM     13  C   UNL     1       4.642   5.508  -0.467  0.00  0.00    +0.098 C 
ATOM     14  C   UNL     1       4.864   4.022  -0.447  0.00  0.00    +0.095 C 
ENDROOT
BRANCH  14  15
ATOM     15  C   UNL     1       5.660   3.653   0.779  0.00  0.00    -0.017 A 
ATOM     16  C   UNL     1       5.156   3.925   2.037  0.00  0.00    +0.007 A 
ATOM     17  C   UNL     1       5.883   3.582   3.162  0.00  0.00    +0.020 A 
ATOM     18  C   UNL     1       7.120   2.976   3.028  0.00  0.00    +0.042 A 
ATOM     19  C   UNL     1       7.626   2.708   1.770  0.00  0.00    +0.040 A 
ATOM     20  C   UNL     1       6.896   3.047   0.644  0.00  0.00    +0.046 A 
ATOM     21 CL   UNL     1       7.531   2.712  -0.936  0.00  0.00    -0.083 Cl
ATOM     22 CL   UNL     1       8.035   2.551   4.441  0.00  0.00    -0.083 Cl
ENDBRANCH  14  15
BRANCH  12  23
ATOM     23  N   UNL     1       3.263   7.391  -0.132  0.00  0.00    -0.328 N 
ATOM     24  H   UNL     1       4.085   8.049  -0.448  0.00  0.00    +0.145 HD
ATOM     25  H   UNL     1       2.295   7.823   0.162  0.00  0.00    +0.145 HD
ENDBRANCH  12  23
BRANCH  13  26
ATOM     26  C   UNL     1       5.703   6.379  -0.875  0.00  0.00    +0.101 C 
ATOM     27  N   UNL     1       6.545   7.070  -1.198  0.00  0.00    -0.191 NA
ENDBRANCH  13  26
TORSDOF 3
