REMARK  Name = ZINC14749099
REMARK  8 active torsions:
REMARK  status: ('A' for Active; 'I' for Inactive)
REMARK    1  A    between atoms: C_4  and  C_7
REMARK    2  A    between atoms: C_7  and  C_8
REMARK    3  A    between atoms: C_8  and  N_9
REMARK    4  A    between atoms: N_12  and  C_32
REMARK    5  A    between atoms: C_20  and  C_21
REMARK    6  A    between atoms: C_20  and  N_66
REMARK    7  A    between atoms: C_26  and  C_27
REMARK    8  A    between atoms: C_32  and  C_33
REMARK                            x       y       z     vdW  Elec       q    Type
REMARK                         _______ _______ _______ _____ _____    ______ ____
ROOT
ATOM      1  N   UNL     1      -1.628  -5.001   1.985  0.00  0.00    -0.271 N 
ATOM      2  C   UNL     1      -1.792  -6.051   2.814  0.00  0.00    +0.312 C 
ATOM      3  O   UNL     1      -1.784  -7.209   2.446  0.00  0.00    -0.252 OA
ATOM      4  N   UNL     1      -1.966  -5.674   4.087  0.00  0.00    -0.215 N 
ATOM      5  C   UNL     1      -1.931  -4.332   4.216  0.00  0.00    +0.247 C 
ATOM      6  O   UNL     1      -2.058  -3.689   5.237  0.00  0.00    -0.273 OA
ATOM      7  C   UNL     1      -1.704  -3.797   2.822  0.00  0.00    +0.112 C 
ATOM      8  C   UNL     1      -2.873  -2.918   2.389  0.00  0.00    +0.017 C 
ATOM      9  C   UNL     1      -2.602  -2.370   0.985  0.00  0.00    -0.076 C 
ATOM     10  C   UNL     1      -0.205  -2.466   1.340  0.00  0.00    -0.076 C 
ATOM     11  C   UNL     1      -0.395  -3.016   2.756  0.00  0.00    +0.017 C 
ATOM     12  N   UNL     1      -1.348  -1.587   1.011  0.00  0.00    +0.383 N 
ATOM     13  H   UNL     1      -1.425  -0.859   1.731  0.00  0.00    -0.081 HD
ENDROOT
BRANCH   1  14
ATOM     14  C   UNL     1      -1.415  -5.052   0.537  0.00  0.00    +0.115 C 
BRANCH  14  15
ATOM     15  C   UNL     1      -2.672  -5.598  -0.144  0.00  0.00    +0.054 C 
BRANCH  15  19
ATOM     16  C   UNL     1      -2.177  -5.440  -4.384  0.00  0.00    +0.000 A 
ATOM     17  C   UNL     1      -1.877  -6.601  -3.696  0.00  0.00    +0.000 A 
ATOM     18  C   UNL     1      -2.037  -6.652  -2.324  0.00  0.00    +0.004 A 
ATOM     19  C   UNL     1      -2.497  -5.542  -1.640  0.00  0.00    -0.046 A 
ATOM     20  C   UNL     1      -2.802  -4.383  -2.329  0.00  0.00    +0.004 A 
ATOM     21  C   UNL     1      -2.637  -4.331  -3.700  0.00  0.00    +0.000 A 
ENDBRANCH  15  19
ENDBRANCH  14  15
ENDBRANCH   1  14
BRANCH  12  22
ATOM     22  C   UNL     1      -1.128  -0.943  -0.301  0.00  0.00    -0.042 C 
BRANCH  22  23
ATOM     23  C   UNL     1      -2.039   0.252  -0.409  0.00  0.00    -0.053 A 
ATOM     24  C   UNL     1      -3.173   0.189  -1.192  0.00  0.00    +0.002 A 
ATOM     25  C   UNL     1      -4.010   1.286  -1.292  0.00  0.00    +0.000 A 
ATOM     26  C   UNL     1      -3.716   2.453  -0.609  0.00  0.00    +0.001 A 
ATOM     27  C   UNL     1      -2.585   2.530   0.177  0.00  0.00    +0.012 A 
ATOM     28  C   UNL     1      -1.737   1.427   0.283  0.00  0.00    +0.019 A 
BRANCH  28  29
ATOM     29  C   UNL     1      -0.524   1.501   1.124  0.00  0.00    +0.135 A 
ATOM     30  C   UNL     1       0.464   2.430   1.019  0.00  0.00    +0.050 A 
ATOM     31  C   UNL     1       1.416   2.124   2.012  0.00  0.00    +0.042 A 
ATOM     32  C   UNL     1       0.967   1.035   2.667  0.00  0.00    +0.196 A 
ATOM     33  O   UNL     1      -0.207   0.665   2.131  0.00  0.00    -0.463 OA
ENDBRANCH  28  29
ENDBRANCH  22  23
ENDBRANCH  12  22
BRANCH   4  34
ATOM     34  C   UNL     1      -2.168  -6.604   5.200  0.00  0.00    +0.213 C 
BRANCH  34  35
ATOM     35  C   UNL     1      -3.641  -6.868   5.373  0.00  0.00    +0.228 C 
ATOM     36  O   UNL     1      -4.444  -6.331   4.639  0.00  0.00    -0.274 OA
ATOM     37  N   UNL     1      -4.067  -7.699   6.345  0.00  0.00    -0.328 N 
ATOM     38  H   UNL     1      -3.426  -8.129   6.932  0.00  0.00    +0.145 HD
ATOM     39  H   UNL     1      -5.016  -7.869   6.456  0.00  0.00    +0.145 HD
ENDBRANCH  34  35
ENDBRANCH   4  34
TORSDOF 8
