REMARK  Name = ZINC35664221
REMARK  14 active torsions:
REMARK  status: ('A' for Active; 'I' for Inactive)
REMARK    1  A    between atoms: C_1  and  C_2
REMARK    2  A    between atoms: C_2  and  N_3
REMARK    3  A    between atoms: N_10  and  C_13
REMARK    4  A    between atoms: C_13  and  C_14
REMARK    5  A    between atoms: C_15  and  C_33
REMARK    6  A    between atoms: C_16  and  C_23
REMARK    7  A    between atoms: N_21  and  C_22
REMARK    8  A    between atoms: C_27  and  O_31
REMARK    9  A    between atoms: C_28  and  O_29
REMARK   10  A    between atoms: O_29  and  C_30
REMARK   11  A    between atoms: O_31  and  C_32
REMARK   12  A    between atoms: C_33  and  O_35
REMARK   13  A    between atoms: O_35  and  C_36
REMARK   14  A    between atoms: C_36  and  C_37
REMARK                            x       y       z     vdW  Elec       q    Type
REMARK                         _______ _______ _______ _____ _____    ______ ____
ROOT
ATOM      1  C   UNL     1      -4.050  -6.025  -3.073  0.00  0.00    +0.010 C 
ATOM      2  C   UNL     1      -5.292  -6.347  -3.493  0.00  0.00    +0.077 C 
ATOM      3  C   UNL     1      -5.631  -7.817  -3.630  0.00  0.00    +0.147 C 
ATOM      4  N   UNL     1      -4.571  -8.781  -3.291  0.00  0.00    -0.288 N 
ATOM      5  C   UNL     1      -3.377  -8.305  -2.885  0.00  0.00    +0.307 C 
ATOM      6  O   UNL     1      -2.495  -9.092  -2.603  0.00  0.00    -0.252 OA
ATOM      7  N   UNL     1      -3.129  -6.993  -2.787  0.00  0.00    -0.264 N 
ATOM      8  C   UNL     1      -1.799  -6.572  -2.342  0.00  0.00    +0.139 C 
ATOM      9  H   UNL     1      -4.727  -9.736  -3.359  0.00  0.00    +0.151 HD
ENDROOT
BRANCH   3  10
ATOM     10  C   UNL     1      -6.047  -8.067  -5.057  0.00  0.00    +0.023 A 
ATOM     11  C   UNL     1      -5.755  -7.135  -6.035  0.00  0.00    +0.009 A 
ATOM     12  C   UNL     1      -6.135  -7.361  -7.345  0.00  0.00    +0.004 A 
ATOM     13  C   UNL     1      -6.808  -8.521  -7.683  0.00  0.00    +0.049 A 
ATOM     14  C   UNL     1      -7.103  -9.459  -6.707  0.00  0.00    +0.162 A 
ATOM     15  C   UNL     1      -6.715  -9.234  -5.389  0.00  0.00    +0.167 A 
BRANCH  15  16
ATOM     16  O   UNL     1      -6.998 -10.155  -4.429  0.00  0.00    -0.491 OA
ATOM     17  C   UNL     1      -8.293 -10.089  -3.828  0.00  0.00    +0.277 C 
ENDBRANCH  15  16
BRANCH  14  18
ATOM     18  O   UNL     1      -7.765 -10.600  -7.037  0.00  0.00    -0.491 OA
ATOM     19  C   UNL     1      -8.127 -10.766  -8.410  0.00  0.00    +0.277 C 
ENDBRANCH  14  18
ENDBRANCH   3  10
BRANCH   2  20
ATOM     20  C   UNL     1      -6.244  -5.345  -3.795  0.00  0.00    +0.339 C 
ATOM     21  O   UNL     1      -5.943  -4.170  -3.699  0.00  0.00    -0.245 OA
BRANCH  20  22
ATOM     22  O   UNL     1      -7.487  -5.693  -4.189  0.00  0.00    -0.462 OA
BRANCH  22  23
ATOM     23  C   UNL     1      -8.362  -4.635  -4.585  0.00  0.00    +0.229 C 
ATOM     24  C   UNL     1      -9.750  -5.205  -4.883  0.00  0.00    +0.048 C 
ENDBRANCH  22  23
ENDBRANCH  20  22
ENDBRANCH   2  20
BRANCH   1  25
ATOM     25  C   UNL     1      -3.670  -4.574  -2.923  0.00  0.00    -0.026 C 
BRANCH  25  33
ATOM     26  N   UNL     1      -1.885  -4.020   2.132  0.00  0.00    -0.300 N 
ATOM     27  C   UNL     1      -2.632  -2.936   1.842  0.00  0.00    +0.302 C 
ATOM     28  O   UNL     1      -2.287  -1.838   2.234  0.00  0.00    -0.253 OA
ATOM     29  N   UNL     1      -3.760  -3.070   1.117  0.00  0.00    -0.287 N 
ATOM     30  C   UNL     1      -4.495  -1.854   0.713  0.00  0.00    +0.107 C 
ATOM     31  C   UNL     1      -4.994  -1.965  -0.739  0.00  0.00    +0.000 C 
ATOM     32  C   UNL     1      -3.930  -2.626  -1.588  0.00  0.00    -0.077 C 
ATOM     33  N   UNL     1      -4.183  -4.064  -1.645  0.00  0.00    +0.384 N 
ATOM     34  C   UNL     1      -3.598  -4.813  -0.599  0.00  0.00    -0.059 C 
ATOM     35  C   UNL     1      -4.205  -4.400   0.756  0.00  0.00    +0.091 C 
ATOM     36  H   UNL     1      -2.196  -4.904   1.883  0.00  0.00    +0.150 HD
ATOM     37  H   UNL     1      -5.180  -4.213  -1.623  0.00  0.00    -0.081 HD
BRANCH  26  39
ATOM     38  C   UNL     1       0.036  -5.237   3.032  0.00  0.00    +0.024 C 
ATOM     39  C   UNL     1      -0.604  -3.863   2.826  0.00  0.00    +0.102 C 
ENDBRANCH  26  39
ENDBRANCH  25  33
ENDBRANCH   1  25
TORSDOF 9
