REMARK  Name = ZINC63172378
REMARK  11 active torsions:
REMARK  status: ('A' for Active; 'I' for Inactive)
REMARK    1  A    between atoms: C_1  and  C_2
REMARK    2  A    between atoms: C_2  and  C_3
REMARK    3  A    between atoms: C_2  and  C_4
REMARK    4  A    between atoms: C_2  and  C_5
REMARK    5  A    between atoms: C_15  and  N_23
REMARK    6  A    between atoms: C_17  and  C_19
REMARK    7  A    between atoms: C_19  and  O_21
REMARK    8  A    between atoms: O_21  and  C_22
REMARK    9  A    between atoms: C_24  and  C_26
REMARK   10  A    between atoms: C_26  and  S_27
REMARK   11  A    between atoms: S_27  and  C_28
REMARK                            x       y       z     vdW  Elec       q    Type
REMARK                         _______ _______ _______ _____ _____    ______ ____
ROOT
ATOM      1  C   UNL     1       0.686  -0.621  -1.173  0.00  0.00    -0.004 C 
ATOM      2  C   UNL     1       0.761  -2.146  -1.060  0.00  0.00    +0.004 C 
ATOM      3  C   UNL     1       1.397  -2.702  -2.334  0.00  0.00    +0.006 C 
ATOM      4  C   UNL     1       2.791  -2.138  -2.531  0.00  0.00    +0.018 C 
ATOM      5  C   UNL     1       2.788  -0.594  -2.545  0.00  0.00    +0.053 C 
ATOM      6  C   UNL     1       2.102  -0.059  -1.287  0.00  0.00    +0.018 C 
ATOM      7  S   UNL     1       4.602  -0.289  -2.349  0.00  0.00    -0.134 S 
ATOM      8  C   UNL     1       5.006  -1.757  -1.312  0.00  0.00    +0.145 C 
ATOM      9  C   UNL     1       3.787  -2.672  -1.514  0.00  0.00    +0.132 C 
ENDROOT
BRANCH   1  11
ATOM     10  C   UNL     1      -0.064   1.477  -0.041  0.00  0.00    +0.011 C 
ATOM     11  C   UNL     1       0.006  -0.047   0.072  0.00  0.00    -0.035 C 
ATOM     12  C   UNL     1       0.811  -0.430   1.315  0.00  0.00    +0.011 C 
ATOM     13  C   UNL     1      -1.410  -0.615   0.186  0.00  0.00    +0.011 C 
ENDBRANCH   1  11
BRANCH   8  14
ATOM     14  N   UNL     1       6.237  -2.399  -1.781  0.00  0.00    -0.302 N 
ATOM     15  C   UNL     1       7.350  -2.357  -1.023  0.00  0.00    +0.224 C 
ATOM     16  O   UNL     1       7.310  -1.868   0.086  0.00  0.00    -0.275 OA
ATOM     17  H   UNL     1       6.251  -2.854  -2.638  0.00  0.00    +0.150 HD
BRANCH  15  18
ATOM     18  C   UNL     1       8.645  -2.917  -1.553  0.00  0.00    +0.168 C 
BRANCH  18  19
ATOM     19  S   UNL     1       9.947  -2.712  -0.307  0.00  0.00    -0.106 S 
BRANCH  19  20
ATOM     20  C   UNL     1      11.420  -3.427  -1.090  0.00  0.00    +0.236 C 
ATOM     21  N   UNL     1      11.160  -4.820  -1.475  0.00  0.00    -0.355 N 
ATOM     22  C   UNL     1      11.301  -4.900  -2.767  0.00  0.00    +0.061 A 
ATOM     23  C   UNL     1      11.173  -6.013  -3.718  0.00  0.00    +0.027 A 
ATOM     24  C   UNL     1      11.383  -5.792  -5.032  0.00  0.00    +0.002 A 
ATOM     25  C   UNL     1      11.725  -4.527  -5.543  0.00  0.00    +0.002 A 
ATOM     26  C   UNL     1      11.868  -3.441  -4.758  0.00  0.00    +0.027 A 
ATOM     27  C   UNL     1      11.663  -3.562  -3.308  0.00  0.00    +0.061 A 
ATOM     28  N   UNL     1      11.731  -2.705  -2.330  0.00  0.00    -0.355 N 
ATOM     29  H   UNL     1      10.926  -5.547  -0.877  0.00  0.00    +0.162 HD
ATOM     30  H   UNL     1      11.948  -1.763  -2.406  0.00  0.00    +0.162 HD
ENDBRANCH  19  20
ENDBRANCH  18  19
ENDBRANCH  15  18
ENDBRANCH   8  14
BRANCH   9  31
ATOM     31  C   UNL     1       4.281  -4.017  -1.980  0.00  0.00    +0.313 C 
ATOM     32  O   UNL     1       3.872  -4.486  -3.016  0.00  0.00    -0.250 OA
BRANCH  31  33
ATOM     33  O   UNL     1       5.176  -4.695  -1.244  0.00  0.00    -0.468 OA
ATOM     34  C   UNL     1       5.601  -5.963  -1.746  0.00  0.00    +0.280 C 
ENDBRANCH  31  33
ENDBRANCH   9  31
TORSDOF 7
