REMARK  Name = ZINC39655918
REMARK  6 active torsions:
REMARK  status: ('A' for Active; 'I' for Inactive)
REMARK    1  A    between atoms: C_1  and  C_2
REMARK    2  A    between atoms: C_8  and  C_11
REMARK    3  A    between atoms: C_11  and  C_12
REMARK    4  A    between atoms: C_12  and  N_13
REMARK    5  A    between atoms: C_14  and  C_16
REMARK    6  A    between atoms: C_27  and  C_29
REMARK                            x       y       z     vdW  Elec       q    Type
REMARK                         _______ _______ _______ _____ _____    ______ ____
ROOT
ATOM      1  C   UNL     1       4.076  -0.091  -7.935  0.00  0.00    +0.100 C 
ATOM      2  C   UNL     1       4.508   0.829  -9.099  0.00  0.00    +0.121 C 
ATOM      3  N   UNL     1       5.455   0.011  -9.891  0.00  0.00    -0.296 N 
ATOM      4  C   UNL     1       4.866  -1.349  -9.881  0.00  0.00    +0.115 C 
ATOM      5  C   UNL     1       4.312  -1.520  -8.453  0.00  0.00    -0.004 C 
ATOM      6  C   UNL     1       2.997  -2.293  -8.486  0.00  0.00    -0.010 C 
ATOM      7  C   UNL     1       3.266  -3.728  -8.948  0.00  0.00    -0.082 C 
ATOM      8  N   UNL     1       4.212  -4.371  -8.029  0.00  0.00    +0.379 N 
ATOM      9  C   UNL     1       5.504  -3.676  -8.073  0.00  0.00    -0.082 C 
ATOM     10  C   UNL     1       5.330  -2.239  -7.574  0.00  0.00    -0.010 C 
ATOM     11  C   UNL     1       6.596   0.412 -10.487  0.00  0.00    +0.247 C 
ATOM     12  O   UNL     1       7.017   1.537 -10.297  0.00  0.00    -0.270 OA
ATOM     13  H   UNL     1       3.844  -4.335  -7.090  0.00  0.00    -0.086 HD
ATOM     14  H   UNL     1       4.340  -5.335  -8.300  0.00  0.00    -0.086 HD
ENDROOT
BRANCH  11  15
ATOM     15  C   UNL     1       7.335  -0.515 -11.369  0.00  0.00    +0.037 A 
ATOM     16  C   UNL     1       6.683  -1.612 -11.936  0.00  0.00    +0.014 A 
ATOM     17  C   UNL     1       7.378  -2.473 -12.759  0.00  0.00    +0.016 A 
ATOM     18  C   UNL     1       8.719  -2.252 -13.023  0.00  0.00    +0.018 A 
ATOM     19  C   UNL     1       9.371  -1.166 -12.464  0.00  0.00    +0.016 A 
ATOM     20  C   UNL     1       8.685  -0.294 -11.644  0.00  0.00    +0.014 A 
ATOM     21 BR   UNL     1       9.664  -3.439 -14.152  0.00  0.00    -0.050 Br
ENDBRANCH  11  15
BRANCH   1  23
ATOM     22  N   UNL     1       2.172  -0.066  -6.356  0.00  0.00    -0.315 N 
ATOM     23  C   UNL     1       2.619   0.117  -7.614  0.00  0.00    +0.218 C 
ATOM     24  O   UNL     1       1.847   0.451  -8.489  0.00  0.00    -0.275 OA
ATOM     25  H   UNL     1       2.790  -0.333  -5.656  0.00  0.00    +0.149 HD
BRANCH  22  26
ATOM     26  C   UNL     1       0.755   0.136  -6.044  0.00  0.00    +0.109 C 
BRANCH  26  27
ATOM     27  C   UNL     1       0.516  -0.136  -4.557  0.00  0.00    +0.056 C 
BRANCH  27  35
ATOM     28  C   UNL     1      -3.313  -4.323  -5.340  0.00  0.00    +0.044 C 
ATOM     29  C   UNL     1      -3.260  -2.896  -4.859  0.00  0.00    -0.050 A 
ATOM     30  C   UNL     1      -4.425  -2.266  -4.444  0.00  0.00    +0.005 A 
ATOM     31  C   UNL     1      -4.399  -0.962  -4.001  0.00  0.00    +0.026 A 
ATOM     32  C   UNL     1      -3.195  -0.267  -3.968  0.00  0.00    +0.047 A 
ATOM     33  N   UNL     1      -2.846   1.010  -3.590  0.00  0.00    -0.360 N 
ATOM     34  C   UNL     1      -1.501   1.194  -3.757  0.00  0.00    +0.087 A 
ATOM     35  C   UNL     1      -0.941   0.072  -4.237  0.00  0.00    -0.021 A 
ATOM     36  C   UNL     1      -2.016  -0.911  -4.390  0.00  0.00    +0.003 A 
ATOM     37  C   UNL     1      -2.065  -2.235  -4.830  0.00  0.00    +0.013 A 
ATOM     38  H   UNL     1      -3.463   1.680  -3.256  0.00  0.00    +0.165 HD
ENDBRANCH  27  35
ENDBRANCH  26  27
ENDBRANCH  22  26
ENDBRANCH   1  23
TORSDOF 5
