REMARK  Name = ZINC36313634
REMARK  12 active torsions:
REMARK  status: ('A' for Active; 'I' for Inactive)
REMARK    1  A    between atoms: C_1  and  C_2
REMARK    2  A    between atoms: C_2  and  C_3
REMARK    3  A    between atoms: C_2  and  C_4
REMARK    4  A    between atoms: C_4  and  C_5
REMARK    5  A    between atoms: C_5  and  N_6
REMARK    6  A    between atoms: N_6  and  C_7
REMARK    7  A    between atoms: N_6  and  C_24
REMARK    8  A    between atoms: C_7  and  C_8
REMARK    9  A    between atoms: C_24  and  C_25
REMARK   10  A    between atoms: C_25  and  C_26
REMARK   11  A    between atoms: C_25  and  C_27
REMARK   12  A    between atoms: C_25  and  O_29
REMARK                            x       y       z     vdW  Elec       q    Type
REMARK                         _______ _______ _______ _____ _____    ______ ____
ROOT
ATOM      1  C   UNL     1      -4.357  -3.008  -0.801  0.00  0.00    +0.094 A 
ATOM      2  N   UNL     1      -4.438  -3.983  -1.743  0.00  0.00    -0.312 N 
ATOM      3  H   UNL     1      -3.637  -4.252  -2.219  0.00  0.00    +0.170 HD
ATOM      4  C   UNL     1      -5.608  -4.585  -2.029  0.00  0.00    +0.260 A 
ATOM      5  O   UNL     1      -5.665  -5.458  -2.877  0.00  0.00    -0.267 OA
ATOM      6  C   UNL     1      -6.786  -4.180  -1.318  0.00  0.00    +0.075 A 
ATOM      7  C   UNL     1      -8.152  -4.692  -1.464  0.00  0.00    -0.023 A 
ATOM      8  C   UNL     1      -9.094  -4.137  -0.673  0.00  0.00    -0.004 A 
ATOM      9  S   UNL     1      -8.230  -2.931   0.300  0.00  0.00    -0.073 S 
ATOM     10  C   UNL     1      -6.603  -3.168  -0.365  0.00  0.00    +0.116 A 
ATOM     11  N   UNL     1      -5.411  -2.623  -0.133  0.00  0.00    -0.229 NA
ATOM     12  C   UNL     1     -10.557  -4.452  -0.628  0.00  0.00    +0.043 C 
ATOM     13  C   UNL     1     -10.744  -5.972  -0.533  0.00  0.00    +0.005 C 
ATOM     14  C   UNL     1     -10.818  -6.537  -1.948  0.00  0.00    +0.001 C 
ATOM     15  C   UNL     1      -9.932  -5.718  -2.885  0.00  0.00    +0.005 C 
ATOM     16  C   UNL     1      -8.473  -5.806  -2.456  0.00  0.00    +0.037 C 
ENDROOT
BRANCH   1  17
ATOM     17  C   UNL     1      -3.024  -2.364  -0.516  0.00  0.00    -0.003 C 
BRANCH  17  18
ATOM     18  N   UNL     1      -3.185  -1.352   0.536  0.00  0.00    +0.386 N 
ATOM     19  H   UNL     1      -3.887  -0.683   0.256  0.00  0.00    -0.081 HD
BRANCH  18  20
ATOM     20  C   UNL     1      -1.907  -0.659   0.748  0.00  0.00    -0.078 C 
BRANCH  20  21
ATOM     21  C   UNL     1      -1.820  -0.182   2.199  0.00  0.00    -0.016 C 
BRANCH  21  23
ATOM     22  C   UNL     1      -0.355   0.925   3.893  0.00  0.00    +0.007 C 
ATOM     23  C   UNL     1      -0.408   0.333   2.483  0.00  0.00    -0.019 C 
ATOM     24  C   UNL     1       0.588  -0.824   2.378  0.00  0.00    +0.007 C 
ENDBRANCH  21  23
ENDBRANCH  20  21
ENDBRANCH  18  20
BRANCH  18  25
ATOM     25  C   UNL     1      -3.601  -2.005   1.784  0.00  0.00    -0.039 C 
BRANCH  25  26
ATOM     26  C   UNL     1      -2.727  -3.236   2.032  0.00  0.00    +0.067 C 
ATOM     27  C   UNL     1      -1.253  -2.830   1.998  0.00  0.00    +0.044 C 
BRANCH  26  28
ATOM     28  C   UNL     1      -3.056  -3.822   3.381  0.00  0.00    -0.003 C 
ATOM     29  C   UNL     1      -3.496  -5.053   3.470  0.00  0.00    +0.006 C 
ENDBRANCH  26  28
BRANCH  26  30
ATOM     30  O   UNL     1      -2.977  -4.209   1.016  0.00  0.00    -0.387 OA
ATOM     31  H   UNL     1      -3.912  -4.425   0.899  0.00  0.00    +0.210 HD
ENDBRANCH  26  30
ENDBRANCH  25  26
ENDBRANCH  18  25
ENDBRANCH  17  18
ENDBRANCH   1  17
TORSDOF 9
