REMARK  Name = ZINC20739072
REMARK  5 active torsions:
REMARK  status: ('A' for Active; 'I' for Inactive)
REMARK    1  A    between atoms: C_1  and  C_2
REMARK    2  A    between atoms: C_8  and  C_12
REMARK    3  A    between atoms: C_12  and  C_14
REMARK    4  A    between atoms: C_12  and  N_17
REMARK    5  A    between atoms: N_20  and  C_23
REMARK                            x       y       z     vdW  Elec       q    Type
REMARK                         _______ _______ _______ _____ _____    ______ ____
ROOT
ATOM      1  C   UNL     1       1.801   4.678   0.009  0.00  0.00    +0.080 C 
ENDROOT
BRANCH   1   9
ATOM      2  C   UNL     1       3.711  -0.723  -0.037  0.00  0.00    +0.044 C 
ATOM      3  C   UNL     1       2.405   0.029  -0.021  0.00  0.00    -0.050 A 
ATOM      4  C   UNL     1       1.207  -0.672  -0.013  0.00  0.00    +0.005 A 
ATOM      5  C   UNL     1       0.002  -0.004   0.002  0.00  0.00    +0.026 A 
ATOM      6  C   UNL     1      -0.017   1.387   0.010  0.00  0.00    +0.047 A 
ATOM      7  C   UNL     1       1.200   2.093   0.002  0.00  0.00    +0.002 A 
ATOM      8  C   UNL     1       2.410   1.395  -0.013  0.00  0.00    +0.013 A 
ATOM      9  C   UNL     1       0.844   3.514   0.012  0.00  0.00    -0.025 A 
ATOM     10  C   UNL     1      -0.497   3.582   0.025  0.00  0.00    +0.086 A 
ATOM     11  N   UNL     1      -1.028   2.321   0.019  0.00  0.00    -0.360 N 
ATOM     12  H   UNL     1      -2.079   1.995   0.020  0.00  0.00    +0.165 HD
ENDBRANCH   1   9
BRANCH   1  13
ATOM     13  N   UNL     1       1.102   5.885  -0.452  0.00  0.00    +0.394 N 
ATOM     14  C   UNL     1       0.500   5.672  -1.775  0.00  0.00    -0.058 C 
ATOM     15  C   UNL     1      -0.284   6.922  -2.184  0.00  0.00    +0.086 C 
ATOM     16  N   UNL     1       0.621   8.080  -2.200  0.00  0.00    -0.333 N 
ATOM     17  C   UNL     1       1.223   8.293  -0.877  0.00  0.00    +0.086 C 
ATOM     18  C   UNL     1       2.006   7.043  -0.468  0.00  0.00    -0.058 C 
ATOM     19  H   UNL     1       0.291   6.097   0.260  0.00  0.00    -0.080 HD
BRANCH  16  20
ATOM     20  C   UNL     1      -0.044   9.228  -2.638  0.00  0.00    +0.031 A 
ATOM     21  C   UNL     1      -0.072  10.364  -1.839  0.00  0.00    +0.024 A 
ATOM     22  C   UNL     1      -0.724  11.500  -2.277  0.00  0.00    +0.023 A 
ATOM     23  C   UNL     1      -1.360  11.504  -3.506  0.00  0.00    +0.059 A 
ATOM     24  C   UNL     1      -1.340  10.371  -4.302  0.00  0.00    +0.061 A 
ATOM     25  C   UNL     1      -0.683   9.234  -3.871  0.00  0.00    +0.044 A 
ATOM     26 CL   UNL     1      -2.139  10.380  -5.843  0.00  0.00    -0.082 Cl
ATOM     27 CL   UNL     1      -2.185  12.931  -4.050  0.00  0.00    -0.082 Cl
ENDBRANCH  16  20
ENDBRANCH   1  13
BRANCH   1  28
ATOM     28  C   UNL     1       2.324   4.902   1.404  0.00  0.00    +0.347 C 
ATOM     29  O   UNL     1       2.134   5.959   1.958  0.00  0.00    -0.248 OA
ATOM     30  O   UNL     1       3.001   3.928   2.032  0.00  0.00    -0.248 OA
ENDBRANCH   1  28
TORSDOF 4
