REMARK  Name = ZINC56681962
REMARK  6 active torsions:
REMARK  status: ('A' for Active; 'I' for Inactive)
REMARK    1  A    between atoms: C_7  and  C_11
REMARK    2  A    between atoms: C_11  and  C_12
REMARK    3  A    between atoms: C_12  and  N_13
REMARK    4  A    between atoms: N_16  and  C_17
REMARK    5  A    between atoms: C_20  and  C_23
REMARK    6  A    between atoms: C_23  and  N_24
REMARK                            x       y       z     vdW  Elec       q    Type
REMARK                         _______ _______ _______ _____ _____    ______ ____
ROOT
ATOM      1  N   UNL     1      -0.670  -4.740  -1.452  0.00  0.00    -0.299 N 
ATOM      2  C   UNL     1      -1.187  -5.194  -2.612  0.00  0.00    +0.304 C 
ATOM      3  O   UNL     1      -0.898  -4.650  -3.660  0.00  0.00    -0.253 OA
ATOM      4  N   UNL     1      -2.024  -6.250  -2.609  0.00  0.00    -0.269 N 
ATOM      5  H   UNL     1      -0.901  -5.174  -0.616  0.00  0.00    +0.150 HD
ATOM      6  H   UNL     1      -2.202  -6.726  -1.782  0.00  0.00    +0.156 HD
ENDROOT
BRANCH   4   7
ATOM      7  C   UNL     1      -2.636  -6.661  -3.799  0.00  0.00    +0.035 A 
ATOM      8  C   UNL     1      -3.931  -7.162  -3.778  0.00  0.00    +0.023 A 
ATOM      9  C   UNL     1      -4.533  -7.566  -4.953  0.00  0.00    +0.007 A 
ATOM     10  C   UNL     1      -3.847  -7.472  -6.150  0.00  0.00    -0.028 A 
ATOM     11  C   UNL     1      -2.557  -6.975  -6.174  0.00  0.00    +0.007 A 
ATOM     12  C   UNL     1      -1.952  -6.564  -5.003  0.00  0.00    +0.023 A 
BRANCH  10  13
ATOM     13  C   UNL     1      -4.506  -7.914  -7.431  0.00  0.00    +0.160 C 
BRANCH  13  14
ATOM     14  N   UNL     1      -5.216  -6.782  -8.031  0.00  0.00    -0.311 N 
ATOM     15  C   UNL     1      -6.512  -6.551  -7.700  0.00  0.00    +0.089 A 
ATOM     16  C   UNL     1      -7.189  -5.511  -8.242  0.00  0.00    +0.018 A 
ATOM     17  C   UNL     1      -6.551  -4.660  -9.154  0.00  0.00    +0.007 A 
ATOM     18  C   UNL     1      -5.248  -4.893  -9.485  0.00  0.00    +0.070 A 
ATOM     19  C   UNL     1      -4.574  -5.978  -8.900  0.00  0.00    +0.252 A 
ATOM     20  O   UNL     1      -3.406  -6.196  -9.184  0.00  0.00    -0.268 OA
ENDBRANCH  13  14
ENDBRANCH  10  13
ENDBRANCH   4   7
BRANCH   1  21
ATOM     21  C   UNL     1       0.239  -3.592  -1.455  0.00  0.00    +0.110 C 
BRANCH  21  22
ATOM     22  C   UNL     1       0.677  -3.284  -0.022  0.00  0.00    +0.056 C 
BRANCH  22  29
ATOM     23  C   UNL     1      -0.012   1.352   0.035  0.00  0.00    +0.001 A 
ATOM     24  C   UNL     1       1.174   2.075   0.024  0.00  0.00    +0.002 A 
ATOM     25  C   UNL     1       2.390   1.429  -0.002  0.00  0.00    +0.026 A 
ATOM     26  C   UNL     1       2.434   0.039  -0.016  0.00  0.00    +0.047 A 
ATOM     27  C   UNL     1       1.231  -0.689  -0.005  0.00  0.00    +0.003 A 
ATOM     28  C   UNL     1       0.009  -0.014   0.021  0.00  0.00    +0.010 A 
ATOM     29  C   UNL     1       1.613  -2.103  -0.025  0.00  0.00    -0.021 A 
ATOM     30  C   UNL     1       2.954  -2.147  -0.046  0.00  0.00    +0.087 A 
ATOM     31  N   UNL     1       3.462  -0.876  -0.041  0.00  0.00    -0.360 N 
ATOM     32  H   UNL     1       4.407  -0.654  -0.054  0.00  0.00    +0.165 HD
ENDBRANCH  22  29
ENDBRANCH  21  22
ENDBRANCH   1  21
TORSDOF 6
