REMARK  Name = ZINC39742798
REMARK  14 active torsions:
REMARK  status: ('A' for Active; 'I' for Inactive)
REMARK    1  A    between atoms: C_1  and  C_2
REMARK    2  A    between atoms: C_2  and  N_3
REMARK    3  A    between atoms: C_4  and  C_22
REMARK    4  A    between atoms: C_7  and  S_8
REMARK    5  A    between atoms: S_8  and  C_9
REMARK    6  A    between atoms: C_9  and  C_11
REMARK    7  A    between atoms: C_9  and  C_12
REMARK    8  A    between atoms: N_14  and  C_15
REMARK    9  A    between atoms: C_20  and  O_21
REMARK   10  A    between atoms: C_22  and  C_24
REMARK   11  A    between atoms: C_22  and  N_27
REMARK   12  A    between atoms: C_24  and  C_25
REMARK   13  A    between atoms: C_24  and  C_26
REMARK   14  A    between atoms: C_28  and  C_30
REMARK                            x       y       z     vdW  Elec       q    Type
REMARK                         _______ _______ _______ _____ _____    ______ ____
ROOT
ATOM      1  N   UNL     1       0.675  -0.516  -1.174  0.00  0.00    -0.305 N 
ATOM      2  C   UNL     1       0.109  -0.794  -2.387  0.00  0.00    +0.155 A 
ATOM      3  N   UNL     1       1.065  -1.184  -3.182  0.00  0.00    -0.132 NA
ATOM      4  N   UNL     1       2.189  -1.171  -2.558  0.00  0.00    -0.122 NA
ATOM      5  C   UNL     1       2.010  -0.765  -1.323  0.00  0.00    +0.192 A 
ENDROOT
BRANCH   1   7
ATOM      6  C   UNL     1      -0.036   1.485   0.038  0.00  0.00    +0.027 C 
ATOM      7  C   UNL     1      -0.007  -0.044   0.034  0.00  0.00    +0.122 C 
ENDBRANCH   1   7
BRANCH   5   8
ATOM      8  S   UNL     1       3.255  -0.578  -0.090  0.00  0.00    -0.074 S 
BRANCH   8   9
ATOM      9  C   UNL     1       4.784  -1.067  -0.934  0.00  0.00    +0.137 C 
ATOM     10  C   UNL     1       5.086  -0.075  -2.058  0.00  0.00    +0.029 C 
BRANCH   9  11
ATOM     11  C   UNL     1       5.923  -1.070   0.053  0.00  0.00    +0.230 C 
ATOM     12  O   UNL     1       5.830  -0.445   1.089  0.00  0.00    -0.274 OA
ATOM     13  N   UNL     1       7.045  -1.767  -0.214  0.00  0.00    -0.282 N 
ATOM     14  H   UNL     1       7.095  -2.318  -1.011  0.00  0.00    +0.155 HD
BRANCH  13  15
ATOM     15  C   UNL     1       8.139  -1.695   0.658  0.00  0.00    +0.075 A 
ATOM     16  C   UNL     1       7.933  -1.571   2.024  0.00  0.00    +0.027 A 
ATOM     17  C   UNL     1       9.014  -1.501   2.882  0.00  0.00    +0.002 A 
ATOM     18  C   UNL     1      10.302  -1.553   2.382  0.00  0.00    +0.004 A 
ATOM     19  C   UNL     1      10.516  -1.677   1.022  0.00  0.00    +0.047 A 
ATOM     20  C   UNL     1       9.438  -1.754   0.156  0.00  0.00    +0.138 A 
BRANCH  20  21
ATOM     21  O   UNL     1       9.646  -1.881  -1.182  0.00  0.00    -0.505 OA
ATOM     22  H   UNL     1       9.714  -1.039  -1.651  0.00  0.00    +0.292 HD
ENDBRANCH  20  21
ENDBRANCH  13  15
ENDBRANCH   9  11
ENDBRANCH   8   9
ENDBRANCH   5   8
BRANCH   2  23
ATOM     23  C   UNL     1      -1.351  -0.673  -2.739  0.00  0.00    +0.144 C 
BRANCH  23  24
ATOM     24  N   UNL     1      -1.487  -0.013  -4.040  0.00  0.00    -0.301 N 
ATOM     25  C   UNL     1      -2.619   0.651  -4.345  0.00  0.00    +0.245 C 
ATOM     26  O   UNL     1      -3.529   0.703  -3.540  0.00  0.00    -0.270 OA
ATOM     27  H   UNL     1      -0.761  -0.054  -4.683  0.00  0.00    +0.150 HD
BRANCH  25  28
ATOM     28  C   UNL     1      -2.756   1.317  -5.657  0.00  0.00    +0.037 A 
ATOM     29  C   UNL     1      -1.716   1.255  -6.586  0.00  0.00    +0.013 A 
ATOM     30  C   UNL     1      -1.849   1.878  -7.810  0.00  0.00    +0.001 A 
ATOM     31  C   UNL     1      -3.011   2.564  -8.117  0.00  0.00    +0.000 A 
ATOM     32  C   UNL     1      -4.046   2.630  -7.200  0.00  0.00    +0.001 A 
ATOM     33  C   UNL     1      -3.927   2.006  -5.976  0.00  0.00    +0.013 A 
ENDBRANCH  25  28
ENDBRANCH  23  24
BRANCH  23  34
ATOM     34  C   UNL     1      -1.977  -2.067  -2.807  0.00  0.00    +0.011 C 
ATOM     35  C   UNL     1      -1.836  -2.757  -1.449  0.00  0.00    +0.009 C 
ATOM     36  C   UNL     1      -3.460  -1.944  -3.165  0.00  0.00    +0.009 C 
ENDBRANCH  23  34
ENDBRANCH   2  23
TORSDOF 10
