REMARK  Name = ZINC29160981
REMARK  8 active torsions:
REMARK  status: ('A' for Active; 'I' for Inactive)
REMARK    1  A    between atoms: C_1  and  C_2
REMARK    2  A    between atoms: C_2  and  C_3
REMARK    3  A    between atoms: C_2  and  C_4
REMARK    4  A    between atoms: C_2  and  N_20
REMARK    5  A    between atoms: C_4  and  N_5
REMARK    6  A    between atoms: C_6  and  C_8
REMARK    7  A    between atoms: C_8  and  C_9
REMARK    8  A    between atoms: C_9  and  C_10
REMARK                            x       y       z     vdW  Elec       q    Type
REMARK                         _______ _______ _______ _____ _____    ______ ____
ROOT
ATOM      1  N   UNL     1      -1.928  -1.502   0.115  0.00  0.00    -0.317 N 
ATOM      2  C   UNL     1      -3.235  -1.826   0.182  0.00  0.00    +0.213 C 
ATOM      3  O   UNL     1      -4.075  -0.952   0.213  0.00  0.00    -0.276 OA
ATOM      4  H   UNL     1      -1.256  -2.201   0.090  0.00  0.00    +0.149 HD
ENDROOT
BRANCH   1   5
ATOM      5  C   UNL     1      -1.523  -0.094   0.078  0.00  0.00    +0.092 C 
BRANCH   5   7
ATOM      6  C   UNL     1       0.425   1.466  -0.036  0.00  0.00    -0.008 C 
ATOM      7  C   UNL     1       0.002  -0.004   0.002  0.00  0.00    -0.055 C 
ATOM      8  C   UNL     1       0.615  -0.679   1.231  0.00  0.00    -0.008 C 
BRANCH   7   9
ATOM      9  N   UNL     1       0.473  -0.681  -1.214  0.00  0.00    +0.387 N 
ATOM     10  C   UNL     1       1.927  -0.503  -1.345  0.00  0.00    -0.073 C 
ATOM     11  C   UNL     1       2.439  -1.456  -2.426  0.00  0.00    +0.017 C 
ATOM     12  C   UNL     1       1.615  -1.297  -3.678  0.00  0.00    -0.048 A 
ATOM     13  C   UNL     1       2.113  -1.800  -4.870  0.00  0.00    +0.004 A 
ATOM     14  C   UNL     1       1.385  -1.676  -6.036  0.00  0.00    +0.000 A 
ATOM     15  C   UNL     1       0.153  -1.047  -6.014  0.00  0.00    +0.000 A 
ATOM     16  C   UNL     1      -0.342  -0.545  -4.828  0.00  0.00    +0.002 A 
ATOM     17  C   UNL     1       0.389  -0.667  -3.656  0.00  0.00    -0.061 A 
ATOM     18  C   UNL     1      -0.186  -0.097  -2.386  0.00  0.00    -0.042 C 
ATOM     19  H   UNL     1       0.255  -1.664  -1.159  0.00  0.00    -0.080 HD
ENDBRANCH   7   9
ENDBRANCH   5   7
ENDBRANCH   1   5
BRANCH   2  20
ATOM     20  C   UNL     1      -3.651  -3.274   0.220  0.00  0.00    +0.100 C 
BRANCH  20  21
ATOM     21  C   UNL     1      -5.176  -3.364   0.296  0.00  0.00    +0.046 C 
BRANCH  21  22
ATOM     22  C   UNL     1      -5.592  -4.812   0.334  0.00  0.00    -0.022 A 
ATOM     23  C   UNL     1      -5.950  -5.567  -0.717  0.00  0.00    +0.087 A 
ATOM     24  N   UNL     1      -6.263  -6.832  -0.297  0.00  0.00    -0.360 N 
ATOM     25  H   UNL     1      -6.550  -7.556  -0.876  0.00  0.00    +0.165 HD
ATOM     26  C   UNL     1      -6.110  -6.923   1.068  0.00  0.00    +0.047 A 
ATOM     27  C   UNL     1      -5.677  -5.664   1.522  0.00  0.00    +0.003 A 
ATOM     28  C   UNL     1      -5.432  -5.460   2.881  0.00  0.00    +0.010 A 
ATOM     29  C   UNL     1      -5.610  -6.488   3.764  0.00  0.00    +0.001 A 
ATOM     30  C   UNL     1      -6.033  -7.733   3.321  0.00  0.00    +0.002 A 
ATOM     31  C   UNL     1      -6.290  -7.953   1.985  0.00  0.00    +0.026 A 
ENDBRANCH  21  22
ENDBRANCH  20  21
ENDBRANCH   2  20
TORSDOF 6
