REMARK  Name = ZINC09716342
REMARK  9 active torsions:
REMARK  status: ('A' for Active; 'I' for Inactive)
REMARK    1  A    between atoms: C_1  and  C_2
REMARK    2  A    between atoms: C_2  and  O_3
REMARK    3  A    between atoms: O_3  and  C_4
REMARK    4  A    between atoms: C_4  and  C_6
REMARK    5  A    between atoms: C_7  and  C_15
REMARK    6  A    between atoms: C_12  and  C_14
REMARK    7  A    between atoms: C_15  and  S_16
REMARK    8  A    between atoms: S_16  and  C_17
REMARK    9  A    between atoms: C_30  and  C_34
REMARK                            x       y       z     vdW  Elec       q    Type
REMARK                         _______ _______ _______ _____ _____    ______ ____
ROOT
ATOM      1  C   UNL     1      -0.366   3.176   6.760  0.00  0.00    +0.178 A 
ATOM      2  N   UNL     1       0.035   3.736   7.874  0.00  0.00    -0.223 NA
ATOM      3  C   UNL     1       1.344   3.772   8.217  0.00  0.00    +0.079 A 
ATOM      4  C   UNL     1       1.775   4.375   9.402  0.00  0.00    +0.028 A 
ATOM      5  C   UNL     1       3.106   4.388   9.710  0.00  0.00    +0.002 A 
ATOM      6  C   UNL     1       4.042   3.811   8.860  0.00  0.00    +0.001 A 
ATOM      7  C   UNL     1       3.651   3.213   7.694  0.00  0.00    +0.015 A 
ATOM      8  C   UNL     1       2.299   3.185   7.355  0.00  0.00    +0.065 A 
ATOM      9  C   UNL     1       1.822   2.558   6.115  0.00  0.00    +0.268 A 
ATOM     10  O   UNL     1       2.596   2.037   5.334  0.00  0.00    -0.267 OA
ATOM     11  N   UNL     1       0.491   2.581   5.874  0.00  0.00    -0.239 N 
ATOM     12  C   UNL     1      -0.012   1.999   4.708  0.00  0.00    +0.142 A 
ATOM     13  C   UNL     1      -0.189   2.777   3.570  0.00  0.00    +0.050 A 
ATOM     14  C   UNL     1      -0.688   2.187   2.422  0.00  0.00    -0.046 A 
ATOM     15  C   UNL     1      -1.000   0.835   2.455  0.00  0.00    +0.023 A 
ATOM     16  C   UNL     1      -0.794   0.121   3.619  0.00  0.00    +0.113 A 
ATOM     17  N   UNL     1      -0.316   0.711   4.698  0.00  0.00    -0.237 NA
ATOM     18  C   UNL     1      -0.894   2.996   1.168  0.00  0.00    +0.044 C 
ENDROOT
BRANCH   1  19
ATOM     19  S   UNL     1      -2.088   3.182   6.389  0.00  0.00    -0.081 S 
BRANCH  19  20
ATOM     20  C   UNL     1      -2.719   4.061   7.839  0.00  0.00    +0.128 C 
BRANCH  20  22
ATOM     21  C   UNL     1      -5.004   3.239   8.288  0.00  0.00    +0.074 C 
ATOM     22  C   UNL     1      -4.217   4.189   7.737  0.00  0.00    +0.034 C 
ATOM     23  N   UNL     1      -4.758   5.265   7.094  0.00  0.00    -0.272 N 
ATOM     24  C   UNL     1      -6.075   5.460   6.950  0.00  0.00    +0.304 C 
ATOM     25  O   UNL     1      -6.462   6.447   6.356  0.00  0.00    -0.253 OA
ATOM     26  N   UNL     1      -6.985   4.599   7.446  0.00  0.00    -0.292 N 
ATOM     27  C   UNL     1      -6.505   3.406   8.163  0.00  0.00    +0.110 C 
ATOM     28  C   UNL     1      -7.059   2.172   7.449  0.00  0.00    +0.033 C 
ATOM     29  H   UNL     1      -4.154   5.924   6.718  0.00  0.00    +0.156 HD
ATOM     30  H   UNL     1      -7.935   4.761   7.333  0.00  0.00    +0.151 HD
BRANCH  21  31
ATOM     31  C   UNL     1      -4.445   2.126   8.960  0.00  0.00    +0.338 C 
ATOM     32  O   UNL     1      -3.243   1.939   8.932  0.00  0.00    -0.245 OA
BRANCH  31  33
ATOM     33  O   UNL     1      -5.246   1.272   9.631  0.00  0.00    -0.462 OA
BRANCH  33  35
ATOM     34  C   UNL     1      -5.674  -0.681  10.989  0.00  0.00    +0.048 C 
ATOM     35  C   UNL     1      -4.614   0.170  10.286  0.00  0.00    +0.229 C 
ENDBRANCH  33  35
ENDBRANCH  31  33
ENDBRANCH  21  31
ENDBRANCH  20  22
ENDBRANCH  19  20
ENDBRANCH   1  19
TORSDOF 6
