REMARK  Name = ZINC04794597
REMARK  4 active torsions:
REMARK  status: ('A' for Active; 'I' for Inactive)
REMARK    1  A    between atoms: C_4  and  C_7
REMARK    2  A    between atoms: C_10  and  N_12
REMARK    3  A    between atoms: N_13  and  C_14
REMARK    4  A    between atoms: C_15  and  C_20
REMARK                            x       y       z     vdW  Elec       q    Type
REMARK                         _______ _______ _______ _____ _____    ______ ____
ROOT
ATOM      1  C   UNL     1       9.514  -0.394  -0.082  0.00  0.00    +0.152 A 
ATOM      2  C   UNL     1      10.757  -1.047  -0.103  0.00  0.00    +0.108 A 
ATOM      3  N   UNL     1      11.817  -0.261  -0.102  0.00  0.00    -0.223 NA
ATOM      4  C   UNL     1      11.701   1.051  -0.082  0.00  0.00    +0.158 A 
ATOM      5  S   UNL     1      10.040   1.313  -0.070  0.00  0.00    -0.031 S 
ATOM      6  N   UNL     1      12.709   1.993  -0.078  0.00  0.00    -0.337 N 
ATOM      7  H   UNL     1      13.637   1.710  -0.091  0.00  0.00    +0.144 HD
ATOM      8  H   UNL     1      12.490   2.937  -0.062  0.00  0.00    +0.144 HD
ENDROOT
BRANCH   2   9
ATOM      9  C   UNL     1      10.871  -2.522  -0.125  0.00  0.00    +0.003 A 
ATOM     10  C   UNL     1       9.942  -3.307   0.561  0.00  0.00    +0.010 A 
ATOM     11  C   UNL     1      10.054  -4.681   0.536  0.00  0.00    +0.001 A 
ATOM     12  C   UNL     1      11.083  -5.282  -0.167  0.00  0.00    +0.000 A 
ATOM     13  C   UNL     1      12.007  -4.510  -0.848  0.00  0.00    +0.001 A 
ATOM     14  C   UNL     1      11.903  -3.135  -0.836  0.00  0.00    +0.010 A 
ENDBRANCH   2   9
BRANCH   1  16
ATOM     15  N   UNL     1       7.251  -0.125  -0.062  0.00  0.00    -0.121 NA
ATOM     16  N   UNL     1       8.275  -0.909  -0.077  0.00  0.00    -0.138 NA
BRANCH  15  20
ATOM     17  C   UNL     1       3.699  -0.688  -0.038  0.00  0.00    +0.081 A 
ATOM     18  C   UNL     1       3.727  -2.061  -0.051  0.00  0.00    +0.077 A 
ATOM     19  S   UNL     1       5.491  -2.357  -0.068  0.00  0.00    -0.054 S 
ATOM     20  C   UNL     1       6.003  -0.644  -0.057  0.00  0.00    +0.214 A 
ATOM     21  N   UNL     1       4.833  -0.017  -0.047  0.00  0.00    -0.220 NA
BRANCH  17  25
ATOM     22  C   UNL     1      -0.017   1.379   0.010  0.00  0.00    +0.000 A 
ATOM     23  C   UNL     1       1.169   2.092   0.002  0.00  0.00    +0.001 A 
ATOM     24  C   UNL     1       2.377   1.426  -0.013  0.00  0.00    +0.010 A 
ATOM     25  C   UNL     1       2.402   0.033  -0.021  0.00  0.00    +0.001 A 
ATOM     26  C   UNL     1       1.205  -0.680  -0.013  0.00  0.00    +0.010 A 
ATOM     27  C   UNL     1       0.002  -0.004   0.002  0.00  0.00    +0.001 A 
ENDBRANCH  17  25
ENDBRANCH  15  20
ENDBRANCH   1  16
TORSDOF 4
