REMARK  Name = ZINC19859368
REMARK  7 active torsions:
REMARK  status: ('A' for Active; 'I' for Inactive)
REMARK    1  A    between atoms: C_4  and  C_7
REMARK    2  A    between atoms: C_15  and  N_17
REMARK    3  A    between atoms: N_19  and  C_20
REMARK    4  A    between atoms: C_20  and  C_22
REMARK    5  A    between atoms: C_20  and  C_30
REMARK    6  A    between atoms: C_22  and  C_23
REMARK    7  A    between atoms: C_23  and  C_25
REMARK                            x       y       z     vdW  Elec       q    Type
REMARK                         _______ _______ _______ _____ _____    ______ ____
ROOT
ATOM      1  N   UNL     1       6.818  -0.144  -1.453  0.00  0.00    -0.177 NA
ATOM      2  C   UNL     1       8.002  -0.703  -1.593  0.00  0.00    +0.199 C 
ATOM      3  N   UNL     1       8.226  -1.962  -1.105  0.00  0.00    -0.344 N 
ATOM      4  N   UNL     1       9.009  -0.025  -2.225  0.00  0.00    -0.370 N 
ATOM      5  H   UNL     1       8.850   0.867  -2.571  0.00  0.00    +0.159 HD
ATOM      6  H   UNL     1       9.881  -0.437  -2.328  0.00  0.00    +0.159 HD
ATOM      7  H   UNL     1       7.537  -2.414  -0.593  0.00  0.00    +0.163 HD
ENDROOT
BRANCH   1  16
ATOM      8  C   UNL     1       4.785  -1.031   1.310  0.00  0.00    +0.084 A 
ATOM      9  C   UNL     1       3.921  -2.030   0.683  0.00  0.00    +0.028 A 
ATOM     10  C   UNL     1       2.916  -2.695   1.391  0.00  0.00    +0.032 A 
ATOM     11  C   UNL     1       2.141  -3.618   0.749  0.00  0.00    +0.042 A 
ATOM     12  C   UNL     1       2.339  -3.905  -0.600  0.00  0.00    +0.022 A 
ATOM     13  C   UNL     1       3.311  -3.273  -1.318  0.00  0.00    +0.030 A 
ATOM     14  C   UNL     1       4.125  -2.319  -0.691  0.00  0.00    +0.077 A 
ATOM     15  N   UNL     1       5.093  -1.669  -1.348  0.00  0.00    -0.211 NA
ATOM     16  C   UNL     1       5.849  -0.773  -0.734  0.00  0.00    +0.254 A 
ATOM     17  N   UNL     1       5.706  -0.450   0.553  0.00  0.00    -0.210 NA
ATOM     18 CL   UNL     1       0.892  -4.445   1.626  0.00  0.00    -0.084 Cl
BRANCH   8  22
ATOM     19  C   UNL     1       4.349  -0.010   5.412  0.00  0.00    +0.000 A 
ATOM     20  C   UNL     1       4.309  -1.338   5.024  0.00  0.00    +0.001 A 
ATOM     21  C   UNL     1       4.449  -1.676   3.694  0.00  0.00    +0.010 A 
ATOM     22  C   UNL     1       4.633  -0.675   2.739  0.00  0.00    +0.001 A 
ATOM     23  C   UNL     1       4.672   0.662   3.136  0.00  0.00    +0.010 A 
ATOM     24  C   UNL     1       4.530   0.986   4.469  0.00  0.00    +0.001 A 
ENDBRANCH   8  22
ENDBRANCH   1  16
BRANCH   3  25
ATOM     25  C   UNL     1       9.507  -2.628  -1.356  0.00  0.00    +0.193 C 
BRANCH  25  26
ATOM     26  C   UNL     1       9.462  -3.322  -2.719  0.00  0.00    +0.410 C 
ATOM     27  F   UNL     1       9.226  -2.373  -3.719  0.00  0.00    -0.168 F 
ATOM     28  F   UNL     1      10.685  -3.958  -2.959  0.00  0.00    -0.168 F 
ATOM     29  F   UNL     1       8.434  -4.271  -2.725  0.00  0.00    -0.168 F 
ENDBRANCH  25  26
BRANCH  25  30
ATOM     30  C   UNL     1       9.765  -3.666  -0.263  0.00  0.00    +0.113 C 
BRANCH  30  31
ATOM     31  C   UNL     1       9.931  -2.969   1.063  0.00  0.00    +0.172 C 
ATOM     32  O   UNL     1       9.851  -1.759   1.127  0.00  0.00    -0.291 OA
BRANCH  31  33
ATOM     33  C   UNL     1      10.180  -3.723   2.231  0.00  0.00    +0.055 A 
ATOM     34  C   UNL     1      10.357  -3.282   3.539  0.00  0.00    +0.019 A 
ATOM     35  C   UNL     1      10.586  -4.262   4.471  0.00  0.00    +0.008 A 
ATOM     36  C   UNL     1      10.624  -5.559   4.070  0.00  0.00    +0.046 A 
ATOM     37  S   UNL     1      10.342  -5.489   2.416  0.00  0.00    -0.094 S 
ENDBRANCH  31  33
ENDBRANCH  30  31
ENDBRANCH  25  30
ENDBRANCH   3  25
TORSDOF 7
