REMARK  Name = ZINC16533815
REMARK  14 active torsions:
REMARK  status: ('A' for Active; 'I' for Inactive)
REMARK    1  A    between atoms: C_1  and  C_2
REMARK    2  A    between atoms: C_2  and  C_3
REMARK    3  A    between atoms: C_3  and  N_4
REMARK    4  A    between atoms: N_4  and  C_5
REMARK    5  A    between atoms: C_5  and  C_6
REMARK    6  A    between atoms: N_10  and  C_11
REMARK    7  A    between atoms: C_11  and  C_12
REMARK    8  A    between atoms: C_15  and  C_17
REMARK    9  A    between atoms: N_19  and  C_20
REMARK   10  A    between atoms: C_20  and  C_21
REMARK   11  A    between atoms: C_21  and  C_22
REMARK   12  A    between atoms: C_22  and  N_74
REMARK   13  A    between atoms: C_27  and  C_29
REMARK   14  A    between atoms: C_30  and  C_32
REMARK                            x       y       z     vdW  Elec       q    Type
REMARK                         _______ _______ _______ _____ _____    ______ ____
ROOT
ATOM      1  C   UNL     1       4.652   6.859  -2.042  0.00  0.00    +0.126 A 
ATOM      2  C   UNL     1       4.466   7.968  -2.791  0.00  0.00    +0.047 A 
ATOM      3  C   UNL     1       4.996   7.700  -4.063  0.00  0.00    +0.055 A 
ATOM      4  C   UNL     1       5.483   6.426  -4.025  0.00  0.00    +0.189 A 
ATOM      5  O   UNL     1       5.269   5.934  -2.787  0.00  0.00    -0.453 OA
ENDROOT
BRANCH   4   6
ATOM      6  C   UNL     1       6.131   5.717  -5.133  0.00  0.00    +0.279 C 
ATOM      7  O   UNL     1       6.356   6.298  -6.179  0.00  0.00    -0.267 OA
ATOM      8  N   UNL     1       6.478   4.422  -4.995  0.00  0.00    -0.309 N 
ATOM      9  H   UNL     1       6.234   3.938  -4.190  0.00  0.00    +0.149 HD
BRANCH   8  10
ATOM     10  C   UNL     1       7.223   3.745  -6.059  0.00  0.00    +0.103 C 
BRANCH  10  11
ATOM     11  C   UNL     1       7.488   2.294  -5.653  0.00  0.00    +0.000 C 
BRANCH  11  12
ATOM     12  C   UNL     1       8.266   1.587  -6.764  0.00  0.00    -0.077 C 
BRANCH  12  19
ATOM     13  C   UNL     1       7.263  -0.558  -6.258  0.00  0.00    -0.078 C 
ATOM     14  C   UNL     1       7.553  -1.958  -5.712  0.00  0.00    -0.019 C 
ATOM     15  C   UNL     1       8.516  -2.680  -6.658  0.00  0.00    -0.003 C 
ATOM     16  C   UNL     1       9.797  -1.853  -6.799  0.00  0.00    -0.016 C 
ATOM     17  C   UNL     1       9.442  -0.456  -7.314  0.00  0.00    -0.072 C 
ATOM     18  C   UNL     1      10.717   0.380  -7.438  0.00  0.00    -0.013 C 
ATOM     19  N   UNL     1       8.533   0.195  -6.347  0.00  0.00    +0.381 N 
ATOM     20  H   UNL     1       8.980   0.203  -5.423  0.00  0.00    -0.081 HD
ENDBRANCH  12  19
ENDBRANCH  11  12
ENDBRANCH  10  11
ENDBRANCH   8  10
ENDBRANCH   4   6
BRANCH   1  21
ATOM     21  C   UNL     1       4.237   6.694  -0.602  0.00  0.00    +0.195 C 
BRANCH  21  26
ATOM     22  C   UNL     1       2.192   5.838   0.588  0.00  0.00    +0.037 A 
ATOM     23  C   UNL     1       1.045   5.221   0.240  0.00  0.00    +0.024 A 
ATOM     24  C   UNL     1       1.072   5.038  -1.157  0.00  0.00    +0.019 A 
ATOM     25  C   UNL     1       2.230   5.560  -1.610  0.00  0.00    +0.086 A 
ATOM     26  N   UNL     1       2.923   6.049  -0.543  0.00  0.00    -0.342 N 
BRANCH  22  27
ATOM     27  C   UNL     1       2.596   6.228   1.987  0.00  0.00    +0.161 C 
BRANCH  27  28
ATOM     28  N   UNL     1       3.435   5.175   2.564  0.00  0.00    -0.289 N 
ATOM     29  C   UNL     1       2.864   4.101   3.146  0.00  0.00    +0.282 C 
ATOM     30  O   UNL     1       1.654   4.045   3.263  0.00  0.00    -0.267 OA
BRANCH  29  31
ATOM     31  C   UNL     1       3.701   3.002   3.637  0.00  0.00    +0.189 A 
ATOM     32  C   UNL     1       3.252   1.813   4.135  0.00  0.00    +0.054 A 
ATOM     33  C   UNL     1       4.389   1.066   4.482  0.00  0.00    +0.042 A 
ATOM     34  C   UNL     1       5.468   1.822   4.185  0.00  0.00    +0.196 A 
ATOM     35  O   UNL     1       5.050   2.986   3.671  0.00  0.00    -0.458 OA
ENDBRANCH  29  31
BRANCH  28  36
ATOM     36  C   UNL     1       4.895   5.289   2.509  0.00  0.00    +0.108 C 
BRANCH  36  38
ATOM     37  C   UNL     1       6.920   6.097   3.729  0.00  0.00    +0.005 C 
ATOM     38  C   UNL     1       5.412   5.862   3.830  0.00  0.00    +0.016 C 
ENDBRANCH  36  38
ENDBRANCH  28  36
ENDBRANCH  27  28
ENDBRANCH  22  27
ENDBRANCH  21  26
ENDBRANCH   1  21
TORSDOF 12
