REMARK  Name = ZINC39487302
REMARK  11 active torsions:
REMARK  status: ('A' for Active; 'I' for Inactive)
REMARK    1  A    between atoms: C_1  and  C_2
REMARK    2  A    between atoms: C_2  and  C_3
REMARK    3  A    between atoms: C_3  and  C_34
REMARK    4  A    between atoms: N_5  and  S_32
REMARK    5  A    between atoms: N_8  and  C_9
REMARK    6  A    between atoms: C_9  and  C_10
REMARK    7  A    between atoms: C_10  and  C_26
REMARK    8  A    between atoms: N_13  and  S_16
REMARK    9  A    between atoms: S_16  and  O_19
REMARK   10  A    between atoms: O_19  and  C_20
REMARK   11  A    between atoms: S_32  and  C_33
REMARK                            x       y       z     vdW  Elec       q    Type
REMARK                         _______ _______ _______ _____ _____    ______ ____
ROOT
ATOM      1  C   UNL     1      -0.545  -3.481  -2.140  0.00  0.00    -0.008 C 
ATOM      2  C   UNL     1       0.660  -4.131  -2.824  0.00  0.00    +0.026 C 
ATOM      3  C   UNL     1       1.903  -3.265  -2.591  0.00  0.00    +0.113 C 
ATOM      4  N   UNL     1       1.617  -1.896  -3.043  0.00  0.00    -0.147 NA
ATOM      5  C   UNL     1       0.428  -1.212  -2.516  0.00  0.00    +0.113 C 
ATOM      6  C   UNL     1      -0.797  -2.101  -2.750  0.00  0.00    +0.026 C 
ENDROOT
BRANCH   1   7
ATOM      7  C   UNL     1      -1.780  -4.361  -2.342  0.00  0.00    -0.003 C 
ATOM      8  C   UNL     1      -1.446  -5.805  -1.960  0.00  0.00    +0.004 C 
ATOM      9  C   UNL     1      -2.681  -6.685  -2.162  0.00  0.00    +0.000 C 
ATOM     10  C   UNL     1      -3.111  -6.632  -3.630  0.00  0.00    +0.000 C 
ATOM     11  C   UNL     1      -3.445  -5.188  -4.012  0.00  0.00    +0.000 C 
ATOM     12  C   UNL     1      -2.210  -4.308  -3.810  0.00  0.00    +0.004 C 
ENDBRANCH   1   7
BRANCH   4  13
ATOM     13  S   UNL     1       2.616  -1.140  -4.126  0.00  0.00    +0.194 S 
ATOM     14  O   UNL     1       3.235  -2.164  -4.891  0.00  0.00    -0.119 OA
ATOM     15  O   UNL     1       1.854  -0.099  -4.722  0.00  0.00    -0.119 OA
BRANCH  13  16
ATOM     16  O   UNL     1       3.721  -0.467  -3.325  0.00  0.00    -0.333 OA
BRANCH  16  17
ATOM     17  C   UNL     1       4.641  -1.330  -2.819  0.00  0.00    +0.158 A 
ATOM     18  C   UNL     1       4.423  -1.936  -1.590  0.00  0.00    +0.048 A 
ATOM     19  C   UNL     1       5.360  -2.813  -1.079  0.00  0.00    +0.004 A 
ATOM     20  C   UNL     1       6.513  -3.087  -1.790  0.00  0.00    +0.000 A 
ATOM     21  C   UNL     1       6.733  -2.484  -3.014  0.00  0.00    +0.004 A 
ATOM     22  C   UNL     1       5.797  -1.610  -3.533  0.00  0.00    +0.048 A 
ENDBRANCH  16  17
ENDBRANCH  13  16
ENDBRANCH   4  13
BRANCH   1  23
ATOM     23  C   UNL     1      -0.264  -3.334  -0.643  0.00  0.00    +0.117 C 
BRANCH  23  29
ATOM     24  C   UNL     1      -2.361  -3.349   0.907  0.00  0.00    +0.052 C 
ATOM     25  C   UNL     1      -3.341  -2.226   1.297  0.00  0.00    +0.148 C 
ATOM     26  N   UNL     1      -2.835  -1.050   0.574  0.00  0.00    -0.227 N 
ATOM     27  C   UNL     1      -1.746  -1.398  -0.125  0.00  0.00    +0.315 C 
ATOM     28  O   UNL     1      -1.124  -0.615  -0.816  0.00  0.00    -0.252 OA
ATOM     29  N   UNL     1      -1.406  -2.687   0.007  0.00  0.00    -0.277 N 
ATOM     30  C   UNL     1      -3.094  -4.477   0.178  0.00  0.00    +0.033 C 
BRANCH  24  32
ATOM     31  C   UNL     1      -2.659  -4.573   3.065  0.00  0.00    +0.006 C 
ATOM     32  C   UNL     1      -1.644  -3.890   2.146  0.00  0.00    +0.024 C 
ENDBRANCH  24  32
BRANCH  26  33
ATOM     33  S   UNL     1      -3.503   0.465   0.617  0.00  0.00    -0.059 S 
ATOM     34  C   UNL     1      -2.665   1.275   2.007  0.00  0.00    +0.107 C 
ENDBRANCH  26  33
ENDBRANCH  23  29
ENDBRANCH   1  23
TORSDOF 8
