REMARK  Name = ZINC35991217
REMARK  12 active torsions:
REMARK  status: ('A' for Active; 'I' for Inactive)
REMARK    1  A    between atoms: C_1  and  C_2
REMARK    2  A    between atoms: C_2  and  N_3
REMARK    3  A    between atoms: C_4  and  C_24
REMARK    4  A    between atoms: C_5  and  C_19
REMARK    5  A    between atoms: C_6  and  C_11
REMARK    6  A    between atoms: C_19  and  O_21
REMARK    7  A    between atoms: O_21  and  C_22
REMARK    8  A    between atoms: C_22  and  C_23
REMARK    9  A    between atoms: C_24  and  N_25
REMARK   10  A    between atoms: N_25  and  C_26
REMARK   11  A    between atoms: N_25  and  C_27
REMARK   12  A    between atoms: C_27  and  C_28
REMARK                            x       y       z     vdW  Elec       q    Type
REMARK                         _______ _______ _______ _____ _____    ______ ____
ROOT
ATOM      1  N   UNL     1      -1.239  -0.494  -0.253  0.00  0.00    -0.261 N 
ATOM      2  C   UNL     1      -1.982  -0.613   0.886  0.00  0.00    +0.010 C 
ATOM      3  C   UNL     1      -3.270  -1.018   0.839  0.00  0.00    +0.077 C 
ATOM      4  C   UNL     1      -3.860  -1.336  -0.520  0.00  0.00    +0.145 C 
ATOM      5  N   UNL     1      -2.975  -1.175  -1.686  0.00  0.00    -0.288 N 
ATOM      6  C   UNL     1      -1.711  -0.756  -1.479  0.00  0.00    +0.307 C 
ATOM      7  O   UNL     1      -0.974  -0.617  -2.435  0.00  0.00    -0.252 OA
ATOM      8  H   UNL     1      -3.295  -1.363  -2.582  0.00  0.00    +0.151 HD
ENDROOT
BRANCH   4   9
ATOM      9  C   UNL     1      -5.061  -0.448  -0.724  0.00  0.00    -0.004 A 
ATOM     10  C   UNL     1      -4.918   0.775  -1.351  0.00  0.00    +0.008 A 
ATOM     11  C   UNL     1      -6.019   1.589  -1.538  0.00  0.00    +0.020 A 
ATOM     12  C   UNL     1      -7.265   1.180  -1.098  0.00  0.00    +0.042 A 
ATOM     13  C   UNL     1      -7.409  -0.044  -0.470  0.00  0.00    +0.040 A 
ATOM     14  C   UNL     1      -6.307  -0.861  -0.287  0.00  0.00    +0.048 A 
ATOM     15 CL   UNL     1      -6.488  -2.400   0.495  0.00  0.00    -0.083 Cl
ATOM     16 CL   UNL     1      -8.648   2.203  -1.332  0.00  0.00    -0.083 Cl
ENDBRANCH   4   9
BRANCH   1  18
ATOM     17  C   UNL     1       0.225   1.463  -0.350  0.00  0.00    +0.025 C 
ATOM     18  C   UNL     1       0.151  -0.049  -0.129  0.00  0.00    +0.111 C 
ENDBRANCH   1  18
BRANCH   3  19
ATOM     19  C   UNL     1      -4.041  -1.143   2.018  0.00  0.00    +0.339 C 
ATOM     20  O   UNL     1      -4.200  -2.236   2.529  0.00  0.00    -0.245 OA
BRANCH  19  21
ATOM     21  O   UNL     1      -4.600  -0.049   2.578  0.00  0.00    -0.462 OA
BRANCH  21  22
ATOM     22  C   UNL     1      -5.270  -0.230   3.826  0.00  0.00    +0.229 C 
ATOM     23  C   UNL     1      -5.939   1.083   4.241  0.00  0.00    +0.048 C 
ENDBRANCH  21  22
ENDBRANCH  19  21
ENDBRANCH   3  19
BRANCH   2  24
ATOM     24  C   UNL     1      -1.356  -0.287   2.217  0.00  0.00    -0.026 C 
BRANCH  24  25
ATOM     25  N   UNL     1      -0.452  -1.375   2.612  0.00  0.00    +0.384 N 
ATOM     26  C   UNL     1      -1.233  -2.592   2.871  0.00  0.00    -0.095 C 
ATOM     27  H   UNL     1       0.208  -1.550   1.869  0.00  0.00    -0.081 HD
BRANCH  25  28
ATOM     28  C   UNL     1       0.274  -0.991   3.831  0.00  0.00    -0.043 C 
BRANCH  28  29
ATOM     29  C   UNL     1       1.289  -2.053   4.167  0.00  0.00    -0.064 A 
ATOM     30  C   UNL     1       0.937  -3.112   4.982  0.00  0.00    +0.002 A 
ATOM     31  C   UNL     1       1.868  -4.086   5.290  0.00  0.00    +0.000 A 
ATOM     32  C   UNL     1       3.151  -4.001   4.783  0.00  0.00    +0.000 A 
ATOM     33  C   UNL     1       3.503  -2.942   3.968  0.00  0.00    +0.000 A 
ATOM     34  C   UNL     1       2.571  -1.970   3.656  0.00  0.00    +0.002 A 
ENDBRANCH  28  29
ENDBRANCH  25  28
ENDBRANCH  24  25
ENDBRANCH   2  24
TORSDOF 9
