REMARK  Name = ZINC63731517
REMARK  6 active torsions:
REMARK  status: ('A' for Active; 'I' for Inactive)
REMARK    1  A    between atoms: C_1  and  C_2
REMARK    2  A    between atoms: C_4  and  N_9
REMARK    3  A    between atoms: C_10  and  S_21
REMARK    4  A    between atoms: C_15  and  C_18
REMARK    5  A    between atoms: S_21  and  C_22
REMARK    6  A    between atoms: C_22  and  C_23
REMARK                            x       y       z     vdW  Elec       q    Type
REMARK                         _______ _______ _______ _____ _____    ______ ____
ROOT
ATOM      1  N   UNL     1       0.028  -2.771  -2.419  0.00  0.00    -0.253 N 
ATOM      2  C   UNL     1       0.151  -4.231  -2.451  0.00  0.00    +0.259 C 
ATOM      3  N   UNL     1      -0.858  -4.864  -3.306  0.00  0.00    -0.230 NA
ATOM      4  C   UNL     1      -1.348  -4.226  -4.319  0.00  0.00    +0.185 C 
ATOM      5  C   UNL     1      -0.991  -2.789  -4.579  0.00  0.00    +0.083 C 
ATOM      6  C   UNL     1      -1.654  -2.454  -5.689  0.00  0.00    +0.075 C 
ATOM      7  N   UNL     1      -2.374  -3.525  -6.086  0.00  0.00    -0.152 NA
ATOM      8  N   UNL     1      -2.221  -4.541  -5.307  0.00  0.00    -0.129 NA
ATOM      9  C   UNL     1      -1.607  -1.114  -6.378  0.00  0.00    +0.068 C 
ATOM     10  C   UNL     1      -0.093  -2.087  -3.643  0.00  0.00    +0.133 C 
ATOM     11  N   UNL     1       0.517  -0.967  -3.919  0.00  0.00    -0.285 NA
ATOM     12  H   UNL     1       0.390  -0.547  -4.784  0.00  0.00    +0.188 HD
ENDROOT
BRANCH   1  16
ATOM     13  C   UNL     1      -0.493   1.457   0.035  0.00  0.00    +0.045 C 
ATOM     14  C   UNL     1      -0.225  -0.026   0.014  0.00  0.00    -0.030 A 
ATOM     15  C   UNL     1      -0.222  -0.710  -1.186  0.00  0.00    +0.028 A 
ATOM     16  C   UNL     1       0.025  -2.076  -1.205  0.00  0.00    +0.038 A 
ATOM     17  C   UNL     1       0.268  -2.752  -0.016  0.00  0.00    +0.025 A 
ATOM     18  C   UNL     1       0.263  -2.064   1.181  0.00  0.00    +0.022 A 
ATOM     19  C   UNL     1       0.023  -0.701   1.196  0.00  0.00    +0.044 A 
ATOM     20 CL   UNL     1       0.025   0.163   2.703  0.00  0.00    -0.083 Cl
ENDBRANCH   1  16
BRANCH   2  21
ATOM     21  S   UNL     1       1.799  -4.667  -3.071  0.00  0.00    -0.109 S 
BRANCH  21  22
ATOM     22  C   UNL     1       1.853  -3.933  -4.729  0.00  0.00    +0.128 C 
BRANCH  22  23
ATOM     23  C   UNL     1       3.187  -4.225  -5.364  0.00  0.00    +0.059 A 
ATOM     24  C   UNL     1       3.284  -5.177  -6.360  0.00  0.00    +0.094 A 
ATOM     25  C   UNL     1       4.534  -5.431  -6.935  0.00  0.00    +0.259 A 
ATOM     26  O   UNL     1       4.653  -6.267  -7.818  0.00  0.00    -0.267 OA
ATOM     27  N   UNL     1       5.607  -4.737  -6.500  0.00  0.00    -0.268 N 
ATOM     28  C   UNL     1       6.831  -4.972  -7.050  0.00  0.00    +0.096 A 
ATOM     29  C   UNL     1       7.920  -4.289  -6.630  0.00  0.00    +0.018 A 
ATOM     30  C   UNL     1       7.801  -3.327  -5.618  0.00  0.00    +0.005 A 
ATOM     31  C   UNL     1       6.581  -3.084  -5.061  0.00  0.00    +0.047 A 
ATOM     32  C   UNL     1       5.459  -3.804  -5.512  0.00  0.00    +0.140 A 
ATOM     33  N   UNL     1       4.265  -3.564  -4.972  0.00  0.00    -0.233 NA
ENDBRANCH  22  23
ENDBRANCH  21  22
ENDBRANCH   2  21
TORSDOF 4
