REMARK  Name = ZINC37425877
REMARK  14 active torsions:
REMARK  status: ('A' for Active; 'I' for Inactive)
REMARK    1  A    between atoms: C_1  and  C_2
REMARK    2  A    between atoms: C_6  and  N_9
REMARK    3  A    between atoms: C_7  and  C_8
REMARK    4  A    between atoms: C_12  and  C_14
REMARK    5  A    between atoms: C_14  and  C_15
REMARK    6  A    between atoms: C_14  and  C_16
REMARK    7  A    between atoms: C_14  and  C_17
REMARK    8  A    between atoms: C_18  and  C_33
REMARK    9  A    between atoms: N_24  and  C_25
REMARK   10  A    between atoms: C_25  and  C_26
REMARK   11  A    between atoms: N_28  and  C_29
REMARK   12  A    between atoms: C_29  and  C_30
REMARK   13  A    between atoms: C_30  and  C_31
REMARK   14  A    between atoms: C_30  and  C_32
REMARK                            x       y       z     vdW  Elec       q    Type
REMARK                         _______ _______ _______ _____ _____    ______ ____
ROOT
ATOM      1  N   UNL     1      -2.555  -4.488   3.659  0.00  0.00    -0.217 N 
ATOM      2  C   UNL     1      -2.889  -5.021   4.858  0.00  0.00    +0.136 A 
ATOM      3  C   UNL     1      -1.938  -4.669   5.754  0.00  0.00    +0.034 A 
ATOM      4  C   UNL     1      -0.985  -3.898   5.088  0.00  0.00    +0.075 A 
ATOM      5  N   UNL     1      -1.347  -3.793   3.832  0.00  0.00    -0.169 NA
ATOM      6  C   UNL     1      -1.944  -5.056   7.211  0.00  0.00    +0.112 C 
ATOM      7  S   UNL     1      -1.517  -6.829   7.345  0.00  0.00    -0.138 S 
ATOM      8  C   UNL     1      -2.446  -7.546   5.949  0.00  0.00    +0.166 C 
ATOM      9  C   UNL     1      -3.814  -6.942   5.856  0.00  0.00    +0.231 C 
ATOM     10  O   UNL     1      -4.752  -7.483   6.404  0.00  0.00    -0.274 OA
ATOM     11  N   UNL     1      -4.006  -5.809   5.173  0.00  0.00    -0.246 N 
ENDROOT
BRANCH   1  17
ATOM     12  C   UNL     1      -3.101  -6.573  -0.762  0.00  0.00    +0.044 C 
ATOM     13  C   UNL     1      -3.564  -5.615   0.305  0.00  0.00    -0.046 A 
ATOM     14  C   UNL     1      -4.704  -4.858   0.107  0.00  0.00    +0.004 A 
ATOM     15  C   UNL     1      -5.132  -3.978   1.083  0.00  0.00    +0.002 A 
ATOM     16  C   UNL     1      -4.422  -3.853   2.262  0.00  0.00    +0.028 A 
ATOM     17  C   UNL     1      -3.278  -4.612   2.464  0.00  0.00    +0.071 A 
ATOM     18  C   UNL     1      -2.853  -5.499   1.483  0.00  0.00    -0.022 A 
ATOM     19  C   UNL     1      -1.615  -6.330   1.702  0.00  0.00    +0.046 C 
ENDBRANCH   1  17
BRANCH   6  20
ATOM     20  C   UNL     1      -0.929  -4.229   7.958  0.00  0.00    -0.023 A 
ATOM     21  C   UNL     1       0.400  -4.606   7.985  0.00  0.00    +0.012 A 
ATOM     22  C   UNL     1       1.288  -3.840   8.665  0.00  0.00    +0.045 A 
ATOM     23  S   UNL     1       0.242  -2.539   9.298  0.00  0.00    -0.105 S 
ATOM     24  C   UNL     1      -1.305  -3.101   8.608  0.00  0.00    +0.050 A 
ENDBRANCH   6  20
BRANCH   4  25
ATOM     25  C   UNL     1       0.252  -3.297   5.703  0.00  0.00    +0.007 C 
ATOM     26  C   UNL     1       1.279  -4.400   5.966  0.00  0.00    +0.017 C 
ATOM     27  C   UNL     1       0.848  -2.263   4.745  0.00  0.00    +0.017 C 
ATOM     28  C   UNL     1      -0.115  -2.616   7.024  0.00  0.00    +0.017 C 
ENDBRANCH   4  25
BRANCH  11  29
ATOM     29  C   UNL     1      -5.351  -5.400   4.762  0.00  0.00    +0.210 C 
BRANCH  29  30
ATOM     30  C   UNL     1      -5.662  -5.982   3.407  0.00  0.00    +0.231 C 
ATOM     31  O   UNL     1      -4.866  -6.721   2.868  0.00  0.00    -0.274 OA
ATOM     32  N   UNL     1      -6.825  -5.681   2.795  0.00  0.00    -0.314 N 
ATOM     33  H   UNL     1      -7.427  -5.031   3.190  0.00  0.00    +0.149 HD
BRANCH  32  34
ATOM     34  C   UNL     1      -7.179  -6.337   1.534  0.00  0.00    +0.107 C 
BRANCH  34  35
ATOM     35  C   UNL     1      -8.476  -5.732   0.992  0.00  0.00    -0.000 C 
ATOM     36  C   UNL     1      -8.780  -6.327  -0.385  0.00  0.00    +0.009 C 
ATOM     37  C   UNL     1      -9.626  -6.049   1.950  0.00  0.00    +0.009 C 
ENDBRANCH  34  35
ENDBRANCH  32  34
ENDBRANCH  29  30
ENDBRANCH  11  29
TORSDOF 7
