REMARK  Name = ZINC45955521
REMARK  2 active torsions:
REMARK  status: ('A' for Active; 'I' for Inactive)
REMARK    1  A    between atoms: C_9  and  O_26
REMARK    2  A    between atoms: C_10  and  O_25
REMARK                            x       y       z     vdW  Elec       q    Type
REMARK                         _______ _______ _______ _____ _____    ______ ____
ROOT
ATOM      1  C   UNL     1      -0.017   1.381   0.010  0.00  0.00    +0.001 A 
ATOM      2  C   UNL     1       1.145   2.128   0.003  0.00  0.00    +0.000 A 
ATOM      3  C   UNL     1       2.401   1.530  -0.036  0.00  0.00    +0.007 A 
ATOM      4  C   UNL     1       2.438   0.152  -0.056  0.00  0.00    -0.000 A 
ATOM      5  C   UNL     1       1.263  -0.620  -0.010  0.00  0.00    +0.028 A 
ATOM      6  C   UNL     1       0.002  -0.004   0.002  0.00  0.00    +0.012 A 
ATOM      7  C   UNL     1       1.594  -2.046   0.084  0.00  0.00    +0.218 C 
ATOM      8  O   UNL     1       0.836  -2.984  -0.041  0.00  0.00    -0.287 OA
ATOM      9  C   UNL     1       3.077  -2.102   0.367  0.00  0.00    +0.242 C 
ATOM     10  C   UNL     1       3.627  -0.779  -0.160  0.00  0.00    +0.152 C 
ATOM     11  C   UNL     1       4.023  -0.864  -1.624  0.00  0.00    +0.121 C 
ATOM     12  C   UNL     1       4.535  -2.215  -2.034  0.00  0.00    +0.134 A 
ATOM     13  N   UNL     1       5.271  -2.258  -3.118  0.00  0.00    -0.232 NA
ATOM     14  C   UNL     1       5.731  -3.414  -3.647  0.00  0.00    +0.078 A 
ATOM     15  C   UNL     1       6.549  -3.436  -4.778  0.00  0.00    +0.030 A 
ATOM     16  C   UNL     1       6.971  -4.641  -5.292  0.00  0.00    +0.022 A 
ATOM     17  C   UNL     1       6.591  -5.840  -4.699  0.00  0.00    +0.042 A 
ATOM     18  C   UNL     1       5.792  -5.843  -3.575  0.00  0.00    +0.035 A 
ATOM     19  C   UNL     1       5.364  -4.633  -3.034  0.00  0.00    +0.068 A 
ATOM     20  C   UNL     1       4.548  -4.563  -1.818  0.00  0.00    +0.279 A 
ATOM     21  O   UNL     1       4.151  -5.574  -1.270  0.00  0.00    -0.265 OA
ATOM     22  N   UNL     1       4.248  -3.332  -1.320  0.00  0.00    -0.213 N 
ATOM     23  N   UNL     1       3.730  -3.291  -0.069  0.00  0.00    -0.241 N 
ATOM     24 CL   UNL     1       7.127  -7.345  -5.379  0.00  0.00    -0.084 Cl
ATOM     25  H   UNL     1       4.405  -3.604   0.613  0.00  0.00    +0.170 HD
ENDROOT
BRANCH  10  26
ATOM     26  O   UNL     1       4.712  -0.318   0.648  0.00  0.00    -0.378 OA
ATOM     27  H   UNL     1       5.049   0.552   0.394  0.00  0.00    +0.211 HD
ENDBRANCH  10  26
BRANCH   9  28
ATOM     28  O   UNL     1       3.219  -2.048   1.788  0.00  0.00    -0.362 OA
ATOM     29  H   UNL     1       2.803  -2.787   2.254  0.00  0.00    +0.213 HD
ENDBRANCH   9  28
TORSDOF 2
