REMARK  Name = ZINC32841104
REMARK  5 active torsions:
REMARK  status: ('A' for Active; 'I' for Inactive)
REMARK    1  A    between atoms: C_5  and  O_7
REMARK    2  A    between atoms: O_7  and  C_8
REMARK    3  A    between atoms: C_8  and  C_9
REMARK    4  A    between atoms: C_9  and  S_10
REMARK    5  A    between atoms: S_10  and  C_11
REMARK                            x       y       z     vdW  Elec       q    Type
REMARK                         _______ _______ _______ _____ _____    ______ ____
ROOT
ATOM      1  C   UNL     1       0.002  -0.004   0.002  0.00  0.00    +0.191 A 
ATOM      2  N   UNL     1      -0.016   1.324   0.009  0.00  0.00    -0.207 NA
ATOM      3  C   UNL     1       1.094   2.042   0.003  0.00  0.00    +0.129 A 
ATOM      4  C   UNL     1       2.353   1.378  -0.013  0.00  0.00    +0.047 A 
ATOM      5  C   UNL     1       3.695   1.935  -0.023  0.00  0.00    +0.021 A 
ATOM      6  C   UNL     1       4.748   1.106  -0.037  0.00  0.00    +0.048 A 
ATOM      7  S   UNL     1       4.003  -0.514  -0.039  0.00  0.00    -0.077 S 
ATOM      8  C   UNL     1       2.296  -0.032  -0.020  0.00  0.00    +0.114 A 
ATOM      9  N   UNL     1       1.145  -0.676  -0.013  0.00  0.00    -0.215 NA
ATOM     10  N   UNL     1       1.033   3.423   0.010  0.00  0.00    -0.343 N 
ATOM     11  H   UNL     1       1.960   4.015   0.004  0.00  0.00    +0.144 HD
ATOM     12  H   UNL     1       0.057   3.930   0.022  0.00  0.00    +0.144 HD
ENDROOT
BRANCH   1  13
ATOM     13  S   UNL     1      -1.521  -0.889   0.012  0.00  0.00    -0.083 S 
BRANCH  13  14
ATOM     14  C   UNL     1      -0.897  -2.588  -0.003  0.00  0.00    +0.118 C 
BRANCH  14  15
ATOM     15  C   UNL     1      -2.076  -3.564   0.004  0.00  0.00    +0.240 C 
BRANCH  15  16
ATOM     16  O   UNL     1      -1.583  -4.906  -0.009  0.00  0.00    -0.490 OA
BRANCH  16  21
ATOM     17  C   UNL     1      -4.798  -6.611   0.014  0.00  0.00    +0.004 A 
ATOM     18  C   UNL     1      -4.389  -7.932   0.003  0.00  0.00    +0.002 A 
ATOM     19  C   UNL     1      -3.042  -8.241  -0.012  0.00  0.00    +0.023 A 
ATOM     20  C   UNL     1      -2.099  -7.229  -0.016  0.00  0.00    +0.083 A 
ATOM     21  C   UNL     1      -2.507  -5.903  -0.005  0.00  0.00    +0.139 A 
ATOM     22  C   UNL     1      -3.860  -5.596   0.016  0.00  0.00    +0.047 A 
ATOM     23 CL   UNL     1      -0.407  -7.618  -0.034  0.00  0.00    -0.080 Cl
ENDBRANCH  16  21
ENDBRANCH  15  16
ENDBRANCH  14  15
ENDBRANCH  13  14
ENDBRANCH   1  13
TORSDOF 5
