REMARK  Name = ZINC49563695
REMARK  7 active torsions:
REMARK  status: ('A' for Active; 'I' for Inactive)
REMARK    1  A    between atoms: C_1  and  O_2
REMARK    2  A    between atoms: O_2  and  C_3
REMARK    3  A    between atoms: C_3  and  C_5
REMARK    4  A    between atoms: C_5  and  N_6
REMARK    5  A    between atoms: C_7  and  C_28
REMARK    6  A    between atoms: C_16  and  C_18
REMARK    7  A    between atoms: C_21  and  N_24
REMARK                            x       y       z     vdW  Elec       q    Type
REMARK                         _______ _______ _______ _____ _____    ______ ____
ROOT
ATOM      1  N   UNL     1       1.451  -2.649  -2.241  0.00  0.00    -0.259 NA
ATOM      2  C   UNL     1       1.740  -4.087  -2.263  0.00  0.00    +0.121 C 
ATOM      3  C   UNL     1       2.365  -4.478  -3.576  0.00  0.00    -0.004 A 
ATOM      4  C   UNL     1       3.090  -5.653  -3.664  0.00  0.00    +0.022 A 
ATOM      5  C   UNL     1       3.668  -6.024  -4.864  0.00  0.00    +0.018 A 
ATOM      6  C   UNL     1       3.524  -5.223  -5.984  0.00  0.00    +0.017 A 
ATOM      7  C   UNL     1       2.802  -4.049  -5.904  0.00  0.00    +0.024 A 
ATOM      8  C   UNL     1       2.223  -3.674  -4.699  0.00  0.00    +0.034 A 
ATOM      9  N   UNL     1       1.496  -2.480  -4.615  0.00  0.00    -0.324 N 
ATOM     10  C   UNL     1       0.664  -2.255  -3.423  0.00  0.00    +0.174 C 
ATOM     11 BR   UNL     1       4.659  -7.631  -4.976  0.00  0.00    -0.050 Br
ATOM     12  H   UNL     1       1.540  -1.819  -5.324  0.00  0.00    +0.148 HD
ENDROOT
BRANCH  10  13
ATOM     13  C   UNL     1       0.294  -0.798  -3.326  0.00  0.00    -0.013 A 
ATOM     14  C   UNL     1       1.282   0.169  -3.355  0.00  0.00    +0.009 A 
ATOM     15  C   UNL     1       0.942   1.506  -3.267  0.00  0.00    +0.033 A 
ATOM     16  C   UNL     1      -0.384   1.877  -3.150  0.00  0.00    +0.126 A 
ATOM     17  C   UNL     1      -1.372   0.909  -3.123  0.00  0.00    +0.033 A 
ATOM     18  C   UNL     1      -1.033  -0.427  -3.215  0.00  0.00    +0.009 A 
BRANCH  16  19
ATOM     19  N   UNL     1      -0.748   3.308  -3.055  0.00  0.00    +0.056 N 
ATOM     20  O   UNL     1       0.116   4.154  -3.079  0.00  0.00    -0.126 OA
ATOM     21  O   UNL     1      -1.908   3.632  -2.953  0.00  0.00    -0.126 OA
ENDBRANCH  16  19
ENDBRANCH  10  13
BRANCH   2  22
ATOM     22  C   UNL     1       2.691  -4.422  -1.144  0.00  0.00    -0.026 A 
ATOM     23  C   UNL     1       3.733  -3.564  -0.843  0.00  0.00    +0.005 A 
ATOM     24  C   UNL     1       4.606  -3.870   0.185  0.00  0.00    +0.000 A 
ATOM     25  C   UNL     1       4.437  -5.035   0.911  0.00  0.00    +0.000 A 
ATOM     26  C   UNL     1       3.395  -5.892   0.610  0.00  0.00    +0.000 A 
ATOM     27  C   UNL     1       2.520  -5.583  -0.414  0.00  0.00    +0.005 A 
ENDBRANCH   2  22
BRANCH   1  28
ATOM     28  C   UNL     1       0.763  -2.269  -1.000  0.00  0.00    +0.208 C 
BRANCH  28  29
ATOM     29  C   UNL     1      -0.594  -2.923  -0.958  0.00  0.00    +0.321 C 
ATOM     30  O   UNL     1      -0.912  -3.711  -1.817  0.00  0.00    -0.249 OA
BRANCH  29  32
ATOM     31  C   UNL     1      -2.672  -3.369   0.075  0.00  0.00    +0.280 C 
ATOM     32  O   UNL     1      -1.450  -2.630   0.034  0.00  0.00    -0.467 OA
ENDBRANCH  29  32
ENDBRANCH  28  29
ENDBRANCH   1  28
TORSDOF 6
