REMARK  Name = ZINC59515419
REMARK  4 active torsions:
REMARK  status: ('A' for Active; 'I' for Inactive)
REMARK    1  A    between atoms: C_6  and  C_7
REMARK    2  A    between atoms: N_8  and  N_9
REMARK    3  A    between atoms: C_10  and  C_12
REMARK    4  A    between atoms: N_14  and  C_15
REMARK                            x       y       z     vdW  Elec       q    Type
REMARK                         _______ _______ _______ _____ _____    ______ ____
ROOT
ATOM      1  N   UNL     1      -2.443  -2.781   0.006  0.00  0.00    -0.199 N 
ATOM      2  C   UNL     1      -2.421  -4.128  -0.004  0.00  0.00    +0.318 C 
ATOM      3  O   UNL     1      -1.360  -4.718  -0.026  0.00  0.00    -0.263 OA
ATOM      4  H   UNL     1      -3.290  -2.309   0.024  0.00  0.00    +0.178 HD
ENDROOT
BRANCH   2   5
ATOM      5  C   UNL     1      -3.700  -4.894   0.013  0.00  0.00    +0.305 C 
ATOM      6  O   UNL     1      -4.761  -4.304   0.035  0.00  0.00    -0.265 OA
ATOM      7  N   UNL     1      -3.679  -6.242   0.004  0.00  0.00    -0.278 N 
ATOM      8  H   UNL     1      -2.835  -6.713  -0.082  0.00  0.00    +0.155 HD
BRANCH   7   9
ATOM      9  C   UNL     1      -4.872  -6.961   0.117  0.00  0.00    +0.034 A 
ATOM     10  C   UNL     1      -4.897  -8.163   0.812  0.00  0.00    +0.024 A 
ATOM     11  C   UNL     1      -6.077  -8.871   0.922  0.00  0.00    +0.017 A 
ATOM     12  C   UNL     1      -7.235  -8.384   0.341  0.00  0.00    +0.018 A 
ATOM     13  C   UNL     1      -7.213  -7.186  -0.352  0.00  0.00    +0.017 A 
ATOM     14  C   UNL     1      -6.037  -6.471  -0.461  0.00  0.00    +0.024 A 
ATOM     15 BR   UNL     1      -8.849  -9.356   0.494  0.00  0.00    -0.050 Br
ENDBRANCH   7   9
ENDBRANCH   2   5
BRANCH   1  17
ATOM     16  C   UNL     1      -1.262  -0.762  -0.001  0.00  0.00    +0.138 C 
ATOM     17  N   UNL     1      -1.241  -2.061  -0.010  0.00  0.00    -0.187 NA
BRANCH  16  23
ATOM     18  C   UNL     1      -0.016   1.393  -0.008  0.00  0.00    +0.010 A 
ATOM     19  C   UNL     1       1.170   2.095  -0.023  0.00  0.00    +0.016 A 
ATOM     20  C   UNL     1       2.379   1.419  -0.049  0.00  0.00    +0.018 A 
ATOM     21  C   UNL     1       2.404   0.035  -0.059  0.00  0.00    +0.016 A 
ATOM     22  C   UNL     1       1.225  -0.680  -0.044  0.00  0.00    +0.010 A 
ATOM     23  C   UNL     1       0.003  -0.004  -0.017  0.00  0.00    -0.005 A 
ATOM     24 BR   UNL     1       4.001   2.391  -0.070  0.00  0.00    -0.050 Br
ENDBRANCH  16  23
ENDBRANCH   1  17
TORSDOF 4
