REMARK  Name = ZINC40826357
REMARK  6 active torsions:
REMARK  status: ('A' for Active; 'I' for Inactive)
REMARK    1  A    between atoms: C_1  and  C_2
REMARK    2  A    between atoms: C_6  and  C_7
REMARK    3  A    between atoms: C_18  and  C_20
REMARK    4  A    between atoms: N_26  and  N_27
REMARK    5  A    between atoms: C_28  and  C_30
REMARK    6  A    between atoms: C_35  and  O_36
REMARK                            x       y       z     vdW  Elec       q    Type
REMARK                         _______ _______ _______ _____ _____    ______ ____
ROOT
ATOM      1  C   UNL     1       0.549   0.194  -0.291  0.00  0.00    +0.048 C 
ATOM      2  C   UNL     1      -0.578  -0.765  -0.011  0.00  0.00    +0.009 A 
ATOM      3  C   UNL     1      -1.310  -1.500  -0.952  0.00  0.00    +0.042 A 
ATOM      4  C   UNL     1      -2.240  -2.243  -0.264  0.00  0.00    +0.115 A 
ATOM      5  O   UNL     1      -2.092  -1.987   1.034  0.00  0.00    -0.454 OA
ATOM      6  C   UNL     1      -1.089  -1.097   1.213  0.00  0.00    +0.193 A 
ATOM      7  C   UNL     1      -3.222  -3.163  -0.944  0.00  0.00    +0.075 C 
ATOM      8  C   UNL     1      -3.367  -2.755  -2.412  0.00  0.00    +0.014 C 
ATOM      9  C   UNL     1      -1.995  -2.674  -3.090  0.00  0.00    +0.058 C 
ATOM     10  C   UNL     1      -1.202  -1.558  -2.427  0.00  0.00    +0.070 C 
ATOM     11  N   UNL     1      -0.482  -0.717  -3.105  0.00  0.00    -0.184 NA
ENDROOT
BRANCH   6  12
ATOM     12  C   UNL     1      -0.628  -0.574   2.504  0.00  0.00    +0.287 C 
ATOM     13  O   UNL     1      -0.434   0.619   2.643  0.00  0.00    -0.266 OA
ATOM     14  N   UNL     1      -0.419  -1.415   3.536  0.00  0.00    -0.262 N 
ATOM     15  C   UNL     1      -0.448  -2.804   3.342  0.00  0.00    +0.040 A 
ATOM     16  C   UNL     1      -0.411  -3.306   2.046  0.00  0.00    +0.026 A 
ATOM     17  C   UNL     1      -0.443  -4.669   1.831  0.00  0.00    +0.040 A 
ATOM     18  C   UNL     1      -0.512  -5.536   2.909  0.00  0.00    +0.124 A 
ATOM     19  C   UNL     1      -0.546  -5.037   4.199  0.00  0.00    +0.043 A 
ATOM     20  C   UNL     1      -0.513  -3.670   4.421  0.00  0.00    -0.023 A 
ATOM     21  C   UNL     1      -0.543  -3.162   5.838  0.00  0.00    +0.039 C 
ATOM     22  C   UNL     1      -1.003  -1.705   5.874  0.00  0.00    +0.027 C 
ATOM     23  C   UNL     1      -0.151  -0.893   4.883  0.00  0.00    +0.079 C 
ATOM     24  C   UNL     1      -0.542   0.585   4.952  0.00  0.00    +0.028 C 
ATOM     25  F   UNL     1      -0.545  -6.870   2.701  0.00  0.00    -0.205 F 
ENDBRANCH   6  12
BRANCH  11  26
ATOM     26  N   UNL     1      -0.417  -0.819  -4.501  0.00  0.00    -0.203 N 
ATOM     27  C   UNL     1       0.331   0.054  -5.206  0.00  0.00    +0.267 C 
ATOM     28  O   UNL     1       0.948   0.929  -4.630  0.00  0.00    -0.268 OA
ATOM     29  H   UNL     1      -0.909  -1.518  -4.960  0.00  0.00    +0.178 HD
BRANCH  27  30
ATOM     30  C   UNL     1       0.400  -0.053  -6.675  0.00  0.00    +0.080 A 
ATOM     31  C   UNL     1      -0.312  -1.054  -7.341  0.00  0.00    +0.017 A 
ATOM     32  C   UNL     1      -0.243  -1.149  -8.714  0.00  0.00    +0.001 A 
ATOM     33  C   UNL     1       0.529  -0.256  -9.438  0.00  0.00    +0.004 A 
ATOM     34  C   UNL     1       1.238   0.738  -8.793  0.00  0.00    +0.046 A 
ATOM     35  C   UNL     1       1.175   0.852  -7.412  0.00  0.00    +0.129 A 
BRANCH  35  36
ATOM     36  O   UNL     1       1.867   1.832  -6.777  0.00  0.00    -0.506 OA
ATOM     37  H   UNL     1       2.764   1.577  -6.521  0.00  0.00    +0.292 HD
ENDBRANCH  35  36
ENDBRANCH  27  30
ENDBRANCH  11  26
TORSDOF 4
