REMARK  Name = ZINC05607174
REMARK  6 active torsions:
REMARK  status: ('A' for Active; 'I' for Inactive)
REMARK    1  A    between atoms: C_1  and  C_2
REMARK    2  A    between atoms: C_5  and  N_8
REMARK    3  A    between atoms: C_9  and  C_11
REMARK    4  A    between atoms: C_11  and  C_13
REMARK    5  A    between atoms: C_11  and  N_14
REMARK    6  A    between atoms: C_25  and  C_29
REMARK                            x       y       z     vdW  Elec       q    Type
REMARK                         _______ _______ _______ _____ _____    ______ ____
ROOT
ATOM      1  N   UNL     1      -2.321   5.580   0.356  0.00  0.00    -0.199 N 
ATOM      2  C   UNL     1      -2.835   6.413  -0.570  0.00  0.00    +0.279 A 
ATOM      3  O   UNL     1      -3.503   5.979  -1.492  0.00  0.00    -0.265 OA
ATOM      4  C   UNL     1      -2.581   7.821  -0.451  0.00  0.00    +0.079 A 
ATOM      5  C   UNL     1      -3.034   8.896  -1.329  0.00  0.00    -0.023 A 
ATOM      6  C   UNL     1      -2.659  10.153  -1.003  0.00  0.00    -0.004 A 
ATOM      7  S   UNL     1      -1.695   9.975   0.473  0.00  0.00    -0.071 S 
ATOM      8  C   UNL     1      -1.800   8.211   0.648  0.00  0.00    +0.138 A 
ATOM      9  N   UNL     1      -1.321   7.338   1.529  0.00  0.00    -0.123 NA
ATOM     10  N   UNL     1      -1.559   6.076   1.419  0.00  0.00    -0.061 NA
ATOM     11  C   UNL     1      -2.991  11.418  -1.735  0.00  0.00    +0.046 C 
ATOM     12  C   UNL     1      -4.138  11.124  -2.713  0.00  0.00    -0.009 C 
ATOM     13  C   UNL     1      -3.804   9.848  -3.491  0.00  0.00    +0.008 C 
ATOM     14  C   UNL     1      -3.891   8.635  -2.564  0.00  0.00    +0.037 C 
ATOM     15  C   UNL     1      -4.293  12.293  -3.687  0.00  0.00    +0.008 C 
ENDROOT
BRANCH   1  16
ATOM     16  C   UNL     1      -2.569   4.140   0.252  0.00  0.00    +0.195 C 
ATOM     17  C   UNL     1      -3.304   3.658   1.504  0.00  0.00    +0.043 C 
BRANCH  16  19
ATOM     18  N   UNL     1      -1.237   2.069   0.019  0.00  0.00    -0.284 N 
ATOM     19  C   UNL     1      -1.255   3.412   0.128  0.00  0.00    +0.242 C 
ATOM     20  O   UNL     1      -0.215   4.035   0.127  0.00  0.00    -0.273 OA
ATOM     21  H   UNL     1      -2.070   1.577  -0.057  0.00  0.00    +0.155 HD
BRANCH  18  26
ATOM     22  C   UNL     1       3.704  -0.719   0.019  0.00  0.00    +0.044 C 
ATOM     23  C   UNL     1       2.392   0.023   0.018  0.00  0.00    -0.050 A 
ATOM     24  C   UNL     1       2.252   1.180   0.763  0.00  0.00    +0.005 A 
ATOM     25  C   UNL     1       1.051   1.861   0.764  0.00  0.00    +0.023 A 
ATOM     26  C   UNL     1      -0.017   1.384   0.016  0.00  0.00    +0.033 A 
ATOM     27  C   UNL     1       0.127   0.222  -0.732  0.00  0.00    +0.023 A 
ATOM     28  C   UNL     1       1.330  -0.455  -0.729  0.00  0.00    +0.005 A 
ENDBRANCH  18  26
ENDBRANCH  16  19
ENDBRANCH   1  16
TORSDOF 3
