REMARK  Name = ZINC35937885
REMARK  3 active torsions:
REMARK  status: ('A' for Active; 'I' for Inactive)
REMARK    1  A    between atoms: C_4  and  N_25
REMARK    2  A    between atoms: C_5  and  C_7
REMARK    3  A    between atoms: C_7  and  N_8
REMARK                            x       y       z     vdW  Elec       q    Type
REMARK                         _______ _______ _______ _____ _____    ______ ____
ROOT
ATOM      1  N   UNL     1       1.216  -2.618   1.386  0.00  0.00    +0.383 N 
ATOM      2  C   UNL     1       2.441  -2.143   2.040  0.00  0.00    -0.075 C 
ATOM      3  C   UNL     1       2.462  -2.613   3.496  0.00  0.00    +0.027 C 
ATOM      4  C   UNL     1       2.424  -4.143   3.533  0.00  0.00    +0.095 C 
ATOM      5  C   UNL     1       1.181  -4.631   2.783  0.00  0.00    +0.027 C 
ATOM      6  C   UNL     1       1.206  -4.085   1.354  0.00  0.00    -0.075 C 
ATOM      7  N   UNL     1       2.351  -4.592   4.928  0.00  0.00    -0.323 N 
ATOM      8  C   UNL     1       3.508  -4.572   5.701  0.00  0.00    +0.041 A 
ATOM      9  C   UNL     1       3.463  -4.404   7.075  0.00  0.00    +0.025 A 
ATOM     10  C   UNL     1       4.638  -4.402   7.802  0.00  0.00    +0.022 A 
ATOM     11  C   UNL     1       5.860  -4.567   7.168  0.00  0.00    +0.042 A 
ATOM     12  C   UNL     1       5.921  -4.732   5.799  0.00  0.00    +0.035 A 
ATOM     13  C   UNL     1       4.745  -4.731   5.053  0.00  0.00    +0.059 A 
ATOM     14  C   UNL     1       4.760  -4.878   3.587  0.00  0.00    +0.247 C 
ATOM     15  O   UNL     1       5.788  -5.179   3.011  0.00  0.00    -0.270 OA
ATOM     16  N   UNL     1       3.624  -4.678   2.889  0.00  0.00    -0.291 N 
ATOM     17 CL   UNL     1       7.323  -4.567   8.103  0.00  0.00    -0.084 Cl
ATOM     18  H   UNL     1       1.511  -4.897   5.306  0.00  0.00    +0.148 HD
ATOM     19  H   UNL     1       3.602  -4.891   1.943  0.00  0.00    +0.151 HD
ATOM     20  H   UNL     1       0.413  -2.289   1.901  0.00  0.00    -0.081 HD
ENDROOT
BRANCH   1  21
ATOM     21  C   UNL     1       1.162  -2.099   0.013  0.00  0.00    -0.041 C 
BRANCH  21  26
ATOM     22  C   UNL     1       1.974   1.581  -0.215  0.00  0.00    +0.000 A 
ATOM     23  C   UNL     1       0.760   2.153   0.116  0.00  0.00    +0.002 A 
ATOM     24  C   UNL     1      -0.324   1.349   0.414  0.00  0.00    +0.033 A 
ATOM     25  C   UNL     1      -0.194  -0.027   0.380  0.00  0.00    +0.128 A 
ATOM     26  C   UNL     1       1.020  -0.599   0.049  0.00  0.00    -0.034 A 
ATOM     27  C   UNL     1       2.104   0.206  -0.248  0.00  0.00    +0.004 A 
BRANCH  25  28
ATOM     28  N   UNL     1      -1.355  -0.888   0.700  0.00  0.00    +0.057 N 
ATOM     29  O   UNL     1      -2.389  -0.392   1.082  0.00  0.00    -0.126 OA
ATOM     30  O   UNL     1      -1.269  -2.088   0.579  0.00  0.00    -0.126 OA
ENDBRANCH  25  28
ENDBRANCH  21  26
ENDBRANCH   1  21
TORSDOF 3
