REMARK  Name = ZINC49513059
REMARK  7 active torsions:
REMARK  status: ('A' for Active; 'I' for Inactive)
REMARK    1  A    between atoms: C_1  and  N_2
REMARK    2  A    between atoms: C_6  and  C_7
REMARK    3  A    between atoms: C_7  and  C_9
REMARK    4  A    between atoms: C_7  and  N_30
REMARK    5  A    between atoms: C_9  and  N_10
REMARK    6  A    between atoms: C_11  and  C_13
REMARK    7  A    between atoms: N_15  and  C_16
REMARK                            x       y       z     vdW  Elec       q    Type
REMARK                         _______ _______ _______ _____ _____    ______ ____
ROOT
ATOM      1  N   UNL     1      -1.021   0.656   4.431  0.00  0.00    -0.309 N 
ATOM      2  C   UNL     1      -2.122   1.082   5.082  0.00  0.00    +0.299 C 
ATOM      3  O   UNL     1      -3.180   1.168   4.495  0.00  0.00    -0.265 OA
ATOM      4  H   UNL     1      -0.175   0.587   4.901  0.00  0.00    +0.149 HD
ENDROOT
BRANCH   2   5
ATOM      5  C   UNL     1      -2.039   1.447   6.528  0.00  0.00    +0.303 C 
ATOM      6  O   UNL     1      -0.980   1.361   7.116  0.00  0.00    -0.265 OA
ATOM      7  N   UNL     1      -3.139   1.873   7.180  0.00  0.00    -0.278 N 
ATOM      8  H   UNL     1      -3.999   1.873   6.731  0.00  0.00    +0.155 HD
BRANCH   7   9
ATOM      9  C   UNL     1      -3.041   2.314   8.503  0.00  0.00    +0.034 A 
ATOM     10  C   UNL     1      -1.905   2.988   8.929  0.00  0.00    +0.028 A 
ATOM     11  C   UNL     1      -1.807   3.433  10.235  0.00  0.00    -0.024 A 
ATOM     12  C   UNL     1      -2.853   3.210  11.120  0.00  0.00    +0.043 A 
ATOM     13  C   UNL     1      -3.983   2.519  10.698  0.00  0.00    -0.023 A 
ATOM     14  C   UNL     1      -4.082   2.084   9.392  0.00  0.00    +0.028 A 
ATOM     15  C   UNL     1      -5.101   2.225  11.665  0.00  0.00    +0.046 C 
ATOM     16  C   UNL     1      -5.223   3.357  12.683  0.00  0.00    +0.101 C 
ATOM     17  C   UNL     1      -3.863   3.698  13.231  0.00  0.00    +0.220 C 
ATOM     18  O   UNL     1      -3.748   4.005  14.399  0.00  0.00    -0.275 OA
ATOM     19  N   UNL     1      -2.776   3.665  12.443  0.00  0.00    -0.271 N 
ATOM     20  C   UNL     1      -1.480   4.113  12.971  0.00  0.00    +0.114 C 
ATOM     21  C   UNL     1      -0.821   4.999  11.906  0.00  0.00    +0.024 C 
ATOM     22  C   UNL     1      -0.556   4.155  10.661  0.00  0.00    +0.038 C 
ENDBRANCH   7   9
ENDBRANCH   2   5
BRANCH   1  23
ATOM     23  C   UNL     1      -1.103   0.297   3.013  0.00  0.00    +0.095 C 
BRANCH  23  24
ATOM     24  C   UNL     1       0.242  -0.269   2.552  0.00  0.00    -0.003 C 
BRANCH  24  25
ATOM     25  N   UNL     1       0.613  -1.406   3.405  0.00  0.00    +0.386 N 
ATOM     26  C   UNL     1       1.897  -1.956   2.929  0.00  0.00    -0.078 C 
ATOM     27  C   UNL     1       2.564  -2.665   4.080  0.00  0.00    -0.019 C 
ATOM     28  C   UNL     1       2.273  -4.177   4.055  0.00  0.00    -0.002 C 
ATOM     29  C   UNL     1       0.808  -4.472   3.675  0.00  0.00    -0.002 C 
ATOM     30  C   UNL     1      -0.159  -3.523   4.336  0.00  0.00    -0.019 C 
ATOM     31  C   UNL     1      -0.428  -2.337   3.387  0.00  0.00    -0.078 C 
ATOM     32  H   UNL     1       0.735  -1.075   4.350  0.00  0.00    -0.081 HD
ENDBRANCH  24  25
BRANCH  24  38
ATOM     33  C   UNL     1      -0.371   1.510   0.088  0.00  0.00    +0.148 C 
ATOM     34  N   UNL     1      -0.140   0.064   0.046  0.00  0.00    -0.355 N 
ATOM     35  C   UNL     1      -0.155  -0.711  -1.076  0.00  0.00    +0.085 A 
ATOM     36  C   UNL     1       0.098  -1.984  -0.713  0.00  0.00    +0.019 A 
ATOM     37  C   UNL     1       0.276  -1.997   0.685  0.00  0.00    +0.021 A 
ATOM     38  C   UNL     1       0.130  -0.729   1.121  0.00  0.00    +0.006 A 
ENDBRANCH  24  38
ENDBRANCH  23  24
ENDBRANCH   1  23
TORSDOF 6
