REMARK  Name = ZINC60380705
REMARK  8 active torsions:
REMARK  status: ('A' for Active; 'I' for Inactive)
REMARK    1  A    between atoms: C_1  and  C_2
REMARK    2  A    between atoms: C_2  and  C_4
REMARK    3  A    between atoms: C_2  and  O_19
REMARK    4  A    between atoms: N_6  and  C_7
REMARK    5  A    between atoms: C_8  and  C_17
REMARK    6  A    between atoms: O_19  and  C_20
REMARK    7  A    between atoms: C_20  and  C_22
REMARK    8  A    between atoms: C_24  and  N_29
REMARK                            x       y       z     vdW  Elec       q    Type
REMARK                         _______ _______ _______ _____ _____    ______ ____
ROOT
ATOM      1  C   UNL     1       0.731  -0.503   1.223  0.00  0.00    +0.258 C 
ATOM      2  O   UNL     1       0.135  -1.137   2.068  0.00  0.00    -0.271 OA
ATOM      3  N   UNL     1       2.045  -0.246   1.375  0.00  0.00    -0.276 N 
ATOM      4  H   UNL     1       2.522   0.261   0.699  0.00  0.00    +0.155 HD
ENDROOT
BRANCH   3   5
ATOM      5  C   UNL     1       2.716  -0.706   2.500  0.00  0.00    +0.090 A 
ATOM      6  C   UNL     1       4.050  -0.533   2.824  0.00  0.00    +0.084 A 
ATOM      7  C   UNL     1       4.518  -1.119   4.073  0.00  0.00    -0.018 A 
ATOM      8  C   UNL     1       3.559  -1.774   4.762  0.00  0.00    -0.004 A 
ATOM      9  S   UNL     1       2.095  -1.592   3.783  0.00  0.00    -0.077 S 
ATOM     10  C   UNL     1       3.703  -2.500   6.063  0.00  0.00    +0.043 C 
ATOM     11  C   UNL     1       4.439  -1.599   7.064  0.00  0.00    +0.005 C 
ATOM     12  C   UNL     1       5.939  -1.841   6.926  0.00  0.00    +0.001 C 
ATOM     13  C   UNL     1       6.290  -2.170   5.476  0.00  0.00    +0.005 C 
ATOM     14  C   UNL     1       5.952  -0.993   4.566  0.00  0.00    +0.037 C 
BRANCH   6  15
ATOM     15  C   UNL     1       4.937   0.192   1.965  0.00  0.00    +0.102 C 
ATOM     16  N   UNL     1       5.640   0.767   1.283  0.00  0.00    -0.191 NA
ENDBRANCH   6  15
ENDBRANCH   3   5
BRANCH   1  18
ATOM     17  C   UNL     1      -0.019   1.526   0.010  0.00  0.00    +0.062 C 
ATOM     18  C   UNL     1       0.002  -0.004   0.002  0.00  0.00    +0.259 C 
BRANCH  18  19
ATOM     19  O   UNL     1      -1.339  -0.499   0.012  0.00  0.00    -0.449 OA
BRANCH  19  20
ATOM     20  C   UNL     1      -1.924  -0.704  -1.184  0.00  0.00    +0.341 C 
ATOM     21  O   UNL     1      -1.313  -0.469  -2.207  0.00  0.00    -0.245 OA
BRANCH  20  22
ATOM     22  C   UNL     1      -3.308  -1.214  -1.251  0.00  0.00    +0.079 A 
ATOM     23  C   UNL     1      -4.014  -1.479  -0.076  0.00  0.00    +0.039 A 
ATOM     24  C   UNL     1      -5.313  -1.957  -0.147  0.00  0.00    +0.025 A 
ATOM     25  C   UNL     1      -5.909  -2.171  -1.385  0.00  0.00    +0.024 A 
ATOM     26  C   UNL     1      -5.211  -1.910  -2.548  0.00  0.00    +0.022 A 
ATOM     27  C   UNL     1      -3.918  -1.428  -2.490  0.00  0.00    +0.055 A 
ATOM     28 CL   UNL     1      -3.048  -1.094  -3.955  0.00  0.00    -0.083 Cl
BRANCH  24  29
ATOM     29  N   UNL     1      -6.024  -2.224   1.026  0.00  0.00    -0.358 N 
ATOM     30  H   UNL     1      -5.609  -2.075   1.890  0.00  0.00    +0.142 HD
ATOM     31  H   UNL     1      -6.934  -2.558   0.977  0.00  0.00    +0.142 HD
ENDBRANCH  24  29
ENDBRANCH  20  22
ENDBRANCH  19  20
ENDBRANCH  18  19
ENDBRANCH   1  18
TORSDOF 7
