REMARK  Name = ZINC21233413
REMARK  10 active torsions:
REMARK  status: ('A' for Active; 'I' for Inactive)
REMARK    1  A    between atoms: C_1  and  C_2
REMARK    2  A    between atoms: C_2  and  O_3
REMARK    3  A    between atoms: O_3  and  C_4
REMARK    4  A    between atoms: C_6  and  C_14
REMARK    5  A    between atoms: C_8  and  N_11
REMARK    6  A    between atoms: C_9  and  O_10
REMARK    7  A    between atoms: C_19  and  C_24
REMARK    8  A    between atoms: C_27  and  N_30
REMARK    9  A    between atoms: N_30  and  C_31
REMARK   10  A    between atoms: N_30  and  C_32
REMARK                            x       y       z     vdW  Elec       q    Type
REMARK                         _______ _______ _______ _____ _____    ______ ____
ROOT
ATOM      1  C   UNL     1       5.671   6.774   0.079  0.00  0.00    +0.136 C 
ATOM      2  C   UNL     1       4.340   6.061   0.131  0.00  0.00    +0.036 C 
ATOM      3  C   UNL     1       3.638   5.626  -0.928  0.00  0.00    +0.017 C 
ATOM      4  C   UNL     1       2.308   4.916  -0.731  0.00  0.00    +0.059 C 
ATOM      5  C   UNL     1       2.330   4.124   0.576  0.00  0.00    +0.032 C 
ATOM      6  C   UNL     1       2.577   5.117   1.718  0.00  0.00    +0.088 C 
ATOM      7  C   UNL     1       3.855   5.851   1.443  0.00  0.00    +0.163 C 
ATOM      8  O   UNL     1       4.497   6.281   2.381  0.00  0.00    -0.292 OA
ATOM      9  N   UNL     1       4.009   5.777  -2.226  0.00  0.00    -0.316 N 
ATOM     10  C   UNL     1       5.279   5.507  -2.726  0.00  0.00    +0.052 A 
ATOM     11  C   UNL     1       5.512   4.513  -3.660  0.00  0.00    +0.025 A 
ATOM     12  C   UNL     1       6.793   4.332  -4.153  0.00  0.00    +0.002 A 
ATOM     13  C   UNL     1       7.827   5.141  -3.717  0.00  0.00    +0.002 A 
ATOM     14  C   UNL     1       7.598   6.122  -2.769  0.00  0.00    +0.025 A 
ATOM     15  C   UNL     1       6.321   6.291  -2.255  0.00  0.00    +0.049 A 
ATOM     16  N   UNL     1       6.063   7.212  -1.243  0.00  0.00    -0.331 N 
ATOM     17  H   UNL     1       3.281   6.138  -2.968  0.00  0.00    +0.152 HD
ATOM     18  H   UNL     1       6.162   8.285  -1.461  0.00  0.00    +0.147 HD
ENDROOT
BRANCH   1  21
ATOM     19  C   UNL     1       8.403   5.321   2.247  0.00  0.00    +0.164 A 
ATOM     20  C   UNL     1       7.427   6.174   1.758  0.00  0.00    +0.055 A 
ATOM     21  C   UNL     1       6.732   5.844   0.610  0.00  0.00    -0.017 A 
ATOM     22  C   UNL     1       7.004   4.660  -0.051  0.00  0.00    +0.042 A 
ATOM     23  C   UNL     1       7.980   3.807   0.429  0.00  0.00    +0.171 A 
ATOM     24  C   UNL     1       8.681   4.132   1.579  0.00  0.00    +0.189 A 
BRANCH  23  25
ATOM     25  N   UNL     1       8.274   2.543  -0.284  0.00  0.00    +0.060 N 
ATOM     26  O   UNL     1       7.658   2.257  -1.296  0.00  0.00    -0.126 OA
ATOM     27  O   UNL     1       9.131   1.789   0.141  0.00  0.00    -0.126 OA
ENDBRANCH  23  25
BRANCH  24  28
ATOM     28  O   UNL     1       9.638   3.291   2.055  0.00  0.00    -0.502 OA
ATOM     29  H   UNL     1       9.857   2.351   1.526  0.00  0.00    +0.292 HD
ENDBRANCH  24  28
BRANCH  19  30
ATOM     30  O   UNL     1       9.087   5.644   3.377  0.00  0.00    -0.488 OA
BRANCH  30  32
ATOM     31  C   UNL     1       9.616   7.070   5.255  0.00  0.00    +0.048 C 
ATOM     32  C   UNL     1       8.748   6.880   4.009  0.00  0.00    +0.226 C 
ENDBRANCH  30  32
ENDBRANCH  19  30
ENDBRANCH   1  21
BRANCH   5  33
ATOM     33  C   UNL     1       1.006   3.433   0.776  0.00  0.00    -0.043 A 
ATOM     34  C   UNL     1       0.959   2.058   0.911  0.00  0.00    +0.006 A 
ATOM     35  C   UNL     1      -0.253   1.421   1.095  0.00  0.00    +0.023 A 
ATOM     36  C   UNL     1      -1.426   2.164   1.139  0.00  0.00    +0.029 A 
ATOM     37  C   UNL     1      -1.375   3.546   1.009  0.00  0.00    +0.023 A 
ATOM     38  C   UNL     1      -0.160   4.176   0.825  0.00  0.00    +0.006 A 
BRANCH  36  39
ATOM     39  N   UNL     1      -2.654   1.523   1.319  0.00  0.00    -0.336 N 
ATOM     40  C   UNL     1      -2.706   0.066   1.462  0.00  0.00    +0.129 C 
ATOM     41  C   UNL     1      -3.890   2.308   1.365  0.00  0.00    +0.129 C 
ENDBRANCH  36  39
ENDBRANCH   5  33
TORSDOF 7
