REMARK  Name = ZINC40816277
REMARK  5 active torsions:
REMARK  status: ('A' for Active; 'I' for Inactive)
REMARK    1  A    between atoms: C_1  and  C_2
REMARK    2  A    between atoms: C_9  and  C_12
REMARK    3  A    between atoms: C_19  and  O_27
REMARK    4  A    between atoms: C_20  and  O_26
REMARK    5  A    between atoms: C_23  and  C_25
REMARK                            x       y       z     vdW  Elec       q    Type
REMARK                         _______ _______ _______ _____ _____    ______ ____
ROOT
ATOM      1  C   UNL     1       0.089  -5.575   2.321  0.00  0.00    +0.265 C 
ATOM      2  O   UNL     1       0.186  -5.602   3.533  0.00  0.00    -0.268 OA
ATOM      3  N   UNL     1      -0.001  -6.726   1.626  0.00  0.00    -0.289 N 
ATOM      4  C   UNL     1      -0.006  -6.733   0.153  0.00  0.00    +0.113 C 
ATOM      5  C   UNL     1      -1.362  -7.265  -0.309  0.00  0.00    +0.054 C 
ATOM      6  C   UNL     1      -1.728  -8.521   0.438  0.00  0.00    -0.037 A 
ATOM      7  C   UNL     1      -2.683  -9.354  -0.134  0.00  0.00    +0.053 A 
ATOM      8  C   UNL     1      -3.074 -10.518   0.500  0.00  0.00    +0.158 A 
ATOM      9  C   UNL     1      -2.506 -10.858   1.725  0.00  0.00    +0.159 A 
ATOM     10  C   UNL     1      -1.554 -10.030   2.290  0.00  0.00    +0.055 A 
ATOM     11  C   UNL     1      -1.161  -8.864   1.645  0.00  0.00    -0.020 A 
ATOM     12  C   UNL     1      -0.092  -8.023   2.305  0.00  0.00    +0.104 C 
ATOM     13  C   UNL     1       1.256  -8.740   2.215  0.00  0.00    +0.033 C 
ENDROOT
BRANCH   1  22
ATOM     14  C   UNL     1       1.295   0.648  -1.586  0.00  0.00    +0.044 C 
ATOM     15  C   UNL     1       0.618  -0.405  -0.747  0.00  0.00    -0.050 A 
ATOM     16  C   UNL     1      -0.701  -0.225  -0.349  0.00  0.00    +0.005 A 
ATOM     17  C   UNL     1      -1.338  -1.174   0.419  0.00  0.00    +0.026 A 
ATOM     18  C   UNL     1      -0.656  -2.327   0.801  0.00  0.00    +0.048 A 
ATOM     19  C   UNL     1       0.680  -2.507   0.396  0.00  0.00    +0.019 A 
ATOM     20  C   UNL     1       1.305  -1.529  -0.389  0.00  0.00    +0.014 A 
ATOM     21  C   UNL     1       1.109  -3.750   0.923  0.00  0.00    +0.078 A 
ATOM     22  C   UNL     1       0.069  -4.287   1.615  0.00  0.00    +0.122 A 
ATOM     23  N   UNL     1      -1.012  -3.426   1.546  0.00  0.00    -0.349 N 
ATOM     24  H   UNL     1      -1.879  -3.574   1.955  0.00  0.00    +0.166 HD
ATOM     25 CL   UNL     1       2.681  -4.460   0.723  0.00  0.00    -0.081 Cl
ENDBRANCH   1  22
BRANCH   9  26
ATOM     26  O   UNL     1      -2.885 -11.999   2.362  0.00  0.00    -0.503 OA
ATOM     27  H   UNL     1      -2.358 -12.774   2.127  0.00  0.00    +0.292 HD
ENDBRANCH   9  26
BRANCH   8  28
ATOM     28  O   UNL     1      -4.008 -11.326  -0.068  0.00  0.00    -0.503 OA
ATOM     29  H   UNL     1      -3.639 -12.003  -0.652  0.00  0.00    +0.292 HD
ENDBRANCH   8  28
TORSDOF 3
