REMARK  Name = ZINC67634857
REMARK  9 active torsions:
REMARK  status: ('A' for Active; 'I' for Inactive)
REMARK    1  A    between atoms: C_1  and  C_2
REMARK    2  A    between atoms: C_3  and  C_28
REMARK    3  A    between atoms: C_9  and  C_12
REMARK    4  A    between atoms: C_12  and  N_13
REMARK    5  A    between atoms: N_16  and  C_17
REMARK    6  A    between atoms: N_16  and  C_18
REMARK    7  A    between atoms: C_18  and  C_20
REMARK    8  A    between atoms: C_18  and  C_21
REMARK    9  A    between atoms: C_25  and  O_27
REMARK                            x       y       z     vdW  Elec       q    Type
REMARK                         _______ _______ _______ _____ _____    ______ ____
ROOT
ATOM      1  N   UNL     1      -1.668  -1.407   5.235  0.00  0.00    -0.295 N 
ATOM      2  C   UNL     1      -1.693  -1.221   6.570  0.00  0.00    +0.303 C 
ATOM      3  O   UNL     1      -0.652  -1.147   7.193  0.00  0.00    -0.253 OA
ATOM      4  N   UNL     1      -2.873  -1.118   7.214  0.00  0.00    -0.282 N 
ATOM      5  C   UNL     1      -4.128  -1.207   6.463  0.00  0.00    +0.134 C 
ATOM      6  H   UNL     1      -2.499  -1.466   4.738  0.00  0.00    +0.151 HD
ENDROOT
BRANCH   4   7
ATOM      7  C   UNL     1      -2.900  -0.916   8.665  0.00  0.00    +0.104 C 
ATOM      8  C   UNL     1      -3.557  -2.125   9.335  0.00  0.00    +0.033 C 
BRANCH   7   9
ATOM      9  C   UNL     1      -3.690   0.326   8.985  0.00  0.00    -0.024 A 
ATOM     10  C   UNL     1      -4.388   0.414  10.175  0.00  0.00    +0.006 A 
ATOM     11  C   UNL     1      -5.114   1.552  10.471  0.00  0.00    +0.004 A 
ATOM     12  C   UNL     1      -5.143   2.606   9.578  0.00  0.00    +0.045 A 
ATOM     13  C   UNL     1      -4.443   2.521   8.384  0.00  0.00    +0.117 A 
ATOM     14  C   UNL     1      -3.711   1.380   8.091  0.00  0.00    +0.050 A 
BRANCH  13  15
ATOM     15  O   UNL     1      -4.470   3.557   7.504  0.00  0.00    -0.507 OA
ATOM     16  H   UNL     1      -3.768   4.207   7.640  0.00  0.00    +0.292 HD
ENDBRANCH  13  15
ENDBRANCH   7   9
ENDBRANCH   4   7
BRANCH   1  17
ATOM     17  C   UNL     1      -0.387  -1.519   4.535  0.00  0.00    +0.141 C 
BRANCH  17  26
ATOM     18  C   UNL     1      -1.059   1.592  -0.228  0.00  0.00    +0.046 C 
ATOM     19  C   UNL     1      -1.117   0.087  -0.267  0.00  0.00    -0.022 A 
ATOM     20  C   UNL     1      -1.315  -0.677  -1.353  0.00  0.00    +0.017 A 
ATOM     21  N   UNL     1      -1.306  -2.000  -1.001  0.00  0.00    -0.358 N 
ATOM     22  H   UNL     1      -1.428  -2.740  -1.616  0.00  0.00    +0.166 HD
ATOM     23  C   UNL     1      -1.095  -2.122   0.354  0.00  0.00    +0.047 A 
ATOM     24  C   UNL     1      -0.962  -0.821   0.873  0.00  0.00    +0.003 A 
ATOM     25  C   UNL     1      -0.732  -0.635   2.237  0.00  0.00    +0.015 A 
ATOM     26  C   UNL     1      -0.634  -1.720   3.062  0.00  0.00    -0.030 A 
ATOM     27  C   UNL     1      -0.761  -3.006   2.555  0.00  0.00    +0.007 A 
ATOM     28  C   UNL     1      -0.998  -3.212   1.213  0.00  0.00    +0.026 A 
ATOM     29  C   UNL     1      -1.519  -0.155  -2.752  0.00  0.00    +0.063 C 
ENDBRANCH  17  26
ENDBRANCH   1  17
TORSDOF 5
