REMARK  Name = ZINC19816097
REMARK  6 active torsions:
REMARK  status: ('A' for Active; 'I' for Inactive)
REMARK    1  A    between atoms: C_4  and  C_7
REMARK    2  A    between atoms: C_7  and  N_8
REMARK    3  A    between atoms: C_11  and  C_12
REMARK    4  A    between atoms: C_22  and  C_30
REMARK    5  A    between atoms: C_24  and  C_28
REMARK    6  A    between atoms: C_25  and  N_27
REMARK                            x       y       z     vdW  Elec       q    Type
REMARK                         _______ _______ _______ _____ _____    ______ ____
ROOT
ATOM      1  N   UNL     1      -0.761   2.098  -1.195  0.00  0.00    -0.290 NA
ATOM      2  C   UNL     1       0.005   1.455  -0.112  0.00  0.00    +0.124 C 
ATOM      3  C   UNL     1      -0.736   1.729   1.179  0.00  0.00    +0.010 C 
ATOM      4  C   UNL     1      -0.076   2.044   2.308  0.00  0.00    +0.016 C 
ATOM      5  C   UNL     1      -2.212   1.639   1.150  0.00  0.00    +0.136 C 
ATOM      6  C   UNL     1      -2.845   1.538  -0.019  0.00  0.00    -0.001 C 
ATOM      7  C   UNL     1      -2.088   1.492  -1.321  0.00  0.00    +0.120 C 
ATOM      8  C   UNL     1      -4.353   1.466  -0.067  0.00  0.00    +0.095 C 
ATOM      9  C   UNL     1      -4.902   1.082   1.278  0.00  0.00    +0.098 C 
ATOM     10  C   UNL     1      -4.143   1.203   2.396  0.00  0.00    +0.199 C 
ATOM     11  O   UNL     1      -2.885   1.671   2.327  0.00  0.00    -0.441 OA
ENDROOT
BRANCH   4  12
ATOM     12  C   UNL     1       1.394   1.963   2.349  0.00  0.00    -0.022 A 
ATOM     13  C   UNL     1       2.065   0.994   1.598  0.00  0.00    +0.008 A 
ATOM     14  C   UNL     1       3.442   0.927   1.635  0.00  0.00    +0.003 A 
ATOM     15  C   UNL     1       4.160   1.809   2.424  0.00  0.00    +0.038 A 
ATOM     16  C   UNL     1       3.503   2.769   3.176  0.00  0.00    +0.124 A 
ATOM     17  C   UNL     1       2.124   2.851   3.144  0.00  0.00    +0.046 A 
ATOM     18  F   UNL     1       4.211   3.626   3.944  0.00  0.00    -0.205 F 
ENDBRANCH   4  12
BRANCH   8  19
ATOM     19  C   UNL     1      -4.904   2.813  -0.460  0.00  0.00    -0.032 A 
ATOM     20  C   UNL     1      -4.649   3.920   0.329  0.00  0.00    +0.005 A 
ATOM     21  C   UNL     1      -5.150   5.157  -0.033  0.00  0.00    +0.003 A 
ATOM     22  C   UNL     1      -5.915   5.285  -1.177  0.00  0.00    +0.038 A 
ATOM     23  C   UNL     1      -6.175   4.177  -1.964  0.00  0.00    +0.124 A 
ATOM     24  C   UNL     1      -5.668   2.939  -1.604  0.00  0.00    +0.043 A 
ATOM     25  F   UNL     1      -6.923   4.301  -3.082  0.00  0.00    -0.205 F 
ENDBRANCH   8  19
BRANCH  10  26
ATOM     26  N   UNL     1      -4.667   0.845   3.612  0.00  0.00    -0.328 N 
ATOM     27  H   UNL     1      -4.058   0.940   4.523  0.00  0.00    +0.145 HD
ATOM     28  H   UNL     1      -5.696   0.461   3.677  0.00  0.00    +0.145 HD
ENDBRANCH  10  26
BRANCH   9  29
ATOM     29  C   UNL     1      -6.239   0.581   1.380  0.00  0.00    +0.101 C 
ATOM     30  N   UNL     1      -7.301   0.184   1.462  0.00  0.00    -0.191 NA
ENDBRANCH   9  29
BRANCH   1  31
ATOM     31  C   UNL     1      -0.030   2.035  -2.467  0.00  0.00    +0.120 C 
BRANCH  31  35
ATOM     32  C   UNL     1       3.518   4.398  -2.190  0.00  0.00    +0.000 A 
ATOM     33  C   UNL     1       3.549   3.061  -1.839  0.00  0.00    +0.000 A 
ATOM     34  C   UNL     1       2.401   2.297  -1.929  0.00  0.00    +0.005 A 
ATOM     35  C   UNL     1       1.222   2.869  -2.369  0.00  0.00    -0.033 A 
ATOM     36  C   UNL     1       1.192   4.204  -2.725  0.00  0.00    +0.005 A 
ATOM     37  C   UNL     1       2.339   4.970  -2.631  0.00  0.00    +0.000 A 
ENDBRANCH  31  35
ENDBRANCH   1  31
TORSDOF 6
