REMARK  Name = ZINC62038584
REMARK  8 active torsions:
REMARK  status: ('A' for Active; 'I' for Inactive)
REMARK    1  A    between atoms: C_1  and  C_2
REMARK    2  A    between atoms: C_3  and  C_27
REMARK    3  A    between atoms: C_8  and  S_12
REMARK    4  A    between atoms: S_12  and  C_13
REMARK    5  A    between atoms: C_13  and  C_15
REMARK    6  A    between atoms: C_13  and  C_16
REMARK    7  A    between atoms: N_18  and  C_19
REMARK    8  A    between atoms: C_24  and  O_25
REMARK                            x       y       z     vdW  Elec       q    Type
REMARK                         _______ _______ _______ _____ _____    ______ ____
ROOT
ATOM      1  C   UNL     1      -0.049   1.501   0.101  0.00  0.00    +0.052 C 
ATOM      2  C   UNL     1      -0.024  -0.006   0.080  0.00  0.00    -0.003 A 
ATOM      3  C   UNL     1      -1.072  -0.864   0.073  0.00  0.00    +0.007 A 
ATOM      4  C   UNL     1      -0.804  -2.297   0.053  0.00  0.00    +0.080 A 
ATOM      5  C   UNL     1      -1.754  -3.433   0.041  0.00  0.00    +0.283 A 
ATOM      6  O   UNL     1      -2.959  -3.230   0.049  0.00  0.00    -0.265 OA
ATOM      7  N   UNL     1      -1.282  -4.683   0.021  0.00  0.00    -0.185 NA
ATOM      8  C   UNL     1       0.007  -4.948   0.012  0.00  0.00    +0.171 A 
ATOM      9  N   UNL     1       0.938  -3.952   0.022  0.00  0.00    -0.328 N 
ATOM     10  C   UNL     1       0.546  -2.648   0.042  0.00  0.00    +0.093 A 
ATOM     11  S   UNL     1       1.391  -1.090   0.052  0.00  0.00    -0.075 S 
ATOM     12  H   UNL     1       1.882  -4.173   0.016  0.00  0.00    +0.168 HD
ENDROOT
BRANCH   3  13
ATOM     13  C   UNL     1      -2.465  -0.356   0.087  0.00  0.00    -0.016 A 
ATOM     14  C   UNL     1      -3.289  -0.605   1.183  0.00  0.00    +0.011 A 
ATOM     15  C   UNL     1      -4.585  -0.130   1.192  0.00  0.00    +0.039 A 
ATOM     16  C   UNL     1      -5.067   0.594   0.113  0.00  0.00    +0.123 A 
ATOM     17  C   UNL     1      -4.251   0.843  -0.979  0.00  0.00    +0.039 A 
ATOM     18  C   UNL     1      -2.953   0.378  -0.994  0.00  0.00    +0.011 A 
ATOM     19  F   UNL     1      -6.336   1.057   0.125  0.00  0.00    -0.205 F 
ENDBRANCH   3  13
BRANCH   8  20
ATOM     20  S   UNL     1       0.542  -6.627  -0.014  0.00  0.00    -0.075 S 
BRANCH  20  21
ATOM     21  C   UNL     1      -1.002  -7.579  -0.020  0.00  0.00    +0.137 C 
ATOM     22  C   UNL     1      -1.750  -7.346   1.294  0.00  0.00    +0.029 C 
BRANCH  21  23
ATOM     23  C   UNL     1      -0.687  -9.046  -0.166  0.00  0.00    +0.230 C 
ATOM     24  O   UNL     1       0.391  -9.473   0.188  0.00  0.00    -0.274 OA
ATOM     25  N   UNL     1      -1.605  -9.883  -0.690  0.00  0.00    -0.282 N 
ATOM     26  H   UNL     1      -2.490  -9.555  -0.913  0.00  0.00    +0.155 HD
BRANCH  25  27
ATOM     27  C   UNL     1      -1.280 -11.228  -0.912  0.00  0.00    +0.077 A 
ATOM     28  C   UNL     1      -0.426 -11.890  -0.041  0.00  0.00    +0.047 A 
ATOM     29  C   UNL     1      -0.107 -13.217  -0.262  0.00  0.00    +0.043 A 
ATOM     30  C   UNL     1      -0.637 -13.887  -1.351  0.00  0.00    +0.023 A 
ATOM     31  C   UNL     1      -1.488 -13.233  -2.223  0.00  0.00    +0.049 A 
ATOM     32  C   UNL     1      -1.817 -11.905  -2.004  0.00  0.00    +0.138 A 
ATOM     33 CL   UNL     1       0.960 -14.045   0.828  0.00  0.00    -0.083 Cl
BRANCH  32  34
ATOM     34  O   UNL     1      -2.658 -11.262  -2.857  0.00  0.00    -0.505 OA
ATOM     35  H   UNL     1      -2.212 -10.828  -3.597  0.00  0.00    +0.292 HD
ENDBRANCH  32  34
ENDBRANCH  25  27
ENDBRANCH  21  23
ENDBRANCH  20  21
ENDBRANCH   8  20
TORSDOF 6
