REMARK  Name = ZINC12888140
REMARK  9 active torsions:
REMARK  status: ('A' for Active; 'I' for Inactive)
REMARK    1  A    between atoms: C_1  and  C_2
REMARK    2  A    between atoms: C_2  and  C_3
REMARK    3  A    between atoms: C_3  and  C_5
REMARK    4  A    between atoms: C_3  and  C_6
REMARK    5  A    between atoms: C_6  and  C_8
REMARK    6  A    between atoms: C_6  and  N_17
REMARK    7  A    between atoms: N_10  and  C_11
REMARK    8  A    between atoms: C_11  and  C_12
REMARK    9  A    between atoms: C_18  and  C_20
REMARK                            x       y       z     vdW  Elec       q    Type
REMARK                         _______ _______ _______ _____ _____    ______ ____
ROOT
ATOM      1  C   UNL     1       2.126   2.388  -1.479  0.00  0.00    +0.167 C 
ATOM      2  C   UNL     1       3.648   2.509  -1.325  0.00  0.00    +0.069 C 
ATOM      3  C   UNL     1       4.262   3.019  -2.604  0.00  0.00    -0.015 A 
ATOM      4  C   UNL     1       5.665   2.993  -2.976  0.00  0.00    +0.003 A 
ATOM      5  C   UNL     1       6.804   2.504  -2.329  0.00  0.00    +0.010 A 
ATOM      6  C   UNL     1       8.001   2.650  -2.985  0.00  0.00    +0.001 A 
ATOM      7  C   UNL     1       8.088   3.251  -4.230  0.00  0.00    +0.002 A 
ATOM      8  C   UNL     1       6.978   3.743  -4.894  0.00  0.00    +0.026 A 
ATOM      9  C   UNL     1       5.749   3.608  -4.251  0.00  0.00    +0.047 A 
ATOM     10  N   UNL     1       4.483   3.971  -4.610  0.00  0.00    -0.356 N 
ATOM     11  H   UNL     1       4.244   4.418  -5.437  0.00  0.00    +0.166 HD
ATOM     12  C   UNL     1       3.603   3.610  -3.627  0.00  0.00    +0.046 A 
ATOM     13  C   UNL     1       2.107   3.814  -3.631  0.00  0.00    +0.155 C 
ATOM     14  N   UNL     1       1.657   3.547  -2.245  0.00  0.00    -0.273 N 
ATOM     15  C   UNL     1       0.831   4.533  -1.869  0.00  0.00    +0.248 C 
ATOM     16  O   UNL     1       0.118   4.514  -0.885  0.00  0.00    -0.270 OA
ATOM     17  C   UNL     1       0.919   5.640  -2.828  0.00  0.00    +0.042 A 
ATOM     18  C   UNL     1       1.723   5.227  -3.911  0.00  0.00    -0.009 A 
ATOM     19  C   UNL     1       1.999   6.069  -4.964  0.00  0.00    +0.006 A 
ATOM     20  C   UNL     1       1.438   7.342  -4.922  0.00  0.00    +0.000 A 
ATOM     21  C   UNL     1       0.637   7.750  -3.874  0.00  0.00    +0.001 A 
ATOM     22  C   UNL     1       0.352   6.916  -2.803  0.00  0.00    +0.013 A 
ENDROOT
BRANCH   1  24
ATOM     23  N   UNL     1       1.523   3.478   0.659  0.00  0.00    -0.302 N 
ATOM     24  C   UNL     1       1.475   2.378  -0.119  0.00  0.00    +0.235 C 
ATOM     25  O   UNL     1       0.907   1.381   0.274  0.00  0.00    -0.274 OA
ATOM     26  H   UNL     1       1.916   4.296   0.318  0.00  0.00    +0.150 HD
BRANCH  23  27
ATOM     27  C   UNL     1       0.983   3.436   2.020  0.00  0.00    +0.162 C 
BRANCH  27  28
ATOM     28  C   UNL     1       0.424   4.788   2.381  0.00  0.00    +0.234 C 
ATOM     29  O   UNL     1       0.513   5.710   1.597  0.00  0.00    -0.274 OA
ATOM     30  N   UNL     1      -0.174   4.974   3.574  0.00  0.00    -0.307 N 
ATOM     31  H   UNL     1      -0.186   4.257   4.227  0.00  0.00    +0.149 HD
BRANCH  30  32
ATOM     32  C   UNL     1      -0.806   6.258   3.884  0.00  0.00    +0.178 C 
BRANCH  32  33
ATOM     33  C   UNL     1      -1.397   6.206   5.269  0.00  0.00    +0.122 A 
ATOM     34  C   UNL     1      -0.764   6.541   6.408  0.00  0.00    +0.046 A 
ATOM     35  C   UNL     1      -1.685   6.342   7.462  0.00  0.00    +0.041 A 
ATOM     36  C   UNL     1      -2.825   5.896   6.905  0.00  0.00    +0.195 A 
ATOM     37  O   UNL     1      -2.647   5.821   5.576  0.00  0.00    -0.466 OA
ENDBRANCH  32  33
ENDBRANCH  30  32
ENDBRANCH  27  28
BRANCH  27  38
ATOM     38  C   UNL     1       2.098   3.067   3.000  0.00  0.00    +0.015 C 
ATOM     39  C   UNL     1       2.525   1.617   2.765  0.00  0.00    +0.010 C 
BRANCH  38  41
ATOM     40  C   UNL     1       2.923   5.417   3.201  0.00  0.00    +0.004 C 
ATOM     41  C   UNL     1       3.296   3.993   2.782  0.00  0.00    +0.002 C 
ENDBRANCH  38  41
ENDBRANCH  27  38
ENDBRANCH  23  27
ENDBRANCH   1  24
TORSDOF 7
