REMARK  Name = ZINC35575541
REMARK  5 active torsions:
REMARK  status: ('A' for Active; 'I' for Inactive)
REMARK    1  A    between atoms: C_1  and  S_2
REMARK    2  A    between atoms: S_2  and  C_3
REMARK    3  A    between atoms: C_5  and  C_21
REMARK    4  A    between atoms: C_7  and  N_20
REMARK    5  A    between atoms: N_8  and  C_12
REMARK                            x       y       z     vdW  Elec       q    Type
REMARK                         _______ _______ _______ _____ _____    ______ ____
ROOT
ATOM      1  C   UNL     1       0.893  -0.408  -1.404  0.00  0.00    +0.191 A 
ATOM      2  N   UNL     1       1.007  -1.699  -1.705  0.00  0.00    -0.221 NA
ATOM      3  C   UNL     1       1.385  -2.112  -2.908  0.00  0.00    +0.091 A 
ATOM      4  C   UNL     1       1.673  -1.138  -3.891  0.00  0.00    +0.086 A 
ATOM      5  C   UNL     1       2.083  -1.154  -5.218  0.00  0.00    +0.131 A 
ATOM      6  N   UNL     1       2.188   0.126  -5.626  0.00  0.00    -0.216 N 
ATOM      7  N   UNL     1       1.851   0.989  -4.577  0.00  0.00    -0.144 NA
ATOM      8  C   UNL     1       1.534   0.281  -3.515  0.00  0.00    +0.188 A 
ATOM      9  N   UNL     1       1.137   0.564  -2.260  0.00  0.00    -0.200 NA
ENDROOT
BRANCH   6  10
ATOM     10  C   UNL     1       2.578   0.532  -6.908  0.00  0.00    +0.069 A 
ATOM     11  C   UNL     1       3.525  -0.201  -7.612  0.00  0.00    +0.029 A 
ATOM     12  C   UNL     1       3.907   0.201  -8.877  0.00  0.00    +0.023 A 
ATOM     13  C   UNL     1       3.349   1.333  -9.443  0.00  0.00    +0.059 A 
ATOM     14  C   UNL     1       2.405   2.067  -8.744  0.00  0.00    +0.061 A 
ATOM     15  C   UNL     1       2.015   1.665  -7.480  0.00  0.00    +0.049 A 
ATOM     16 CL   UNL     1       1.707   3.487  -9.457  0.00  0.00    -0.082 Cl
ATOM     17 CL   UNL     1       3.833   1.836 -11.033  0.00  0.00    -0.082 Cl
ENDBRANCH   6  10
BRANCH   3  18
ATOM     18  C   UNL     1       1.503  -3.555  -3.213  0.00  0.00    +0.036 A 
ATOM     19  C   UNL     1       2.716  -4.080  -3.662  0.00  0.00    +0.013 A 
ATOM     20  C   UNL     1       2.819  -5.426  -3.944  0.00  0.00    +0.001 A 
ATOM     21  C   UNL     1       1.724  -6.257  -3.784  0.00  0.00    +0.003 A 
ATOM     22  C   UNL     1       0.519  -5.746  -3.340  0.00  0.00    +0.039 A 
ATOM     23  C   UNL     1       0.402  -4.400  -3.047  0.00  0.00    +0.133 A 
ATOM     24  F   UNL     1      -0.774  -3.901  -2.607  0.00  0.00    -0.205 F 
ENDBRANCH   3  18
BRANCH   5  25
ATOM     25  N   UNL     1       2.337  -2.278  -5.981  0.00  0.00    -0.342 N 
ATOM     26  H   UNL     1       2.240  -3.161  -5.591  0.00  0.00    +0.144 HD
ATOM     27  H   UNL     1       2.612  -2.184  -6.907  0.00  0.00    +0.144 HD
ENDBRANCH   5  25
BRANCH   1  29
ATOM     28  C   UNL     1       0.350   1.838   0.208  0.00  0.00    +0.093 C 
ATOM     29  S   UNL     1       0.382   0.025   0.226  0.00  0.00    -0.089 S 
ENDBRANCH   1  29
TORSDOF 4
