REMARK  Name = ZINC25260547
REMARK  9 active torsions:
REMARK  status: ('A' for Active; 'I' for Inactive)
REMARK    1  A    between atoms: C_3  and  C_9
REMARK    2  A    between atoms: C_6  and  C_7
REMARK    3  A    between atoms: C_12  and  O_15
REMARK    4  A    between atoms: O_15  and  C_16
REMARK    5  A    between atoms: C_16  and  C_17
REMARK    6  A    between atoms: N_19  and  N_20
REMARK    7  A    between atoms: C_21  and  C_23
REMARK    8  A    between atoms: C_23  and  N_24
REMARK    9  A    between atoms: C_25  and  C_27
REMARK                            x       y       z     vdW  Elec       q    Type
REMARK                         _______ _______ _______ _____ _____    ______ ____
ROOT
ATOM      1  C   UNL     1     -10.445   1.086   3.920  0.00  0.00    +0.267 C 
ATOM      2  O   UNL     1     -11.033   0.385   3.123  0.00  0.00    -0.271 OA
ATOM      3  N   UNL     1      -9.162   1.430   3.696  0.00  0.00    -0.232 N 
ATOM      4  H   UNL     1      -8.629   2.066   4.418  0.00  0.00    +0.173 HD
ENDROOT
BRANCH   3   5
ATOM      5  N   UNL     1      -8.506   0.978   2.543  0.00  0.00    -0.233 N 
ATOM      6  C   UNL     1      -7.222   1.323   2.320  0.00  0.00    +0.246 C 
ATOM      7  O   UNL     1      -6.635   2.023   3.116  0.00  0.00    -0.273 OA
ATOM      8  H   UNL     1      -9.039   0.343   1.821  0.00  0.00    +0.173 HD
BRANCH   6   9
ATOM      9  C   UNL     1      -6.517   0.837   1.080  0.00  0.00    +0.201 C 
BRANCH   9  10
ATOM     10  N   UNL     1      -5.143   1.344   1.069  0.00  0.00    -0.306 N 
ATOM     11  C   UNL     1      -4.318   1.035   0.049  0.00  0.00    +0.220 C 
ATOM     12  O   UNL     1      -4.714   0.337  -0.861  0.00  0.00    -0.275 OA
ATOM     13  H   UNL     1      -4.784   1.976   1.894  0.00  0.00    +0.149 HD
BRANCH  11  14
ATOM     14  C   UNL     1      -2.904   1.556   0.038  0.00  0.00    +0.048 C 
ATOM     15  C   UNL     1      -2.188   1.063  -1.221  0.00  0.00    +0.019 C 
ATOM     16  C   UNL     1      -0.753   1.593  -1.232  0.00  0.00    -0.009 C 
ATOM     17  C   UNL     1      -0.013   1.086   0.008  0.00  0.00    +0.007 C 
ATOM     18  C   UNL     1      -0.729   1.579   1.267  0.00  0.00    -0.009 C 
ATOM     19  C   UNL     1      -2.164   1.050   1.278  0.00  0.00    +0.019 C 
ATOM     20  C   UNL     1      -0.750   3.109   1.275  0.00  0.00    +0.007 C 
ATOM     21  C   UNL     1      -1.490   3.616   0.036  0.00  0.00    -0.009 C 
ATOM     22  C   UNL     1      -0.773   3.123  -1.223  0.00  0.00    +0.007 C 
ATOM     23  C   UNL     1      -2.925   3.086   0.047  0.00  0.00    +0.019 C 
ENDBRANCH  11  14
ENDBRANCH   9  10
ENDBRANCH   6   9
ENDBRANCH   3   5
BRANCH   1  24
ATOM     24  C   UNL     1     -11.151   1.572   5.160  0.00  0.00    +0.326 C 
BRANCH  24  25
ATOM     25  O   UNL     1     -12.492   1.077   5.170  0.00  0.00    -0.483 OA
BRANCH  25  29
ATOM     26  C   UNL     1     -14.856   2.136   8.385  0.00  0.00    -0.018 A 
ATOM     27  C   UNL     1     -15.374   1.330   7.371  0.00  0.00    +0.012 A 
ATOM     28  C   UNL     1     -14.582   0.979   6.299  0.00  0.00    +0.046 A 
ATOM     29  C   UNL     1     -13.270   1.426   6.227  0.00  0.00    +0.121 A 
ATOM     30  C   UNL     1     -12.749   2.224   7.237  0.00  0.00    +0.046 A 
ATOM     31  C   UNL     1     -13.537   2.584   8.309  0.00  0.00    +0.012 A 
BRANCH  26  34
ATOM     32  C   UNL     1     -15.970   3.675  11.625  0.00  0.00    +0.019 A 
ATOM     33  C   UNL     1     -15.183   3.321  10.552  0.00  0.00    +0.010 A 
ATOM     34  C   UNL     1     -15.704   2.515   9.539  0.00  0.00    -0.018 A 
ATOM     35  C   UNL     1     -17.025   2.070   9.610  0.00  0.00    +0.010 A 
ATOM     36  C   UNL     1     -17.812   2.417  10.684  0.00  0.00    +0.019 A 
ATOM     37  C   UNL     1     -17.291   3.225  11.699  0.00  0.00    +0.052 A 
BRANCH  37  38
ATOM     38  C   UNL     1     -18.111   3.592  12.814  0.00  0.00    +0.099 C 
ATOM     39  N   UNL     1     -18.762   3.883  13.699  0.00  0.00    -0.191 NA
ENDBRANCH  37  38
ENDBRANCH  26  34
ENDBRANCH  25  29
ENDBRANCH  24  25
ENDBRANCH   1  24
TORSDOF 9
