REMARK  Name = ZINC02768650
REMARK  16 active torsions:
REMARK  status: ('A' for Active; 'I' for Inactive)
REMARK    1  A    between atoms: C_1  and  C_2
REMARK    2  A    between atoms: C_2  and  O_3
REMARK    3  A    between atoms: O_3  and  C_4
REMARK    4  A    between atoms: C_9  and  C_10
REMARK    5  A    between atoms: C_10  and  N_68
REMARK    6  A    between atoms: C_11  and  C_12
REMARK    7  A    between atoms: C_11  and  N_68
REMARK    8  A    between atoms: C_12  and  C_13
REMARK    9  A    between atoms: C_22  and  C_23
REMARK   10  A    between atoms: C_22  and  N_68
REMARK   11  A    between atoms: C_25  and  O_33
REMARK   12  A    between atoms: C_26  and  O_31
REMARK   13  A    between atoms: C_27  and  O_29
REMARK   14  A    between atoms: O_29  and  C_30
REMARK   15  A    between atoms: O_31  and  C_32
REMARK   16  A    between atoms: O_33  and  C_34
REMARK                            x       y       z     vdW  Elec       q    Type
REMARK                         _______ _______ _______ _____ _____    ______ ____
ROOT
ATOM      1  N   UNL     1       7.335  -1.395   2.014  0.00  0.00    +0.385 N 
ATOM      2  H   UNL     1       7.487  -1.924   2.882  0.00  0.00    -0.081 HD
ENDROOT
BRANCH   1   3
ATOM      3  C   UNL     1       7.872  -0.029   2.185  0.00  0.00    -0.039 C 
BRANCH   3   9
ATOM      4  C   UNL     1      10.351  -0.276   1.900  0.00  0.00    +0.122 A 
ATOM      5  C   UNL     1      11.633  -0.361   2.424  0.00  0.00    +0.046 A 
ATOM      6  C   UNL     1      11.825  -0.292   3.790  0.00  0.00    +0.004 A 
ATOM      7  C   UNL     1      10.742  -0.138   4.636  0.00  0.00    +0.000 A 
ATOM      8  C   UNL     1       9.464  -0.048   4.116  0.00  0.00    +0.005 A 
ATOM      9  C   UNL     1       9.265  -0.122   2.750  0.00  0.00    -0.022 A 
BRANCH   4  10
ATOM     10  O   UNL     1      10.159  -0.344   0.557  0.00  0.00    -0.492 OA
BRANCH  10  12
ATOM     11  C   UNL     1      10.908  -0.593  -1.727  0.00  0.00    +0.048 C 
ATOM     12  C   UNL     1      11.309  -0.602  -0.251  0.00  0.00    +0.225 C 
ENDBRANCH  10  12
ENDBRANCH   4  10
ENDBRANCH   3   9
ENDBRANCH   1   3
BRANCH   1  13
ATOM     13  C   UNL     1       5.885  -1.337   1.735  0.00  0.00    -0.073 C 
BRANCH  13  14
ATOM     14  C   UNL     1       5.161  -0.832   2.985  0.00  0.00    +0.017 C 
BRANCH  14  15
ATOM     15  C   UNL     1       3.678  -0.788   2.723  0.00  0.00    -0.045 A 
ATOM     16  C   UNL     1       2.896  -1.894   2.998  0.00  0.00    +0.007 A 
ATOM     17  C   UNL     1       1.534  -1.859   2.759  0.00  0.00    +0.050 A 
ATOM     18  C   UNL     1       0.951  -0.713   2.243  0.00  0.00    +0.166 A 
ATOM     19  C   UNL     1       1.739   0.401   1.966  0.00  0.00    +0.166 A 
ATOM     20  C   UNL     1       3.102   0.358   2.208  0.00  0.00    +0.053 A 
ATOM     21  O   UNL     1       0.938   1.390   1.471  0.00  0.00    -0.453 OA
ATOM     22  C   UNL     1      -0.404   1.013   1.830  0.00  0.00    +0.466 C 
ATOM     23  O   UNL     1      -0.344  -0.423   1.922  0.00  0.00    -0.453 OA
ENDBRANCH  14  15
ENDBRANCH  13  14
ENDBRANCH   1  13
BRANCH   1  24
ATOM     24  C   UNL     1       8.036  -2.079   0.907  0.00  0.00    -0.042 C 
BRANCH  24  25
ATOM     25  C   UNL     1       7.593  -3.519   0.866  0.00  0.00    -0.057 A 
ATOM     26  C   UNL     1       8.189  -4.447   1.699  0.00  0.00    +0.051 A 
ATOM     27  C   UNL     1       7.780  -5.772   1.668  0.00  0.00    +0.165 A 
ATOM     28  C   UNL     1       6.779  -6.168   0.790  0.00  0.00    +0.204 A 
ATOM     29  C   UNL     1       6.186  -5.232  -0.050  0.00  0.00    +0.165 A 
ATOM     30  C   UNL     1       6.596  -3.909  -0.009  0.00  0.00    +0.051 A 
BRANCH  29  31
ATOM     31  O   UNL     1       5.206  -5.615  -0.912  0.00  0.00    -0.491 OA
ATOM     32  C   UNL     1       4.643  -4.600  -1.745  0.00  0.00    +0.277 C 
ENDBRANCH  29  31
BRANCH  28  33
ATOM     33  O   UNL     1       6.379  -7.468   0.752  0.00  0.00    -0.488 OA
ATOM     34  C   UNL     1       7.065  -8.332  -0.156  0.00  0.00    +0.277 C 
ENDBRANCH  28  33
BRANCH  27  35
ATOM     35  O   UNL     1       8.363  -6.684   2.492  0.00  0.00    -0.491 OA
ATOM     36  C   UNL     1       9.479  -6.239   3.265  0.00  0.00    +0.277 C 
ENDBRANCH  27  35
ENDBRANCH  24  25
ENDBRANCH   1  24
TORSDOF 12
