REMARK  Name = ZINC52736240
REMARK  4 active torsions:
REMARK  status: ('A' for Active; 'I' for Inactive)
REMARK    1  A    between atoms: C_4  and  N_8
REMARK    2  A    between atoms: C_9  and  C_11
REMARK    3  A    between atoms: C_11  and  C_12
REMARK    4  A    between atoms: C_12  and  N_13
REMARK                            x       y       z     vdW  Elec       q    Type
REMARK                         _______ _______ _______ _____ _____    ______ ____
ROOT
ATOM      1  C   UNL     1       4.804  -4.083   0.910  0.00  0.00    +0.127 C 
ENDROOT
BRANCH   1   2
ATOM      2  N   UNL     1       6.098  -4.764   0.999  0.00  0.00    -0.224 N 
ATOM      3  C   UNL     1       6.670  -5.439  -0.019  0.00  0.00    +0.247 C 
ATOM      4  O   UNL     1       6.229  -5.593  -1.138  0.00  0.00    -0.273 OA
ATOM      5  C   UNL     1       7.978  -5.963   0.529  0.00  0.00    +0.113 C 
ATOM      6  C   UNL     1       9.152  -5.388  -0.255  0.00  0.00    +0.035 C 
ATOM      7  C   UNL     1      10.466  -5.907   0.335  0.00  0.00    +0.003 C 
ATOM      8  C   UNL     1      10.486  -7.435   0.266  0.00  0.00    +0.000 C 
ATOM      9  C   UNL     1       9.316  -7.998   1.076  0.00  0.00    +0.003 C 
ATOM     10  C   UNL     1       7.998  -7.487   0.489  0.00  0.00    +0.035 C 
ATOM     11  N   UNL     1       8.000  -5.484   1.917  0.00  0.00    -0.285 N 
ATOM     12  C   UNL     1       6.862  -4.788   2.098  0.00  0.00    +0.309 C 
ATOM     13  O   UNL     1       6.560  -4.245   3.143  0.00  0.00    -0.252 OA
ATOM     14  H   UNL     1       8.699  -5.636   2.572  0.00  0.00    +0.151 HD
ENDBRANCH   1   2
BRANCH   1  15
ATOM     15  C   UNL     1       5.017  -2.641   0.446  0.00  0.00    +0.115 C 
BRANCH  15  17
ATOM     16  N   UNL     1       3.627  -0.652  -0.037  0.00  0.00    -0.281 N 
ATOM     17  C   UNL     1       3.685  -1.941   0.355  0.00  0.00    +0.219 C 
ATOM     18  O   UNL     1       2.666  -2.536   0.635  0.00  0.00    -0.275 OA
ATOM     19  H   UNL     1       4.431  -0.198  -0.332  0.00  0.00    +0.155 HD
BRANCH  16  23
ATOM     20  C   UNL     1      -0.015   1.382   0.019  0.00  0.00    +0.006 A 
ATOM     21  C   UNL     1       0.778   1.355   1.152  0.00  0.00    +0.040 A 
ATOM     22  C   UNL     1       1.986   0.681   1.137  0.00  0.00    +0.147 A 
ATOM     23  C   UNL     1       2.403   0.031  -0.018  0.00  0.00    +0.105 A 
ATOM     24  C   UNL     1       1.604   0.060  -1.155  0.00  0.00    +0.147 A 
ATOM     25  C   UNL     1       0.397   0.736  -1.132  0.00  0.00    +0.040 A 
ATOM     26  F   UNL     1       2.005  -0.570  -2.280  0.00  0.00    -0.203 F 
ATOM     27  F   UNL     1       2.759   0.656   2.245  0.00  0.00    -0.203 F 
ENDBRANCH  16  23
ENDBRANCH  15  17
ENDBRANCH   1  15
TORSDOF 4
