REMARK  Name = ZINC67373797
REMARK  6 active torsions:
REMARK  status: ('A' for Active; 'I' for Inactive)
REMARK    1  A    between atoms: C_1  and  C_2
REMARK    2  A    between atoms: C_3  and  C_26
REMARK    3  A    between atoms: C_7  and  C_8
REMARK    4  A    between atoms: C_13  and  C_16
REMARK    5  A    between atoms: C_16  and  C_18
REMARK    6  A    between atoms: C_16  and  O_25
REMARK                            x       y       z     vdW  Elec       q    Type
REMARK                         _______ _______ _______ _____ _____    ______ ____
ROOT
ATOM      1  C   UNL     1      -2.394  -0.361  -1.216  0.00  0.00    +0.047 C 
ATOM      2  C   UNL     1      -1.135  -0.896  -0.585  0.00  0.00    -0.007 A 
ATOM      3  C   UNL     1       0.108  -0.633  -1.137  0.00  0.00    +0.065 A 
ATOM      4  N   UNL     1       1.199  -1.111  -0.570  0.00  0.00    -0.152 NA
ATOM      5  N   UNL     1       1.171  -1.825   0.494  0.00  0.00    -0.133 NA
ATOM      6  C   UNL     1       0.037  -2.138   1.105  0.00  0.00    +0.162 A 
ATOM      7  C   UNL     1      -1.183  -1.671   0.581  0.00  0.00    +0.098 A 
ATOM      8  N   UNL     1       0.053  -2.913   2.253  0.00  0.00    -0.313 N 
ATOM      9  C   UNL     1       0.154  -2.287   3.578  0.00  0.00    +0.107 C 
ATOM     10  C   UNL     1       1.329  -2.918   4.333  0.00  0.00    +0.025 C 
ATOM     11  C   UNL     1       1.150  -4.437   4.368  0.00  0.00    +0.025 C 
ATOM     12  C   UNL     1       1.144  -4.985   2.939  0.00  0.00    +0.025 C 
ATOM     13  C   UNL     1      -0.038  -4.377   2.168  0.00  0.00    +0.107 C 
ATOM     14  C   UNL     1       0.214   0.200  -2.388  0.00  0.00    +0.068 C 
ENDROOT
BRANCH   7  15
ATOM     15  C   UNL     1      -2.430  -1.981   1.214  0.00  0.00    +0.103 C 
ATOM     16  N   UNL     1      -3.419  -2.227   1.716  0.00  0.00    -0.191 NA
ENDBRANCH   7  15
BRANCH  11  17
ATOM     17  C   UNL     1       2.303  -5.068   5.151  0.00  0.00    +0.148 C 
BRANCH  17  18
ATOM     18  C   UNL     1       2.127  -6.564   5.186  0.00  0.00    -0.019 A 
ATOM     19  C   UNL     1       2.595  -7.340   4.141  0.00  0.00    +0.007 A 
ATOM     20  C   UNL     1       2.434  -8.712   4.172  0.00  0.00    +0.020 A 
ATOM     21  C   UNL     1       1.804  -9.310   5.249  0.00  0.00    +0.041 A 
ATOM     22  C   UNL     1       1.337  -8.534   6.295  0.00  0.00    +0.020 A 
ATOM     23  C   UNL     1       1.503  -7.162   6.265  0.00  0.00    +0.007 A 
ATOM     24 CL   UNL     1       1.601 -11.034   5.289  0.00  0.00    -0.084 Cl
ENDBRANCH  17  18
BRANCH  17  25
ATOM     25  O   UNL     1       3.542  -4.749   4.515  0.00  0.00    -0.387 OA
ATOM     26  H   UNL     1       3.609  -5.065   3.603  0.00  0.00    +0.210 HD
ENDBRANCH  17  25
ENDBRANCH  11  17
TORSDOF 4
