REMARK  Name = ZINC35577545
REMARK  6 active torsions:
REMARK  status: ('A' for Active; 'I' for Inactive)
REMARK    1  A    between atoms: C_4  and  C_7
REMARK    2  A    between atoms: C_7  and  C_8
REMARK    3  A    between atoms: C_8  and  N_9
REMARK    4  A    between atoms: C_17  and  C_32
REMARK    5  A    between atoms: C_19  and  N_31
REMARK    6  A    between atoms: N_20  and  C_24
REMARK                            x       y       z     vdW  Elec       q    Type
REMARK                         _______ _______ _______ _____ _____    ______ ____
ROOT
ATOM      1  N   UNL     1       6.467  -1.410   0.975  0.00  0.00    +0.382 N 
ATOM      2  C   UNL     1       5.997  -2.715   0.491  0.00  0.00    -0.060 C 
ATOM      3  C   UNL     1       7.176  -3.691   0.429  0.00  0.00    +0.089 C 
ATOM      4  N   UNL     1       7.820  -3.729   1.752  0.00  0.00    -0.303 N 
ATOM      5  C   UNL     1       8.178  -2.451   2.386  0.00  0.00    +0.089 C 
ATOM      6  C   UNL     1       6.951  -1.534   2.356  0.00  0.00    -0.060 C 
ATOM      7  C   UNL     1       8.081  -4.934   2.381  0.00  0.00    +0.220 A 
ATOM      8  N   UNL     1       8.659  -4.904   3.576  0.00  0.00    -0.213 NA
ATOM      9  C   UNL     1       8.944  -6.016   4.250  0.00  0.00    +0.095 A 
ATOM     10  C   UNL     1       8.615  -7.260   3.660  0.00  0.00    +0.087 A 
ATOM     11  C   UNL     1       8.741  -8.595   4.019  0.00  0.00    +0.131 A 
ATOM     12  N   UNL     1       8.230  -9.335   3.015  0.00  0.00    -0.216 N 
ATOM     13  N   UNL     1       7.767  -8.497   1.995  0.00  0.00    -0.144 NA
ATOM     14  C   UNL     1       7.975  -7.244   2.333  0.00  0.00    +0.189 A 
ATOM     15  N   UNL     1       7.737  -6.046   1.763  0.00  0.00    -0.193 NA
ATOM     16  H   UNL     1       7.218  -1.086   0.385  0.00  0.00    -0.082 HD
ENDROOT
BRANCH  12  17
ATOM     17  C   UNL     1       8.172 -10.734   2.996  0.00  0.00    +0.070 A 
ATOM     18  C   UNL     1       9.188 -11.481   3.579  0.00  0.00    +0.028 A 
ATOM     19  C   UNL     1       9.129 -12.860   3.559  0.00  0.00    +0.005 A 
ATOM     20  C   UNL     1       8.059 -13.500   2.961  0.00  0.00    +0.038 A 
ATOM     21  C   UNL     1       7.044 -12.760   2.378  0.00  0.00    +0.125 A 
ATOM     22  C   UNL     1       7.095 -11.377   2.400  0.00  0.00    +0.066 A 
ATOM     23  F   UNL     1       6.000 -13.387   1.793  0.00  0.00    -0.205 F 
ENDBRANCH  12  17
BRANCH   9  24
ATOM     24  C   UNL     1       9.585  -5.953   5.573  0.00  0.00    +0.038 A 
ATOM     25  C   UNL     1      10.640  -6.702   6.068  0.00  0.00    +0.017 A 
ATOM     26  C   UNL     1      11.025  -6.413   7.357  0.00  0.00    +0.008 A 
ATOM     27  C   UNL     1      10.367  -5.444   8.039  0.00  0.00    +0.046 A 
ATOM     28  S   UNL     1       9.213  -4.888   6.953  0.00  0.00    -0.095 S 
ENDBRANCH   9  24
BRANCH  11  29
ATOM     29  N   UNL     1       9.290  -9.077   5.193  0.00  0.00    -0.342 N 
ATOM     30  H   UNL     1       9.524  -8.464   5.907  0.00  0.00    +0.144 HD
ATOM     31  H   UNL     1       9.443 -10.029   5.302  0.00  0.00    +0.144 HD
ENDBRANCH  11  29
BRANCH   1  32
ATOM     32  C   UNL     1       5.360  -0.446   0.931  0.00  0.00    -0.074 C 
BRANCH  32  33
ATOM     33  C   UNL     1       4.937  -0.222  -0.523  0.00  0.00    +0.016 C 
BRANCH  33  37
ATOM     34  C   UNL     1       1.718   2.583  -0.655  0.00  0.00    +0.000 A 
ATOM     35  C   UNL     1       3.025   3.028  -0.723  0.00  0.00    +0.000 A 
ATOM     36  C   UNL     1       4.067   2.120  -0.680  0.00  0.00    +0.003 A 
ATOM     37  C   UNL     1       3.801   0.768  -0.568  0.00  0.00    -0.049 A 
ATOM     38  C   UNL     1       2.494   0.324  -0.499  0.00  0.00    +0.003 A 
ATOM     39  C   UNL     1       1.452   1.231  -0.544  0.00  0.00    +0.000 A 
ENDBRANCH  33  37
ENDBRANCH  32  33
ENDBRANCH   1  32
TORSDOF 6
