REMARK  Name = ZINC09252581
REMARK  9 active torsions:
REMARK  status: ('A' for Active; 'I' for Inactive)
REMARK    1  A    between atoms: C_1  and  C_2
REMARK    2  A    between atoms: C_2  and  C_4
REMARK    3  A    between atoms: C_2  and  N_46
REMARK    4  A    between atoms: C_12  and  C_13
REMARK    5  A    between atoms: C_12  and  N_46
REMARK    6  A    between atoms: N_15  and  C_16
REMARK    7  A    between atoms: C_17  and  C_24
REMARK    8  A    between atoms: C_24  and  O_26
REMARK    9  A    between atoms: O_26  and  C_27
REMARK                            x       y       z     vdW  Elec       q    Type
REMARK                         _______ _______ _______ _____ _____    ______ ____
ROOT
ATOM      1  C   UNL     1      -0.742   1.585  -1.213  0.00  0.00    +0.201 C 
ATOM      2  O   UNL     1      -1.736   2.268  -1.088  0.00  0.00    -0.278 OA
ATOM      3  N   UNL     1      -0.288   1.272  -2.443  0.00  0.00    -0.281 N 
ATOM      4  H   UNL     1       0.507   0.726  -2.543  0.00  0.00    +0.155 HD
ENDROOT
BRANCH   3   5
ATOM      5  C   UNL     1      -0.959   1.732  -3.566  0.00  0.00    +0.086 A 
ATOM      6  C   UNL     1      -0.648   1.523  -4.900  0.00  0.00    +0.091 A 
ATOM      7  C   UNL     1      -1.530   2.121  -5.902  0.00  0.00    -0.021 A 
ATOM      8  C   UNL     1      -2.560   2.829  -5.406  0.00  0.00    -0.004 A 
ATOM      9  S   UNL     1      -2.384   2.711  -3.643  0.00  0.00    -0.077 S 
ATOM     10  C   UNL     1      -3.419   3.414  -6.495  0.00  0.00    +0.043 C 
ATOM     11  C   UNL     1      -3.036   2.618  -7.762  0.00  0.00    +0.010 C 
ATOM     12  C   UNL     1      -1.599   2.169  -7.429  0.00  0.00    +0.037 C 
BRANCH   6  13
ATOM     13  C   UNL     1       0.519   0.730  -5.292  0.00  0.00    +0.342 C 
ATOM     14  O   UNL     1       0.411  -0.470  -5.458  0.00  0.00    -0.245 OA
BRANCH  13  15
ATOM     15  O   UNL     1       1.714   1.330  -5.470  0.00  0.00    -0.464 OA
ATOM     16  C   UNL     1       2.826   0.482  -5.859  0.00  0.00    +0.280 C 
ENDBRANCH  13  15
ENDBRANCH   6  13
ENDBRANCH   3   5
BRANCH   1  17
ATOM     17  C   UNL     1      -0.013   1.086   0.008  0.00  0.00    +0.016 C 
BRANCH  17  18
ATOM     18  N   UNL     1      -0.709   1.566   1.217  0.00  0.00    +0.389 N 
ATOM     19  H   UNL     1      -0.723   2.592   1.214  0.00  0.00    -0.084 HD
ATOM     20  H   UNL     1      -1.672   1.210   1.216  0.00  0.00    -0.084 HD
BRANCH  18  22
ATOM     21  C   UNL     1      -0.507  -0.315   2.781  0.00  0.00    -0.009 C 
ATOM     22  C   UNL     1      -0.016   1.091   2.429  0.00  0.00    -0.041 C 
BRANCH  22  23
ATOM     23  C   UNL     1      -0.318   2.028   3.570  0.00  0.00    -0.026 A 
ATOM     24  C   UNL     1      -1.472   2.790   3.552  0.00  0.00    +0.007 A 
ATOM     25  C   UNL     1      -1.752   3.645   4.600  0.00  0.00    +0.039 A 
ATOM     26  C   UNL     1      -0.873   3.749   5.665  0.00  0.00    +0.126 A 
ATOM     27  C   UNL     1       0.285   2.991   5.681  0.00  0.00    +0.076 A 
ATOM     28  C   UNL     1       0.563   2.131   4.633  0.00  0.00    +0.128 A 
ATOM     29  F   UNL     1       1.693   1.391   4.648  0.00  0.00    -0.205 F 
ATOM     30  F   UNL     1      -1.145   4.590   6.687  0.00  0.00    -0.205 F 
ENDBRANCH  22  23
ENDBRANCH  18  22
ENDBRANCH  17  18
ENDBRANCH   1  17
TORSDOF 7
