REMARK  Name = ZINC09926769
REMARK  9 active torsions:
REMARK  status: ('A' for Active; 'I' for Inactive)
REMARK    1  A    between atoms: C_1  and  C_2
REMARK    2  A    between atoms: C_2  and  C_3
REMARK    3  A    between atoms: C_3  and  N_4
REMARK    4  A    between atoms: C_17  and  C_22
REMARK    5  A    between atoms: C_30  and  N_37
REMARK    6  A    between atoms: C_31  and  C_32
REMARK    7  A    between atoms: C_32  and  O_34
REMARK    8  A    between atoms: O_34  and  C_35
REMARK    9  A    between atoms: C_35  and  C_36
REMARK                            x       y       z     vdW  Elec       q    Type
REMARK                         _______ _______ _______ _____ _____    ______ ____
ROOT
ATOM      1  N   UNL     1      -0.630   1.646   3.745  0.00  0.00    -0.270 N 
ATOM      2  C   UNL     1      -0.385   2.841   4.399  0.00  0.00    +0.041 A 
ATOM      3  C   UNL     1       0.537   3.844   4.095  0.00  0.00    +0.024 A 
ATOM      4  C   UNL     1       0.570   4.949   4.931  0.00  0.00    +0.002 A 
ATOM      5  C   UNL     1      -0.270   5.066   6.020  0.00  0.00    +0.000 A 
ATOM      6  C   UNL     1      -1.198   4.077   6.329  0.00  0.00    +0.007 A 
ATOM      7  C   UNL     1      -1.232   2.973   5.506  0.00  0.00    -0.002 A 
ATOM      8  C   UNL     1      -2.072   1.734   5.542  0.00  0.00    +0.141 C 
ATOM      9  C   UNL     1      -1.603   0.931   4.346  0.00  0.00    +0.240 C 
ATOM     10  O   UNL     1      -2.023  -0.152   3.996  0.00  0.00    -0.274 OA
ATOM     11  C   UNL     1      -3.532   2.073   5.385  0.00  0.00    +0.057 C 
ATOM     12  C   UNL     1      -4.368   1.992   6.437  0.00  0.00    +0.116 C 
ATOM     13  C   UNL     1      -5.836   2.310   6.279  0.00  0.00    +0.083 C 
ATOM     14  C   UNL     1      -6.019   3.378   5.199  0.00  0.00    +0.034 C 
ATOM     15  C   UNL     1      -5.430   2.848   3.888  0.00  0.00    +0.088 C 
ATOM     16  C   UNL     1      -3.990   2.476   4.116  0.00  0.00    +0.165 C 
ATOM     17  O   UNL     1      -3.209   2.525   3.187  0.00  0.00    -0.292 OA
ATOM     18  O   UNL     1      -3.928   1.632   7.657  0.00  0.00    -0.446 OA
ATOM     19  C   UNL     1      -2.780   0.950   7.785  0.00  0.00    +0.195 C 
ATOM     20  C   UNL     1      -1.839   0.959   6.805  0.00  0.00    +0.117 C 
ENDROOT
BRANCH  14  21
ATOM     21  C   UNL     1      -7.487   3.667   5.016  0.00  0.00    -0.043 A 
ATOM     22  C   UNL     1      -8.349   2.651   4.646  0.00  0.00    +0.007 A 
ATOM     23  C   UNL     1      -9.696   2.914   4.481  0.00  0.00    +0.038 A 
ATOM     24  C   UNL     1     -10.180   4.196   4.677  0.00  0.00    +0.123 A 
ATOM     25  C   UNL     1      -9.315   5.213   5.043  0.00  0.00    +0.038 A 
ATOM     26  C   UNL     1      -7.969   4.947   5.211  0.00  0.00    +0.007 A 
ATOM     27  F   UNL     1     -11.496   4.455   4.513  0.00  0.00    -0.205 F 
ENDBRANCH  14  21
BRANCH  19  28
ATOM     28  N   UNL     1      -2.552   0.231   8.928  0.00  0.00    -0.329 N 
ATOM     29  H   UNL     1      -2.092  -0.622   8.880  0.00  0.00    +0.145 HD
ATOM     30  H   UNL     1      -2.851   0.573   9.784  0.00  0.00    +0.145 HD
ENDBRANCH  19  28
BRANCH  20  31
ATOM     31  C   UNL     1      -0.645   0.239   6.974  0.00  0.00    +0.342 C 
ATOM     32  O   UNL     1      -0.492  -0.463   7.957  0.00  0.00    -0.245 OA
BRANCH  31  33
ATOM     33  O   UNL     1       0.332   0.326   6.046  0.00  0.00    -0.462 OA
BRANCH  33  34
ATOM     34  C   UNL     1       1.520  -0.433   6.283  0.00  0.00    +0.229 C 
ATOM     35  C   UNL     1       2.505  -0.210   5.134  0.00  0.00    +0.048 C 
ENDBRANCH  33  34
ENDBRANCH  31  33
ENDBRANCH  20  31
BRANCH   1  36
ATOM     36  C   UNL     1       0.088   1.207   2.546  0.00  0.00    +0.113 C 
BRANCH  36  38
ATOM     37  C   UNL     1       0.099   1.244   0.048  0.00  0.00    +0.005 C 
ATOM     38  C   UNL     1      -0.650   1.703   1.300  0.00  0.00    +0.016 C 
ENDBRANCH  36  38
ENDBRANCH   1  36
TORSDOF 7
