REMARK  Name = ZINC62039424
REMARK  15 active torsions:
REMARK  status: ('A' for Active; 'I' for Inactive)
REMARK    1  A    between atoms: C_1  and  C_2
REMARK    2  A    between atoms: C_2  and  O_3
REMARK    3  A    between atoms: O_3  and  C_4
REMARK    4  A    between atoms: C_4  and  C_6
REMARK    5  A    between atoms: C_7  and  C_36
REMARK    6  A    between atoms: C_8  and  C_25
REMARK    7  A    between atoms: C_10  and  N_11
REMARK    8  A    between atoms: C_12  and  C_14
REMARK    9  A    between atoms: N_19  and  C_21
REMARK   10  A    between atoms: C_21  and  C_22
REMARK   11  A    between atoms: C_22  and  C_23
REMARK   12  A    between atoms: C_25  and  O_27
REMARK   13  A    between atoms: O_27  and  C_28
REMARK   14  A    between atoms: C_28  and  C_29
REMARK   15  A    between atoms: C_29  and  C_30
REMARK                            x       y       z     vdW  Elec       q    Type
REMARK                         _______ _______ _______ _____ _____    ______ ____
ROOT
ATOM      1  C   UNL     1       1.450  -2.345  -2.519  0.00  0.00    +0.091 A 
ATOM      2  C   UNL     1       2.813  -2.606  -2.513  0.00  0.00    -0.014 A 
ATOM      3  C   UNL     1       3.339  -3.114  -3.671  0.00  0.00    +0.102 A 
ATOM      4  S   UNL     1       1.915  -3.213  -4.738  0.00  0.00    -0.066 S 
ATOM      5  C   UNL     1       0.742  -2.625  -3.689  0.00  0.00    +0.087 A 
ATOM      6  C   UNL     1       3.668  -2.345  -1.299  0.00  0.00    +0.046 C 
ENDROOT
BRANCH   5   7
ATOM      7  N   UNL     1      -0.607  -2.456  -3.930  0.00  0.00    -0.279 N 
ATOM      8  C   UNL     1      -1.124  -2.783  -5.131  0.00  0.00    +0.219 C 
ATOM      9  O   UNL     1      -0.403  -3.225  -6.001  0.00  0.00    -0.275 OA
ATOM     10  H   UNL     1      -1.183  -2.103  -3.234  0.00  0.00    +0.155 HD
BRANCH   8  11
ATOM     11  C   UNL     1      -2.596  -2.599  -5.393  0.00  0.00    +0.059 C 
ATOM     12  C   UNL     1      -3.402  -3.446  -4.404  0.00  0.00    +0.009 C 
ATOM     13  C   UNL     1      -4.892  -3.313  -4.729  0.00  0.00    -0.018 C 
ATOM     14  C   UNL     1      -5.132  -3.733  -6.180  0.00  0.00    -0.079 C 
ATOM     15  N   UNL     1      -4.355  -2.869  -7.078  0.00  0.00    +0.381 N 
ATOM     16  C   UNL     1      -2.921  -3.044  -6.821  0.00  0.00    -0.066 C 
ATOM     17  H   UNL     1      -4.609  -1.906  -6.918  0.00  0.00    -0.082 HD
BRANCH  15  18
ATOM     18  C   UNL     1      -4.648  -3.225  -8.473  0.00  0.00    -0.064 C 
BRANCH  18  19
ATOM     19  C   UNL     1      -6.114  -2.915  -8.781  0.00  0.00    +0.100 C 
BRANCH  19  20
ATOM     20  C   UNL     1      -6.408  -3.272 -10.178  0.00  0.00    +0.061 C 
ATOM     21  N   UNL     1      -6.635  -3.547 -11.257  0.00  0.00    -0.197 NA
ENDBRANCH  19  20
ENDBRANCH  18  19
ENDBRANCH  15  18
ENDBRANCH   8  11
ENDBRANCH   5   7
BRANCH   1  22
ATOM     22  C   UNL     1       0.776  -1.800  -1.335  0.00  0.00    +0.342 C 
ATOM     23  O   UNL     1       0.312  -2.551  -0.499  0.00  0.00    -0.245 OA
BRANCH  22  24
ATOM     24  O   UNL     1       0.671  -0.465  -1.174  0.00  0.00    -0.461 OA
BRANCH  24  26
ATOM     25  C   UNL     1      -0.019   1.526   0.010  0.00  0.00    +0.048 C 
ATOM     26  C   UNL     1       0.002  -0.004   0.002  0.00  0.00    +0.229 C 
ENDBRANCH  24  26
ENDBRANCH  22  24
ENDBRANCH   1  22
BRANCH   3  27
ATOM     27  C   UNL     1       4.724  -3.482  -3.961  0.00  0.00    +0.346 C 
ATOM     28  O   UNL     1       5.581  -3.347  -3.107  0.00  0.00    -0.244 OA
BRANCH  27  29
ATOM     29  O   UNL     1       5.053  -3.971  -5.175  0.00  0.00    -0.460 OA
BRANCH  29  30
ATOM     30  C   UNL     1       6.424  -4.310  -5.388  0.00  0.00    +0.237 C 
BRANCH  30  31
ATOM     31  C   UNL     1       6.602  -4.843  -6.811  0.00  0.00    +0.076 C 
BRANCH  31  32
ATOM     32  C   UNL     1       8.049  -5.201  -7.036  0.00  0.00    -0.044 A 
ATOM     33  C   UNL     1       8.928  -4.252  -7.524  0.00  0.00    +0.004 A 
ATOM     34  C   UNL     1      10.255  -4.580  -7.731  0.00  0.00    +0.000 A 
ATOM     35  C   UNL     1      10.703  -5.856  -7.449  0.00  0.00    +0.000 A 
ATOM     36  C   UNL     1       9.825  -6.805  -6.960  0.00  0.00    +0.000 A 
ATOM     37  C   UNL     1       8.498  -6.476  -6.750  0.00  0.00    +0.004 A 
ENDBRANCH  31  32
ENDBRANCH  30  31
ENDBRANCH  29  30
ENDBRANCH  27  29
ENDBRANCH   3  27
TORSDOF 13
