REMARK  Name = ZINC06753198
REMARK  7 active torsions:
REMARK  status: ('A' for Active; 'I' for Inactive)
REMARK    1  A    between atoms: C_1  and  C_2
REMARK    2  A    between atoms: C_5  and  O_29
REMARK    3  A    between atoms: C_6  and  C_8
REMARK    4  A    between atoms: N_16  and  C_26
REMARK    5  A    between atoms: C_17  and  C_19
REMARK    6  A    between atoms: C_26  and  C_27
REMARK    7  A    between atoms: C_27  and  O_28
REMARK                            x       y       z     vdW  Elec       q    Type
REMARK                         _______ _______ _______ _____ _____    ______ ____
ROOT
ATOM      1  C   UNL     1      -0.371  -3.454   2.668  0.00  0.00    +0.075 A 
ATOM      2  C   UNL     1       0.802  -3.879   3.207  0.00  0.00    +0.035 A 
ATOM      3  C   UNL     1       0.467  -4.483   4.440  0.00  0.00    +0.153 A 
ATOM      4  N   UNL     1      -0.841  -4.391   4.569  0.00  0.00    -0.168 NA
ATOM      5  N   UNL     1      -1.353  -3.791   3.555  0.00  0.00    -0.276 N 
ATOM      6  H   UNL     1      -2.298  -3.607   3.435  0.00  0.00    +0.189 HD
ATOM      7  C   UNL     1       1.715  -4.961   5.062  0.00  0.00    +0.268 C 
ATOM      8  O   UNL     1       1.781  -5.531   6.134  0.00  0.00    -0.268 OA
ATOM      9  N   UNL     1       2.769  -4.679   4.278  0.00  0.00    -0.283 N 
ATOM     10  C   UNL     1       2.296  -3.991   3.072  0.00  0.00    +0.144 C 
ENDROOT
BRANCH   1  16
ATOM     11  C   UNL     1      -1.506   0.680   0.116  0.00  0.00    +0.044 C 
ATOM     12  C   UNL     1      -1.094  -0.769   0.143  0.00  0.00    -0.050 A 
ATOM     13  C   UNL     1      -0.881  -1.446  -1.045  0.00  0.00    +0.007 A 
ATOM     14  C   UNL     1      -0.502  -2.776  -1.032  0.00  0.00    +0.046 A 
ATOM     15  C   UNL     1      -0.334  -3.438   0.173  0.00  0.00    +0.126 A 
ATOM     16  C   UNL     1      -0.548  -2.756   1.376  0.00  0.00    +0.042 A 
ATOM     17  C   UNL     1      -0.924  -1.413   1.351  0.00  0.00    +0.017 A 
BRANCH  15  18
ATOM     18  O   UNL     1       0.038  -4.744   0.187  0.00  0.00    -0.506 OA
ATOM     19  H   UNL     1       0.993  -4.883   0.116  0.00  0.00    +0.292 HD
ENDBRANCH  15  18
ENDBRANCH   1  16
BRANCH  10  20
ATOM     20  C   UNL     1       2.646  -4.794   1.846  0.00  0.00    +0.013 A 
ATOM     21  C   UNL     1       3.157  -4.162   0.728  0.00  0.00    +0.008 A 
ATOM     22  C   UNL     1       3.478  -4.899  -0.397  0.00  0.00    +0.001 A 
ATOM     23  C   UNL     1       3.289  -6.268  -0.405  0.00  0.00    +0.003 A 
ATOM     24  C   UNL     1       2.778  -6.902   0.712  0.00  0.00    +0.039 A 
ATOM     25  C   UNL     1       2.461  -6.166   1.841  0.00  0.00    +0.129 A 
ATOM     26  F   UNL     1       1.966  -6.785   2.935  0.00  0.00    -0.205 F 
ENDBRANCH  10  20
BRANCH   9  27
ATOM     27  C   UNL     1       4.165  -5.006   4.579  0.00  0.00    +0.137 C 
BRANCH  27  28
ATOM     28  C   UNL     1       4.780  -3.889   5.425  0.00  0.00    +0.175 C 
BRANCH  28  29
ATOM     29  O   UNL     1       4.102  -3.814   6.680  0.00  0.00    -0.393 OA
ATOM     30  H   UNL     1       4.388  -3.078   7.238  0.00  0.00    +0.209 HD
ENDBRANCH  28  29
ENDBRANCH  27  28
ENDBRANCH   9  27
TORSDOF 6
