REMARK  Name = ZINC44019538
REMARK  5 active torsions:
REMARK  status: ('A' for Active; 'I' for Inactive)
REMARK    1  A    between atoms: C_1  and  C_2
REMARK    2  A    between atoms: C_7  and  N_8
REMARK    3  A    between atoms: C_12  and  N_17
REMARK    4  A    between atoms: N_17  and  C_18
REMARK    5  A    between atoms: C_18  and  C_19
REMARK                            x       y       z     vdW  Elec       q    Type
REMARK                         _______ _______ _______ _____ _____    ______ ____
ROOT
ATOM      1  N   UNL     1       0.025  -0.013   2.418  0.00  0.00    -0.229 N 
ATOM      2  C   UNL     1      -1.144   0.296   3.013  0.00  0.00    +0.263 A 
ATOM      3  O   UNL     1      -2.200  -0.024   2.494  0.00  0.00    -0.267 OA
ATOM      4  C   UNL     1      -1.139   0.990   4.233  0.00  0.00    +0.112 A 
ATOM      5  C   UNL     1       0.058   1.337   4.795  0.00  0.00    +0.105 A 
ATOM      6  N   UNL     1       1.226   1.002   4.154  0.00  0.00    -0.295 N 
ATOM      7  H   UNL     1       2.079   1.246   4.547  0.00  0.00    +0.172 HD
ATOM      8  C   UNL     1       1.194   0.333   2.987  0.00  0.00    +0.335 A 
ATOM      9  O   UNL     1       2.238   0.040   2.436  0.00  0.00    -0.246 OA
ENDROOT
BRANCH   1  16
ATOM     10  C   UNL     1      -0.018   1.503   0.010  0.00  0.00    +0.046 C 
ATOM     11  C   UNL     1       0.002  -0.004   0.002  0.00  0.00    -0.026 A 
ATOM     12  C   UNL     1       0.006  -0.689  -1.198  0.00  0.00    +0.007 A 
ATOM     13  C   UNL     1       0.025  -2.071  -1.207  0.00  0.00    +0.020 A 
ATOM     14  C   UNL     1       0.040  -2.773  -0.014  0.00  0.00    +0.043 A 
ATOM     15  C   UNL     1       0.036  -2.093   1.189  0.00  0.00    +0.046 A 
ATOM     16  C   UNL     1       0.023  -0.705   1.200  0.00  0.00    +0.059 A 
ATOM     17 CL   UNL     1       0.064  -4.509  -0.030  0.00  0.00    -0.083 Cl
ENDBRANCH   1  16
BRANCH   5  18
ATOM     18  N   UNL     1       0.092   2.015   5.987  0.00  0.00    -0.326 N 
ATOM     19  H   UNL     1      -0.735   2.250   6.435  0.00  0.00    +0.148 HD
BRANCH  18  20
ATOM     20  C   UNL     1       1.379   2.385   6.582  0.00  0.00    +0.138 C 
BRANCH  20  21
ATOM     21  C   UNL     1       1.141   3.116   7.878  0.00  0.00    -0.027 A 
ATOM     22  C   UNL     1       1.001   4.491   7.879  0.00  0.00    +0.009 A 
ATOM     23  C   UNL     1       0.782   5.166   9.066  0.00  0.00    +0.050 A 
ATOM     24  C   UNL     1       0.703   4.465  10.258  0.00  0.00    +0.166 A 
ATOM     25  C   UNL     1       0.843   3.079  10.257  0.00  0.00    +0.167 A 
ATOM     26  C   UNL     1       1.057   2.409   9.063  0.00  0.00    +0.054 A 
ATOM     27  O   UNL     1       0.727   2.628  11.540  0.00  0.00    -0.453 OA
ATOM     28  C   UNL     1       0.921   3.786  12.374  0.00  0.00    +0.466 C 
ATOM     29  O   UNL     1       0.498   4.881  11.541  0.00  0.00    -0.453 OA
ENDBRANCH  20  21
ENDBRANCH  18  20
ENDBRANCH   5  18
TORSDOF 4
