REMARK  Name = ZINC09302721
REMARK  4 active torsions:
REMARK  status: ('A' for Active; 'I' for Inactive)
REMARK    1  A    between atoms: C_7  and  O_8
REMARK    2  A    between atoms: C_9  and  C_24
REMARK    3  A    between atoms: C_13  and  C_15
REMARK    4  A    between atoms: C_19  and  N_21
REMARK                            x       y       z     vdW  Elec       q    Type
REMARK                         _______ _______ _______ _____ _____    ______ ____
ROOT
ATOM      1  C   UNL     1       0.384  12.773   0.058  0.00  0.00    +0.001 A 
ATOM      2  C   UNL     1      -0.935  12.343   0.068  0.00  0.00    +0.001 A 
ATOM      3  C   UNL     1      -1.221  10.991   0.066  0.00  0.00    +0.016 A 
ATOM      4  C   UNL     1      -0.180  10.086   0.051  0.00  0.00    +0.025 A 
ATOM      5  C   UNL     1       1.166  10.506   0.040  0.00  0.00    +0.031 A 
ATOM      6  C   UNL     1       1.421  11.886   0.044  0.00  0.00    +0.012 A 
ATOM      7  C   UNL     1       2.264   9.548   0.026  0.00  0.00    +0.135 A 
ATOM      8  C   UNL     1       2.235   8.160   0.024  0.00  0.00    +0.052 A 
ATOM      9  C   UNL     1       1.069   7.390   0.026  0.00  0.00    +0.084 A 
ATOM     10  S   UNL     1      -0.446   8.333   0.045  0.00  0.00    -0.073 S 
ATOM     11  N   UNL     1       1.088   6.012   0.020  0.00  0.00    -0.275 N 
ATOM     12  C   UNL     1      -0.070   5.322   0.029  0.00  0.00    +0.249 C 
ATOM     13  O   UNL     1      -1.131   5.916   0.041  0.00  0.00    -0.270 OA
ATOM     14  H   UNL     1       2.048   5.475   0.009  0.00  0.00    +0.156 HD
ENDROOT
BRANCH   8  15
ATOM     15  C   UNL     1       3.532   7.444   0.015  0.00  0.00    -0.012 A 
ATOM     16  C   UNL     1       3.906   6.659   1.105  0.00  0.00    +0.010 A 
ATOM     17  C   UNL     1       5.113   5.990   1.088  0.00  0.00    +0.016 A 
ATOM     18  C   UNL     1       5.956   6.106  -0.003  0.00  0.00    +0.018 A 
ATOM     19  C   UNL     1       5.592   6.888  -1.086  0.00  0.00    +0.016 A 
ATOM     20  C   UNL     1       4.385   7.557  -1.082  0.00  0.00    +0.010 A 
ATOM     21 BR   UNL     1       7.612   5.192  -0.016  0.00  0.00    -0.050 Br
ENDBRANCH   8  15
BRANCH  12  22
ATOM     22  C   UNL     1      -0.050   3.845   0.022  0.00  0.00    +0.039 A 
ATOM     23  C   UNL     1       1.167   3.160   0.007  0.00  0.00    +0.013 A 
ATOM     24  C   UNL     1       1.178   1.781   0.000  0.00  0.00    +0.003 A 
ATOM     25  C   UNL     1      -0.013   1.076   0.008  0.00  0.00    +0.033 A 
ATOM     26  C   UNL     1      -1.222   1.748   0.017  0.00  0.00    +0.127 A 
ATOM     27  C   UNL     1      -1.248   3.127   0.030  0.00  0.00    +0.045 A 
BRANCH  26  28
ATOM     28  N   UNL     1      -2.490   0.986   0.019  0.00  0.00    +0.056 N 
ATOM     29  O   UNL     1      -2.469  -0.232   0.013  0.00  0.00    -0.126 OA
ATOM     30  O   UNL     1      -3.556   1.576   0.028  0.00  0.00    -0.126 OA
ENDBRANCH  26  28
ENDBRANCH  12  22
BRANCH   7  31
ATOM     31  O   UNL     1       3.381  10.041   0.018  0.00  0.00    -0.505 OA
ATOM     32  H   UNL     1       4.269   9.392   0.007  0.00  0.00    +0.292 HD
ENDBRANCH   7  31
TORSDOF 4
