REMARK  Name = ZINC23128326
REMARK  4 active torsions:
REMARK  status: ('A' for Active; 'I' for Inactive)
REMARK    1  A    between atoms: C_3  and  O_23
REMARK    2  A    between atoms: C_4  and  C_10
REMARK    3  A    between atoms: C_6  and  N_7
REMARK    4  A    between atoms: C_13  and  C_15
REMARK                            x       y       z     vdW  Elec       q    Type
REMARK                         _______ _______ _______ _____ _____    ______ ____
ROOT
ATOM      1  C   UNL     1       3.633  -0.668  -0.038  0.00  0.00    +0.139 A 
ATOM      2  C   UNL     1       4.700  -0.415  -0.927  0.00  0.00    +0.050 A 
ATOM      3  C   UNL     1       5.700  -1.286  -0.627  0.00  0.00    +0.050 A 
ATOM      4  C   UNL     1       5.215  -2.100   0.492  0.00  0.00    +0.130 A 
ATOM      5  O   UNL     1       3.971  -1.668   0.794  0.00  0.00    -0.455 OA
ENDROOT
BRANCH   4   6
ATOM      6  C   UNL     1       5.907  -3.120   1.126  0.00  0.00    +0.066 C 
ATOM      7  C   UNL     1       5.311  -3.816   2.190  0.00  0.00    +0.081 C 
ATOM      8  C   UNL     1       5.876  -4.929   3.003  0.00  0.00    +0.257 C 
ATOM      9  O   UNL     1       6.990  -5.367   2.800  0.00  0.00    -0.269 OA
ATOM     10  N   UNL     1       5.098  -5.415   3.959  0.00  0.00    -0.261 N 
ATOM     11  C   UNL     1       3.845  -4.857   4.120  0.00  0.00    +0.158 C 
ATOM     12  N   UNL     1       2.927  -5.176   4.986  0.00  0.00    -0.279 NA
ATOM     13  S   UNL     1       3.787  -3.594   2.865  0.00  0.00    -0.049 S 
ATOM     14  H   UNL     1       5.400  -6.141   4.528  0.00  0.00    +0.157 HD
ATOM     15  H   UNL     1       2.082  -4.700   4.993  0.00  0.00    +0.189 HD
ENDBRANCH   4   6
BRANCH   1  19
ATOM     16  C   UNL     1      -0.017   1.386   0.010  0.00  0.00    +0.036 A 
ATOM     17  C   UNL     1       1.162   2.106   0.002  0.00  0.00    +0.048 A 
ATOM     18  C   UNL     1       2.380   1.442  -0.013  0.00  0.00    +0.128 A 
ATOM     19  C   UNL     1       2.401   0.028  -0.021  0.00  0.00    +0.061 A 
ATOM     20  C   UNL     1       1.185  -0.682  -0.013  0.00  0.00    +0.048 A 
ATOM     21  C   UNL     1       0.002  -0.004   0.002  0.00  0.00    +0.127 A 
BRANCH  21  22
ATOM     22  N   UNL     1      -1.273  -0.755   0.010  0.00  0.00    +0.056 N 
ATOM     23  O   UNL     1      -2.419  -0.106   0.025  0.00  0.00    -0.126 OA
ATOM     24  O   UNL     1      -1.262  -2.072   0.003  0.00  0.00    -0.126 OA
ENDBRANCH  21  22
BRANCH  18  25
ATOM     25  O   UNL     1       3.539   2.143  -0.022  0.00  0.00    -0.506 OA
ATOM     26  H   UNL     1       3.884   2.342   0.859  0.00  0.00    +0.292 HD
ENDBRANCH  18  25
ENDBRANCH   1  19
TORSDOF 4
