REMARK  Name = ZINC06197892
REMARK  13 active torsions:
REMARK  status: ('A' for Active; 'I' for Inactive)
REMARK    1  A    between atoms: C_1  and  C_2
REMARK    2  A    between atoms: C_2  and  C_3
REMARK    3  A    between atoms: C_10  and  C_15
REMARK    4  A    between atoms: C_15  and  C_17
REMARK    5  A    between atoms: C_15  and  N_72
REMARK    6  A    between atoms: N_21  and  C_22
REMARK    7  A    between atoms: C_22  and  C_23
REMARK    8  A    between atoms: C_22  and  C_24
REMARK    9  A    between atoms: C_22  and  C_25
REMARK   10  A    between atoms: C_26  and  C_27
REMARK   11  A    between atoms: C_26  and  N_72
REMARK   12  A    between atoms: C_33  and  C_34
REMARK   13  A    between atoms: C_33  and  N_72
REMARK                            x       y       z     vdW  Elec       q    Type
REMARK                         _______ _______ _______ _____ _____    ______ ____
ROOT
ATOM      1  C   UNL     1       6.549  -1.627   0.721  0.00  0.00    +0.040 C 
ENDROOT
BRANCH   1   9
ATOM      2  C   UNL     1       1.531   0.185  -2.412  0.00  0.00    -0.047 A 
ATOM      3  C   UNL     1       0.687   0.278  -1.314  0.00  0.00    +0.005 A 
ATOM      4  C   UNL     1       1.145  -0.014  -0.048  0.00  0.00    +0.026 A 
ATOM      5  C   UNL     1       2.467  -0.408   0.134  0.00  0.00    +0.049 A 
ATOM      6  C   UNL     1       3.320  -0.501  -0.982  0.00  0.00    -0.001 A 
ATOM      7  C   UNL     1       2.832  -0.199  -2.258  0.00  0.00    +0.013 A 
ATOM      8  C   UNL     1       4.709  -0.916  -0.780  0.00  0.00    +0.017 A 
ATOM      9  C   UNL     1       5.125  -1.197   0.479  0.00  0.00    +0.011 A 
ATOM     10  C   UNL     1       4.230  -1.088   1.565  0.00  0.00    +0.251 A 
ATOM     11  O   UNL     1       4.624  -1.344   2.689  0.00  0.00    -0.268 OA
ATOM     12  N   UNL     1       2.952  -0.707   1.389  0.00  0.00    -0.322 N 
ATOM     13  H   UNL     1       2.345  -0.640   2.181  0.00  0.00    +0.169 HD
BRANCH   2  15
ATOM     14  C   UNL     1       1.213   1.998  -4.074  0.00  0.00    +0.009 C 
ATOM     15  C   UNL     1       1.006   0.509  -3.787  0.00  0.00    +0.032 C 
ENDBRANCH   2  15
ENDBRANCH   1   9
BRANCH   1  16
ATOM     16  C   UNL     1       7.281  -1.706  -0.594  0.00  0.00    +0.143 A 
ATOM     17  N   UNL     1       7.691  -0.697  -1.323  0.00  0.00    -0.115 NA
ATOM     18  N   UNL     1       8.271  -1.172  -2.370  0.00  0.00    -0.023 NA
ATOM     19  N   UNL     1       8.243  -2.459  -2.328  0.00  0.00    -0.043 NA
ATOM     20  N   UNL     1       7.645  -2.826  -1.245  0.00  0.00    -0.225 N 
BRANCH  20  21
ATOM     21  C   UNL     1       7.405  -4.204  -0.808  0.00  0.00    +0.059 C 
ATOM     22  C   UNL     1       5.909  -4.405  -0.558  0.00  0.00    +0.036 C 
ATOM     23  C   UNL     1       7.875  -5.173  -1.895  0.00  0.00    +0.036 C 
ATOM     24  C   UNL     1       8.179  -4.471   0.484  0.00  0.00    +0.036 C 
ENDBRANCH  20  21
ENDBRANCH   1  16
BRANCH   1  25
ATOM     25  N   UNL     1       7.200  -0.649   1.619  0.00  0.00    +0.395 N 
ATOM     26  H   UNL     1       6.694  -0.628   2.512  0.00  0.00    -0.079 HD
BRANCH  25  27
ATOM     27  C   UNL     1       7.160   0.698   1.012  0.00  0.00    -0.041 C 
BRANCH  27  28
ATOM     28  C   UNL     1       5.894   1.386   1.454  0.00  0.00    -0.064 A 
ATOM     29  C   UNL     1       4.864   1.584   0.554  0.00  0.00    +0.002 A 
ATOM     30  C   UNL     1       3.701   2.210   0.961  0.00  0.00    +0.000 A 
ATOM     31  C   UNL     1       3.572   2.648   2.266  0.00  0.00    +0.000 A 
ATOM     32  C   UNL     1       4.605   2.455   3.165  0.00  0.00    +0.000 A 
ATOM     33  C   UNL     1       5.766   1.824   2.759  0.00  0.00    +0.002 A 
ENDBRANCH  27  28
ENDBRANCH  25  27
BRANCH  25  34
ATOM     34  C   UNL     1       8.601  -1.049   1.870  0.00  0.00    -0.041 C 
BRANCH  34  35
ATOM     35  C   UNL     1       9.126  -0.262   3.043  0.00  0.00    -0.064 A 
ATOM     36  C   UNL     1       9.773   0.941   2.833  0.00  0.00    +0.004 A 
ATOM     37  C   UNL     1      10.251   1.666   3.908  0.00  0.00    +0.038 A 
ATOM     38  C   UNL     1      10.090   1.182   5.196  0.00  0.00    +0.123 A 
ATOM     39  C   UNL     1       9.446  -0.026   5.404  0.00  0.00    +0.038 A 
ATOM     40  C   UNL     1       8.965  -0.747   4.327  0.00  0.00    +0.004 A 
ATOM     41  F   UNL     1      10.561   1.887   6.247  0.00  0.00    -0.205 F 
ENDBRANCH  34  35
ENDBRANCH  25  34
ENDBRANCH   1  25
TORSDOF 9
