REMARK  Name = ZINC39630644
REMARK  11 active torsions:
REMARK  status: ('A' for Active; 'I' for Inactive)
REMARK    1  A    between atoms: C_1  and  C_2
REMARK    2  A    between atoms: C_2  and  C_3
REMARK    3  A    between atoms: C_2  and  C_4
REMARK    4  A    between atoms: C_4  and  C_6
REMARK    5  A    between atoms: C_4  and  N_9
REMARK    6  A    between atoms: C_10  and  S_21
REMARK    7  A    between atoms: S_21  and  C_22
REMARK    8  A    between atoms: C_22  and  C_23
REMARK    9  A    between atoms: N_25  and  C_26
REMARK   10  A    between atoms: C_26  and  C_27
REMARK   11  A    between atoms: C_27  and  C_28
REMARK                            x       y       z     vdW  Elec       q    Type
REMARK                         _______ _______ _______ _____ _____    ______ ____
ROOT
ATOM      1  N   UNL     1      -1.413  -1.998   0.005  0.00  0.00    -0.256 N 
ATOM      2  C   UNL     1      -2.036  -2.732   1.107  0.00  0.00    +0.223 C 
ATOM      3  N   UNL     1      -2.602  -3.995   0.623  0.00  0.00    -0.317 N 
ATOM      4  C   UNL     1      -1.860  -4.765  -0.265  0.00  0.00    +0.041 A 
ATOM      5  C   UNL     1      -1.991  -6.143  -0.321  0.00  0.00    +0.024 A 
ATOM      6  C   UNL     1      -1.239  -6.865  -1.229  0.00  0.00    +0.002 A 
ATOM      7  C   UNL     1      -0.358  -6.221  -2.083  0.00  0.00    +0.001 A 
ATOM      8  C   UNL     1      -0.213  -4.850  -2.037  0.00  0.00    +0.015 A 
ATOM      9  C   UNL     1      -0.960  -4.111  -1.123  0.00  0.00    +0.058 A 
ATOM     10  C   UNL     1      -0.827  -2.647  -1.021  0.00  0.00    +0.251 C 
ATOM     11  O   UNL     1      -0.191  -2.030  -1.854  0.00  0.00    -0.270 OA
ATOM     12  H   UNL     1      -3.479  -4.289   0.918  0.00  0.00    +0.149 HD
ENDROOT
BRANCH   1  13
ATOM     13  C   UNL     1      -1.433  -0.534   0.013  0.00  0.00    +0.194 C 
BRANCH  13  15
ATOM     14  C   UNL     1      -0.019   1.526   0.010  0.00  0.00    +0.009 C 
ATOM     15  C   UNL     1       0.002  -0.004   0.002  0.00  0.00    +0.014 C 
ATOM     16  C   UNL     1       0.742  -0.511   1.242  0.00  0.00    +0.009 C 
ENDBRANCH  13  15
BRANCH  13  17
ATOM     17  C   UNL     1      -2.162  -0.034  -1.208  0.00  0.00    +0.376 C 
ATOM     18  O   UNL     1      -2.146  -0.688  -2.237  0.00  0.00    -0.244 OA
ATOM     19  O   UNL     1      -2.768   1.023  -1.166  0.00  0.00    -0.244 OA
ENDBRANCH  13  17
ENDBRANCH   1  13
BRANCH   2  20
ATOM     20  S   UNL     1      -0.786  -3.085   2.374  0.00  0.00    -0.110 S 
BRANCH  20  21
ATOM     21  C   UNL     1       0.454  -4.082   1.502  0.00  0.00    +0.168 C 
BRANCH  21  22
ATOM     22  C   UNL     1       1.563  -4.449   2.453  0.00  0.00    +0.223 C 
ATOM     23  O   UNL     1       1.522  -4.074   3.606  0.00  0.00    -0.275 OA
ATOM     24  N   UNL     1       2.602  -5.192   2.022  0.00  0.00    -0.314 N 
ATOM     25  H   UNL     1       2.635  -5.491   1.100  0.00  0.00    +0.149 HD
BRANCH  24  26
ATOM     26  C   UNL     1       3.680  -5.549   2.947  0.00  0.00    +0.109 C 
BRANCH  26  27
ATOM     27  C   UNL     1       4.726  -6.389   2.211  0.00  0.00    +0.056 C 
BRANCH  27  28
ATOM     28  C   UNL     1       5.836  -6.756   3.163  0.00  0.00    -0.021 A 
ATOM     29  C   UNL     1       5.853  -7.894   4.084  0.00  0.00    +0.003 A 
ATOM     30  C   UNL     1       4.953  -8.922   4.374  0.00  0.00    +0.010 A 
ATOM     31  C   UNL     1       5.275  -9.860   5.315  0.00  0.00    +0.001 A 
ATOM     32  C   UNL     1       6.488  -9.798   5.985  0.00  0.00    +0.002 A 
ATOM     33  C   UNL     1       7.391  -8.793   5.715  0.00  0.00    +0.026 A 
ATOM     34  C   UNL     1       7.085  -7.828   4.761  0.00  0.00    +0.047 A 
ATOM     35  N   UNL     1       7.755  -6.727   4.277  0.00  0.00    -0.360 N 
ATOM     36  C   UNL     1       6.999  -6.105   3.322  0.00  0.00    +0.087 A 
ATOM     37  H   UNL     1       8.635  -6.439   4.567  0.00  0.00    +0.165 HD
ENDBRANCH  27  28
ENDBRANCH  26  27
ENDBRANCH  24  26
ENDBRANCH  21  22
ENDBRANCH  20  21
ENDBRANCH   2  20
TORSDOF 9
