REMARK  Name = ZINC30636811
REMARK  8 active torsions:
REMARK  status: ('A' for Active; 'I' for Inactive)
REMARK    1  A    between atoms: C_1  and  C_2
REMARK    2  A    between atoms: C_12  and  C_16
REMARK    3  A    between atoms: N_18  and  C_19
REMARK    4  A    between atoms: C_19  and  C_20
REMARK    5  A    between atoms: C_20  and  C_22
REMARK    6  A    between atoms: C_20  and  N_27
REMARK    7  A    between atoms: N_27  and  C_28
REMARK    8  A    between atoms: N_27  and  C_29
REMARK                            x       y       z     vdW  Elec       q    Type
REMARK                         _______ _______ _______ _____ _____    ______ ____
ROOT
ATOM      1  C   UNL     1      -4.742  -0.249  12.239  0.00  0.00    +0.008 C 
ATOM      2  C   UNL     1      -4.659   0.028  10.736  0.00  0.00    -0.009 C 
ATOM      3  C   UNL     1      -5.499   1.262  10.397  0.00  0.00    +0.009 C 
ATOM      4  C   UNL     1      -5.621   1.396   8.875  0.00  0.00    +0.054 C 
ATOM      5  C   UNL     1      -4.238   1.299   8.272  0.00  0.00    +0.020 A 
ATOM      6  C   UNL     1      -3.173   0.799   8.926  0.00  0.00    -0.019 A 
ATOM      7  C   UNL     1      -2.031   0.880   8.021  0.00  0.00    +0.004 A 
ATOM      8  C   UNL     1      -0.681   0.538   8.121  0.00  0.00    +0.010 A 
ATOM      9  C   UNL     1       0.166   0.748   7.054  0.00  0.00    +0.001 A 
ATOM     10  C   UNL     1      -0.308   1.297   5.875  0.00  0.00    +0.015 A 
ATOM     11  C   UNL     1      -1.651   1.646   5.749  0.00  0.00    +0.061 A 
ATOM     12  C   UNL     1      -2.526   1.444   6.829  0.00  0.00    +0.059 A 
ATOM     13  N   UNL     1      -3.865   1.682   7.014  0.00  0.00    -0.357 N 
ATOM     14  H   UNL     1      -4.608   2.109   6.326  0.00  0.00    +0.166 HD
ATOM     15  C   UNL     1      -3.199   0.285  10.342  0.00  0.00    +0.040 C 
ENDROOT
BRANCH  11  16
ATOM     16  C   UNL     1      -2.150   2.231   4.490  0.00  0.00    +0.246 C 
ATOM     17  O   UNL     1      -3.322   2.535   4.384  0.00  0.00    -0.270 OA
ATOM     18  N   UNL     1      -1.306   2.429   3.458  0.00  0.00    -0.313 N 
ATOM     19  H   UNL     1      -0.245   2.154   3.555  0.00  0.00    +0.149 HD
BRANCH  18  20
ATOM     20  C   UNL     1      -1.801   3.010   2.208  0.00  0.00    +0.094 C 
BRANCH  20  21
ATOM     21  C   UNL     1      -0.678   3.017   1.169  0.00  0.00    -0.020 C 
BRANCH  21  22
ATOM     22  C   UNL     1      -1.206   3.552  -0.138  0.00  0.00    -0.052 A 
ATOM     23  C   UNL     1      -0.488   4.492  -0.853  0.00  0.00    +0.009 A 
ATOM     24  C   UNL     1      -0.988   4.948  -2.027  0.00  0.00    +0.045 A 
ATOM     25  S   UNL     1      -2.527   4.051  -2.146  0.00  0.00    -0.105 S 
ATOM     26  C   UNL     1      -2.396   3.123  -0.626  0.00  0.00    +0.047 A 
ENDBRANCH  21  22
BRANCH  21  27
ATOM     27  N   UNL     1      -0.183   1.648   0.973  0.00  0.00    +0.382 N 
ATOM     28  C   UNL     1      -1.291   0.684   0.961  0.00  0.00    -0.096 C 
ATOM     29  C   UNL     1       0.616   1.548  -0.256  0.00  0.00    -0.096 C 
ATOM     30  H   UNL     1       0.471   1.401   1.823  0.00  0.00    -0.082 HD
ENDBRANCH  21  27
ENDBRANCH  20  21
ENDBRANCH  18  20
ENDBRANCH  11  16
TORSDOF 5
