REMARK  Name = ZINC16901804
REMARK  5 active torsions:
REMARK  status: ('A' for Active; 'I' for Inactive)
REMARK    1  A    between atoms: C_1  and  C_2
REMARK    2  A    between atoms: C_4  and  O_25
REMARK    3  A    between atoms: C_7  and  N_8
REMARK    4  A    between atoms: C_12  and  N_16
REMARK    5  A    between atoms: N_16  and  C_17
REMARK                            x       y       z     vdW  Elec       q    Type
REMARK                         _______ _______ _______ _____ _____    ______ ____
ROOT
ATOM      1  N   UNL     1       0.025  -0.010   2.419  0.00  0.00    -0.209 N 
ATOM      2  C   UNL     1      -1.099   0.329   3.062  0.00  0.00    +0.228 C 
ATOM      3  O   UNL     1      -2.225   0.085   2.684  0.00  0.00    -0.275 OA
ATOM      4  C   UNL     1      -0.743   1.063   4.336  0.00  0.00    +0.128 C 
ATOM      5  C   UNL     1       0.799   1.091   4.318  0.00  0.00    +0.166 C 
ATOM      6  C   UNL     1       1.152   0.364   3.038  0.00  0.00    +0.247 C 
ATOM      7  O   UNL     1       2.276   0.156   2.636  0.00  0.00    -0.273 OA
ENDROOT
BRANCH   1  14
ATOM      8  C   UNL     1      -0.018   1.503   0.010  0.00  0.00    +0.046 C 
ATOM      9  C   UNL     1       0.002  -0.004   0.002  0.00  0.00    -0.025 A 
ATOM     10  C   UNL     1       0.006  -0.688  -1.198  0.00  0.00    +0.050 A 
ATOM     11  C   UNL     1       0.025  -2.075  -1.205  0.00  0.00    +0.117 A 
ATOM     12  C   UNL     1       0.040  -2.776  -0.008  0.00  0.00    +0.047 A 
ATOM     13  C   UNL     1       0.036  -2.093   1.192  0.00  0.00    +0.028 A 
ATOM     14  C   UNL     1       0.023  -0.705   1.200  0.00  0.00    +0.047 A 
BRANCH  11  15
ATOM     15  O   UNL     1       0.027  -2.748  -2.387  0.00  0.00    -0.507 OA
ATOM     16  H   UNL     1       0.911  -2.931  -2.733  0.00  0.00    +0.292 HD
ENDBRANCH  11  15
ENDBRANCH   1  14
BRANCH   5  17
ATOM     17  N   UNL     1       1.342   0.381   5.479  0.00  0.00    -0.331 N 
ATOM     18  H   UNL     1       0.817  -0.310   5.913  0.00  0.00    +0.147 HD
BRANCH  17  19
ATOM     19  C   UNL     1       2.615   0.699   5.960  0.00  0.00    +0.048 A 
ATOM     20  C   UNL     1       3.365   1.691   5.342  0.00  0.00    +0.024 A 
ATOM     21  C   UNL     1       4.622   2.003   5.820  0.00  0.00    +0.003 A 
ATOM     22  C   UNL     1       5.137   1.329   6.912  0.00  0.00    +0.021 A 
ATOM     23  C   UNL     1       4.394   0.339   7.530  0.00  0.00    +0.061 A 
ATOM     24  C   UNL     1       3.131   0.026   7.061  0.00  0.00    +0.080 A 
ATOM     25 CL   UNL     1       2.195  -1.210   7.841  0.00  0.00    -0.080 Cl
ATOM     26 CL   UNL     1       5.043  -0.505   8.901  0.00  0.00    -0.082 Cl
ENDBRANCH  17  19
ENDBRANCH   5  17
TORSDOF 4
