REMARK  Name = ZINC65492707
REMARK  5 active torsions:
REMARK  status: ('A' for Active; 'I' for Inactive)
REMARK    1  A    between atoms: C_1  and  C_2
REMARK    2  A    between atoms: C_5  and  C_27
REMARK    3  A    between atoms: N_13  and  C_14
REMARK    4  A    between atoms: C_14  and  C_15
REMARK    5  A    between atoms: C_18  and  C_20
REMARK                            x       y       z     vdW  Elec       q    Type
REMARK                         _______ _______ _______ _____ _____    ______ ____
ROOT
ATOM      1  C   UNL     1      -0.028   1.529  -0.049  0.00  0.00    +0.028 C 
ATOM      2  C   UNL     1      -0.003  -0.001  -0.026  0.00  0.00    +0.072 C 
ATOM      3  C   UNL     1      -1.438  -0.543   0.003  0.00  0.00    +0.039 C 
ATOM      4  C   UNL     1      -1.389  -2.070  -0.045  0.00  0.00    +0.108 C 
ATOM      5  C   UNL     1      -0.458  -2.601   1.012  0.00  0.00    -0.014 A 
ATOM      6  C   UNL     1      -0.591  -3.917   1.424  0.00  0.00    +0.006 A 
ATOM      7  C   UNL     1       0.250  -4.434   2.390  0.00  0.00    +0.000 A 
ATOM      8  C   UNL     1       1.233  -3.640   2.953  0.00  0.00    +0.002 A 
ATOM      9  C   UNL     1       1.373  -2.327   2.549  0.00  0.00    +0.023 A 
ATOM     10  C   UNL     1       0.526  -1.804   1.577  0.00  0.00    +0.034 A 
ATOM     11  N   UNL     1       0.680  -0.469   1.187  0.00  0.00    -0.318 N 
ENDROOT
BRANCH   4  12
ATOM     12  C   UNL     1      -2.772  -2.620   0.194  0.00  0.00    +0.218 C 
ATOM     13  O   UNL     1      -3.518  -2.069   0.976  0.00  0.00    -0.275 OA
ATOM     14  N   UNL     1      -3.180  -3.725  -0.461  0.00  0.00    -0.329 N 
ATOM     15  H   UNL     1      -2.561  -4.207  -1.032  0.00  0.00    +0.145 HD
ATOM     16  H   UNL     1      -4.093  -4.039  -0.362  0.00  0.00    +0.145 HD
ENDBRANCH   4  12
BRANCH  11  17
ATOM     17  C   UNL     1       1.508   0.447   1.976  0.00  0.00    +0.201 C 
BRANCH  17  18
ATOM     18  C   UNL     1       0.657   1.118   3.023  0.00  0.00    +0.214 A 
ATOM     19  N   UNL     1       0.453   0.673   4.232  0.00  0.00    -0.220 NA
ATOM     20  C   UNL     1      -0.353   1.528   4.879  0.00  0.00    +0.161 A 
ATOM     21  C   UNL     1      -0.651   2.538   4.022  0.00  0.00    +0.155 A 
ATOM     22  O   UNL     1      -0.008   2.271   2.864  0.00  0.00    -0.438 OA
BRANCH  21  23
ATOM     23  C   UNL     1      -1.510   3.708   4.303  0.00  0.00    +0.019 A 
ATOM     24  C   UNL     1      -1.732   4.668   3.314  0.00  0.00    +0.014 A 
ATOM     25  C   UNL     1      -2.534   5.757   3.582  0.00  0.00    +0.039 A 
ATOM     26  C   UNL     1      -3.120   5.899   4.830  0.00  0.00    +0.123 A 
ATOM     27  C   UNL     1      -2.903   4.949   5.815  0.00  0.00    +0.039 A 
ATOM     28  C   UNL     1      -2.107   3.853   5.556  0.00  0.00    +0.014 A 
ATOM     29  F   UNL     1      -3.905   6.968   5.087  0.00  0.00    -0.205 F 
ENDBRANCH  21  23
ENDBRANCH  17  18
ENDBRANCH  11  17
TORSDOF 4
