REMARK  Name = ZINC27369055
REMARK  11 active torsions:
REMARK  status: ('A' for Active; 'I' for Inactive)
REMARK    1  A    between atoms: C_1  and  C_2
REMARK    2  A    between atoms: C_5  and  C_7
REMARK    3  A    between atoms: C_7  and  N_8
REMARK    4  A    between atoms: N_8  and  C_9
REMARK    5  A    between atoms: N_8  and  C_17
REMARK    6  A    between atoms: C_9  and  C_10
REMARK    7  A    between atoms: C_10  and  C_11
REMARK    8  A    between atoms: C_17  and  C_18
REMARK    9  A    between atoms: C_24  and  S_31
REMARK   10  A    between atoms: C_28  and  C_30
REMARK   11  A    between atoms: S_31  and  N_34
REMARK                            x       y       z     vdW  Elec       q    Type
REMARK                         _______ _______ _______ _____ _____    ______ ____
ROOT
ATOM      1  C   UNL     1       2.018   0.868   3.556  0.00  0.00    +0.020 C 
ENDROOT
BRANCH   1   2
ATOM      2  C   UNL     1       1.610   1.572   2.288  0.00  0.00    +0.203 C 
ATOM      3  O   UNL     1       2.348   2.394   1.786  0.00  0.00    -0.277 OA
ATOM      4  N   UNL     1       0.426   1.289   1.711  0.00  0.00    -0.270 N 
ATOM      5  C   UNL     1      -0.501   0.362   2.197  0.00  0.00    +0.040 A 
ATOM      6  C   UNL     1      -0.432  -0.447   3.333  0.00  0.00    +0.026 A 
ATOM      7  C   UNL     1      -1.466  -1.304   3.640  0.00  0.00    +0.030 A 
ATOM      8  C   UNL     1      -2.582  -1.369   2.826  0.00  0.00    +0.105 A 
ATOM      9  C   UNL     1      -2.658  -0.571   1.700  0.00  0.00    +0.034 A 
ATOM     10  C   UNL     1      -1.624   0.290   1.387  0.00  0.00    -0.022 A 
ATOM     11  C   UNL     1      -1.451   1.257   0.238  0.00  0.00    +0.059 C 
ATOM     12  C   UNL     1      -0.079   1.906   0.481  0.00  0.00    +0.083 C 
ATOM     13  C   UNL     1       0.864   1.608  -0.687  0.00  0.00    +0.029 C 
BRANCH   8  14
ATOM     14  S   UNL     1      -3.902  -2.467   3.222  0.00  0.00    +0.056 S 
ATOM     15  O   UNL     1      -4.586  -2.735   2.005  0.00  0.00    -0.153 OA
ATOM     16  O   UNL     1      -3.346  -3.498   4.026  0.00  0.00    -0.153 OA
BRANCH  14  17
ATOM     17  N   UNL     1      -4.959  -1.633   4.186  0.00  0.00    -0.204 NA
ATOM     18  H   UNL     1      -5.802  -2.287   4.457  0.00  0.00    +0.144 HD
ATOM     19  H   UNL     1      -5.337  -0.755   3.643  0.00  0.00    +0.144 HD
ENDBRANCH  14  17
ENDBRANCH   8  14
ENDBRANCH   1   2
BRANCH   1  20
ATOM     20  N   UNL     1       3.340   1.349   3.980  0.00  0.00    +0.389 N 
ATOM     21  H   UNL     1       4.023   1.261   3.123  0.00  0.00    -0.081 HD
BRANCH  20  22
ATOM     22  C   UNL     1       3.285   2.765   4.369  0.00  0.00    -0.035 C 
BRANCH  22  27
ATOM     23  C   UNL     1       8.513   4.643   5.478  0.00  0.00    +0.051 C 
ATOM     24  C   UNL     1       7.170   4.224   4.937  0.00  0.00    -0.013 A 
ATOM     25  C   UNL     1       6.685   4.336   3.676  0.00  0.00    +0.011 A 
ATOM     26  C   UNL     1       5.410   3.878   3.405  0.00  0.00    +0.009 A 
ATOM     27  C   UNL     1       4.681   3.330   4.409  0.00  0.00    -0.026 A 
ATOM     28  S   UNL     1       5.803   3.457   5.792  0.00  0.00    -0.100 S 
ENDBRANCH  22  27
ENDBRANCH  20  22
BRANCH  20  29
ATOM     29  C   UNL     1       3.875   0.525   5.071  0.00  0.00    -0.073 C 
BRANCH  29  30
ATOM     30  C   UNL     1       4.377  -0.805   4.506  0.00  0.00    +0.016 C 
BRANCH  30  31
ATOM     31  C   UNL     1       5.018  -1.610   5.607  0.00  0.00    -0.049 A 
ATOM     32  C   UNL     1       6.371  -1.478   5.862  0.00  0.00    +0.003 A 
ATOM     33  C   UNL     1       6.958  -2.212   6.876  0.00  0.00    +0.000 A 
ATOM     34  C   UNL     1       6.195  -3.085   7.628  0.00  0.00    +0.000 A 
ATOM     35  C   UNL     1       4.843  -3.220   7.370  0.00  0.00    +0.000 A 
ATOM     36  C   UNL     1       4.255  -2.482   6.360  0.00  0.00    +0.003 A 
ENDBRANCH  30  31
ENDBRANCH  29  30
ENDBRANCH  20  29
ENDBRANCH   1  20
TORSDOF 9
