REMARK  Name = ZINC01643552
REMARK  3 active torsions:
REMARK  status: ('A' for Active; 'I' for Inactive)
REMARK    1  A    between atoms: C_1  and  N_2
REMARK    2  A    between atoms: C_3  and  C_14
REMARK    3  A    between atoms: C_6  and  C_8
REMARK                            x       y       z     vdW  Elec       q    Type
REMARK                         _______ _______ _______ _____ _____    ______ ____
ROOT
ATOM      1  C   UNL     1       3.776   2.282  -1.566  0.00  0.00    +0.156 C 
ATOM      2  N   UNL     1       3.580   3.045  -0.331  0.00  0.00    -0.213 N 
ATOM      3  C   UNL     1       2.453   3.935  -0.001  0.00  0.00    +0.314 C 
ATOM      4  O   UNL     1       2.757   4.421   1.314  0.00  0.00    -0.447 OA
ATOM      5  C   UNL     1       3.933   3.866   1.696  0.00  0.00    +0.239 C 
ATOM      6  N   UNL     1       4.423   3.084   0.792  0.00  0.00    -0.143 NA
ENDROOT
BRANCH   3   7
ATOM      7  C   UNL     1       1.158   3.165   0.007  0.00  0.00    +0.048 A 
ATOM      8  C   UNL     1       1.175   1.783   0.000  0.00  0.00    +0.012 A 
ATOM      9  C   UNL     1      -0.013   1.076   0.008  0.00  0.00    +0.001 A 
ATOM     10  C   UNL     1      -1.220   1.750   0.017  0.00  0.00    +0.003 A 
ATOM     11  C   UNL     1      -1.240   3.132   0.030  0.00  0.00    +0.039 A 
ATOM     12  C   UNL     1      -0.050   3.841   0.022  0.00  0.00    +0.132 A 
ATOM     13  F   UNL     1      -0.068   5.192   0.030  0.00  0.00    -0.205 F 
ENDBRANCH   3   7
BRANCH   5  14
ATOM     14  C   UNL     1       4.580   4.125   2.998  0.00  0.00    +0.041 A 
ATOM     15  C   UNL     1       3.996   4.991   3.933  0.00  0.00    +0.033 A 
ATOM     16  C   UNL     1       4.633   5.201   5.138  0.00  0.00    +0.111 A 
ATOM     17  N   UNL     1       5.780   4.608   5.411  0.00  0.00    -0.263 NA
ATOM     18  C   UNL     1       6.366   3.789   4.557  0.00  0.00    +0.111 A 
ATOM     19  C   UNL     1       5.797   3.518   3.331  0.00  0.00    +0.033 A 
ENDBRANCH   5  14
TORSDOF 2
