REMARK  Name = ZINC39445526
REMARK  8 active torsions:
REMARK  status: ('A' for Active; 'I' for Inactive)
REMARK    1  A    between atoms: C_1  and  O_2
REMARK    2  A    between atoms: O_2  and  C_3
REMARK    3  A    between atoms: C_6  and  C_9
REMARK    4  A    between atoms: C_9  and  C_10
REMARK    5  A    between atoms: C_10  and  C_11
REMARK    6  A    between atoms: N_20  and  C_21
REMARK    7  A    between atoms: C_27  and  C_29
REMARK    8  A    between atoms: C_29  and  C_30
REMARK                            x       y       z     vdW  Elec       q    Type
REMARK                         _______ _______ _______ _____ _____    ______ ____
ROOT
ATOM      1  C   UNL     1      -6.796  -3.578  -1.395  0.00  0.00    +0.160 C 
ATOM      2  N   UNL     1      -6.671  -4.897  -0.761  0.00  0.00    -0.323 N 
ATOM      3  C   UNL     1      -7.024  -5.852  -1.722  0.00  0.00    +0.067 A 
ATOM      4  C   UNL     1      -7.078  -7.239  -1.649  0.00  0.00    +0.028 A 
ATOM      5  C   UNL     1      -7.470  -7.947  -2.776  0.00  0.00    +0.019 A 
ATOM      6  C   UNL     1      -7.792  -7.257  -3.927  0.00  0.00    +0.084 A 
ATOM      7  N   UNL     1      -7.733  -5.940  -3.970  0.00  0.00    -0.348 N 
ATOM      8  C   UNL     1      -7.364  -5.220  -2.917  0.00  0.00    +0.122 A 
ATOM      9  N   UNL     1      -7.242  -3.836  -2.770  0.00  0.00    -0.294 N 
ATOM     10  H   UNL     1      -6.394  -5.073   0.151  0.00  0.00    +0.148 HD
ATOM     11  H   UNL     1      -7.965  -5.485  -4.794  0.00  0.00    +0.167 HD
ENDROOT
BRANCH   9  12
ATOM     12  C   UNL     1      -7.510  -2.827  -3.797  0.00  0.00    +0.080 C 
ATOM     13  C   UNL     1      -8.969  -2.930  -4.246  0.00  0.00    +0.041 C 
ATOM     14  C   UNL     1      -9.255  -1.851  -5.295  0.00  0.00    +0.109 C 
ATOM     15  N   UNL     1      -8.277  -1.981  -6.385  0.00  0.00    -0.301 N 
ATOM     16  C   UNL     1      -6.846  -1.984  -6.053  0.00  0.00    +0.109 C 
ATOM     17  C   UNL     1      -6.588  -3.062  -4.995  0.00  0.00    +0.041 C 
ATOM     18  C   UNL     1      -8.686  -2.094  -7.664  0.00  0.00    +0.220 C 
ATOM     19  O   UNL     1      -9.871  -2.091  -7.925  0.00  0.00    -0.275 OA
BRANCH  18  20
ATOM     20  C   UNL     1      -7.672  -2.227  -8.770  0.00  0.00    +0.133 C 
BRANCH  20  21
ATOM     21  C   UNL     1      -8.383  -2.337 -10.094  0.00  0.00    -0.014 A 
ATOM     22  C   UNL     1      -8.857  -1.227 -10.924  0.00  0.00    +0.003 A 
ATOM     23  C   UNL     1      -8.820   0.163 -10.799  0.00  0.00    +0.010 A 
ATOM     24  C   UNL     1      -9.365   0.947 -11.776  0.00  0.00    +0.001 A 
ATOM     25  C   UNL     1      -9.955   0.373 -12.893  0.00  0.00    +0.002 A 
ATOM     26  C   UNL     1     -10.002  -0.997 -13.038  0.00  0.00    +0.026 A 
ATOM     27  C   UNL     1      -9.454  -1.814 -12.055  0.00  0.00    +0.047 A 
ATOM     28  N   UNL     1      -9.344  -3.179 -11.909  0.00  0.00    -0.360 N 
ATOM     29  C   UNL     1      -8.699  -3.471 -10.739  0.00  0.00    +0.087 A 
ATOM     30  H   UNL     1      -9.672  -3.835 -12.544  0.00  0.00    +0.165 HD
ENDBRANCH  20  21
ENDBRANCH  18  20
ENDBRANCH   9  12
BRANCH   1  31
ATOM     31  C   UNL     1      -5.443  -2.865  -1.405  0.00  0.00    +0.047 C 
BRANCH  31  32
ATOM     32  C   UNL     1      -4.981  -2.629   0.035  0.00  0.00    +0.038 C 
BRANCH  32  36
ATOM     33  C   UNL     1      -1.200  -0.637   0.010  0.00  0.00    +0.120 A 
ATOM     34  C   UNL     1      -2.375   0.101   0.019  0.00  0.00    +0.046 A 
ATOM     35  C   UNL     1      -3.596  -0.545   0.027  0.00  0.00    +0.007 A 
ATOM     36  C   UNL     1      -3.648  -1.927   0.026  0.00  0.00    -0.047 A 
ATOM     37  C   UNL     1      -2.479  -2.665   0.017  0.00  0.00    +0.007 A 
ATOM     38  C   UNL     1      -1.255  -2.024   0.003  0.00  0.00    +0.046 A 
BRANCH  33  40
ATOM     39  C   UNL     1      -0.017   1.425   0.010  0.00  0.00    +0.277 C 
ATOM     40  O   UNL     1       0.002  -0.004   0.002  0.00  0.00    -0.495 OA
ENDBRANCH  33  40
ENDBRANCH  32  36
ENDBRANCH  31  32
ENDBRANCH   1  31
TORSDOF 7
