REMARK  Name = ZINC09274501
REMARK  13 active torsions:
REMARK  status: ('A' for Active; 'I' for Inactive)
REMARK    1  A    between atoms: C_1  and  C_2
REMARK    2  A    between atoms: C_2  and  C_3
REMARK    3  A    between atoms: C_3  and  N_58
REMARK    4  A    between atoms: C_9  and  N_16
REMARK    5  A    between atoms: C_10  and  C_11
REMARK    6  A    between atoms: C_11  and  O_13
REMARK    7  A    between atoms: O_13  and  C_14
REMARK    8  A    between atoms: C_14  and  C_15
REMARK    9  A    between atoms: C_17  and  C_19
REMARK   10  A    between atoms: C_23  and  O_27
REMARK   11  A    between atoms: C_24  and  O_25
REMARK   12  A    between atoms: O_25  and  C_26
REMARK   13  A    between atoms: O_27  and  C_28
REMARK                            x       y       z     vdW  Elec       q    Type
REMARK                         _______ _______ _______ _____ _____    ______ ____
ROOT
ATOM      1  C   UNL     1       2.486  -6.720   0.387  0.00  0.00    -0.074 C 
ATOM      2  C   UNL     1       3.122  -5.397  -0.053  0.00  0.00    +0.018 C 
ATOM      3  C   UNL     1       2.040  -4.323  -0.040  0.00  0.00    -0.025 A 
ATOM      4  C   UNL     1       0.735  -4.675  -0.031  0.00  0.00    -0.021 A 
ATOM      5  S   UNL     1      -0.146  -3.142  -0.006  0.00  0.00    -0.079 S 
ATOM      6  C   UNL     1       1.197  -2.047  -0.020  0.00  0.00    +0.086 A 
ATOM      7  C   UNL     1       2.298  -2.895  -0.035  0.00  0.00    +0.091 A 
ATOM      8  C   UNL     1       0.190  -6.069  -0.035  0.00  0.00    -0.035 C 
ATOM      9  N   UNL     1       1.287  -6.984  -0.436  0.00  0.00    +0.383 N 
ATOM     10  H   UNL     1       1.516  -6.818  -1.423  0.00  0.00    -0.081 HD
ENDROOT
BRANCH   6  11
ATOM     11  N   UNL     1       1.178  -0.662  -0.013  0.00  0.00    -0.275 N 
ATOM     12  C   UNL     1       0.002  -0.004   0.002  0.00  0.00    +0.252 C 
ATOM     13  O   UNL     1      -1.043  -0.626   0.009  0.00  0.00    -0.270 OA
ATOM     14  H   UNL     1       2.012  -0.166  -0.018  0.00  0.00    +0.156 HD
BRANCH  12  15
ATOM     15  C   UNL     1      -0.018   1.471   0.010  0.00  0.00    +0.082 A 
ATOM     16  C   UNL     1       1.181   2.190   0.003  0.00  0.00    +0.017 A 
ATOM     17  C   UNL     1       1.159   3.567   0.010  0.00  0.00    +0.005 A 
ATOM     18  C   UNL     1      -0.049   4.247   0.024  0.00  0.00    +0.049 A 
ATOM     19  C   UNL     1      -1.244   3.549   0.032  0.00  0.00    +0.162 A 
ATOM     20  C   UNL     1      -1.238   2.158   0.020  0.00  0.00    +0.174 A 
BRANCH  20  21
ATOM     21  O   UNL     1      -2.408   1.470   0.022  0.00  0.00    -0.491 OA
ATOM     22  C   UNL     1      -2.961   1.135   1.296  0.00  0.00    +0.277 C 
ENDBRANCH  20  21
BRANCH  19  23
ATOM     23  O   UNL     1      -2.425   4.224   0.045  0.00  0.00    -0.491 OA
ATOM     24  C   UNL     1      -2.357   5.651   0.051  0.00  0.00    +0.277 C 
ENDBRANCH  19  23
ENDBRANCH  12  15
ENDBRANCH   6  11
BRANCH   7  25
ATOM     25  C   UNL     1       3.664  -2.369  -0.045  0.00  0.00    +0.342 C 
ATOM     26  O   UNL     1       4.241  -2.156   1.004  0.00  0.00    -0.245 OA
BRANCH  25  27
ATOM     27  O   UNL     1       4.282  -2.120  -1.218  0.00  0.00    -0.461 OA
BRANCH  27  28
ATOM     28  C   UNL     1       5.636  -1.599  -1.152  0.00  0.00    +0.229 C 
ATOM     29  C   UNL     1       6.169  -1.382  -2.570  0.00  0.00    +0.048 C 
ENDBRANCH  27  28
ENDBRANCH  25  27
ENDBRANCH   7  25
BRANCH   9  30
ATOM     30  C   UNL     1       0.859  -8.390  -0.271  0.00  0.00    -0.079 C 
BRANCH  30  32
ATOM     31  C   UNL     1       0.173 -10.162   1.351  0.00  0.00    +0.002 C 
ATOM     32  C   UNL     1       0.611  -8.703   1.206  0.00  0.00    -0.022 C 
ENDBRANCH  30  32
ENDBRANCH   9  30
TORSDOF 9
