REMARK  Name = ZINC20701745
REMARK  6 active torsions:
REMARK  status: ('A' for Active; 'I' for Inactive)
REMARK    1  A    between atoms: C_1  and  C_2
REMARK    2  A    between atoms: C_2  and  C_4
REMARK    3  A    between atoms: C_4  and  O_5
REMARK    4  A    between atoms: O_5  and  C_6
REMARK    5  A    between atoms: C_19  and  C_22
REMARK    6  A    between atoms: C_27  and  O_28
REMARK                            x       y       z     vdW  Elec       q    Type
REMARK                         _______ _______ _______ _____ _____    ______ ____
ROOT
ATOM      1  C   UNL     1      -2.477   4.947  -1.085  0.00  0.00    +0.121 A 
ATOM      2  C   UNL     1      -3.109   3.795  -0.642  0.00  0.00    +0.047 A 
ATOM      3  C   UNL     1      -2.360   2.670  -0.360  0.00  0.00    +0.027 A 
ATOM      4  C   UNL     1      -0.980   2.694  -0.519  0.00  0.00    +0.032 A 
ATOM      5  C   UNL     1      -0.344   3.844  -0.955  0.00  0.00    -0.016 A 
ATOM      6  C   UNL     1      -1.106   4.972  -1.231  0.00  0.00    +0.051 A 
ATOM      7  C   UNL     1       1.137   3.915  -1.146  0.00  0.00    +0.049 C 
ATOM      8  C   UNL     1       1.799   4.701  -0.039  0.00  0.00    -0.023 C 
ATOM      9  C   UNL     1       2.962   4.174   0.258  0.00  0.00    -0.030 C 
ATOM     10  C   UNL     1       3.238   2.967  -0.617  0.00  0.00    +0.033 C 
ATOM     11  C   UNL     1       1.819   2.534  -1.092  0.00  0.00    +0.029 C 
ATOM     12  C   UNL     1       1.202   1.691   0.027  0.00  0.00    +0.109 C 
ATOM     13  N   UNL     1      -0.235   1.543  -0.226  0.00  0.00    -0.336 N 
ATOM     14  H   UNL     1      -0.702   0.548  -0.184  0.00  0.00    +0.147 HD
ENDROOT
BRANCH  12  15
ATOM     15  C   UNL     1       1.413   2.377   1.352  0.00  0.00    +0.017 A 
ATOM     16  C   UNL     1       0.528   3.351   1.775  0.00  0.00    +0.029 A 
ATOM     17  C   UNL     1       0.722   3.982   2.990  0.00  0.00    +0.043 A 
ATOM     18  C   UNL     1       1.800   3.640   3.786  0.00  0.00    +0.043 A 
ATOM     19  C   UNL     1       2.687   2.666   3.368  0.00  0.00    +0.084 A 
ATOM     20  C   UNL     1       2.492   2.028   2.150  0.00  0.00    +0.140 A 
ATOM     21 CL   UNL     1       4.041   2.237   4.366  0.00  0.00    -0.080 Cl
ATOM     22 CL   UNL     1      -0.392   5.205   3.518  0.00  0.00    -0.083 Cl
BRANCH  20  23
ATOM     23  O   UNL     1       3.360   1.066   1.739  0.00  0.00    -0.505 OA
ATOM     24  H   UNL     1       4.215   0.789   2.373  0.00  0.00    +0.292 HD
ENDBRANCH  20  23
ENDBRANCH  12  15
BRANCH   1  25
ATOM     25  O   UNL     1      -3.210   6.058  -1.365  0.00  0.00    -0.488 OA
BRANCH  25  26
ATOM     26  C   UNL     1      -4.624   5.965  -1.181  0.00  0.00    +0.259 C 
BRANCH  26  28
ATOM     27  C   UNL     1      -6.758   7.448  -1.430  0.00  0.00    +0.042 C 
ATOM     28  C   UNL     1      -5.264   7.282  -1.539  0.00  0.00    -0.043 C 
ATOM     29  C   UNL     1      -4.522   8.283  -1.944  0.00  0.00    +0.011 C 
ENDBRANCH  26  28
ENDBRANCH  25  26
ENDBRANCH   1  25
TORSDOF 5
