REMARK  Name = ZINC20756390
REMARK  4 active torsions:
REMARK  status: ('A' for Active; 'I' for Inactive)
REMARK    1  A    between atoms: C_1  and  C_2
REMARK    2  A    between atoms: C_5  and  O_27
REMARK    3  A    between atoms: C_15  and  C_18
REMARK    4  A    between atoms: C_21  and  N_24
REMARK                            x       y       z     vdW  Elec       q    Type
REMARK                         _______ _______ _______ _____ _____    ______ ____
ROOT
ATOM      1  C   UNL     1      -2.549   3.865   0.042  0.00  0.00    +0.044 C 
ATOM      2  C   UNL     1      -1.233   3.131   0.024  0.00  0.00    -0.045 A 
ATOM      3  C   UNL     1      -1.221   1.749  -0.003  0.00  0.00    +0.007 A 
ATOM      4  C   UNL     1      -0.013   1.076  -0.012  0.00  0.00    +0.047 A 
ATOM      5  C   UNL     1       1.175   1.781   0.000  0.00  0.00    +0.138 A 
ATOM      6  C   UNL     1       1.176   3.180   0.023  0.00  0.00    +0.074 A 
ATOM      7  C   UNL     1      -0.052   3.844   0.028  0.00  0.00    -0.013 A 
ATOM      8  C   UNL     1      -0.037   5.323   0.027  0.00  0.00    +0.049 C 
ATOM      9  C   UNL     1      -1.122   6.134   0.633  0.00  0.00    -0.023 C 
ATOM     10  C   UNL     1      -0.595   7.257   1.108  0.00  0.00    -0.030 C 
ATOM     11  C   UNL     1       0.919   7.261   0.880  0.00  0.00    +0.033 C 
ATOM     12  C   UNL     1       1.224   5.759   0.837  0.00  0.00    +0.029 C 
ATOM     13  C   UNL     1       2.396   5.295  -0.003  0.00  0.00    +0.105 C 
ATOM     14  N   UNL     1       2.414   3.825   0.055  0.00  0.00    -0.334 N 
ATOM     15  H   UNL     1       3.373   3.288   0.119  0.00  0.00    +0.147 HD
ENDROOT
BRANCH  13  16
ATOM     16  C   UNL     1       3.681   5.847   0.559  0.00  0.00    -0.027 A 
ATOM     17  C   UNL     1       4.246   5.274   1.683  0.00  0.00    +0.008 A 
ATOM     18  C   UNL     1       5.427   5.778   2.196  0.00  0.00    +0.033 A 
ATOM     19  C   UNL     1       6.038   6.860   1.591  0.00  0.00    +0.126 A 
ATOM     20  C   UNL     1       5.470   7.436   0.469  0.00  0.00    +0.033 A 
ATOM     21  C   UNL     1       4.292   6.930  -0.046  0.00  0.00    +0.008 A 
BRANCH  19  22
ATOM     22  N   UNL     1       7.300   7.402   2.143  0.00  0.00    +0.056 N 
ATOM     23  O   UNL     1       7.838   8.356   1.609  0.00  0.00    -0.126 OA
ATOM     24  O   UNL     1       7.800   6.895   3.131  0.00  0.00    -0.126 OA
ENDBRANCH  19  22
ENDBRANCH  13  16
BRANCH   5  25
ATOM     25  O   UNL     1       2.357   1.107  -0.010  0.00  0.00    -0.505 OA
ATOM     26  H   UNL     1       3.306   1.662   0.000  0.00  0.00    +0.292 HD
ENDBRANCH   5  25
TORSDOF 3
