REMARK  Name = ZINC64343508
REMARK  8 active torsions:
REMARK  status: ('A' for Active; 'I' for Inactive)
REMARK    1  A    between atoms: C_1  and  C_2
REMARK    2  A    between atoms: C_2  and  C_4
REMARK    3  A    between atoms: C_2  and  N_12
REMARK    4  A    between atoms: N_12  and  C_13
REMARK    5  A    between atoms: C_13  and  C_14
REMARK    6  A    between atoms: C_14  and  C_16
REMARK    7  A    between atoms: C_14  and  C_22
REMARK    8  A    between atoms: C_30  and  C_32
REMARK                            x       y       z     vdW  Elec       q    Type
REMARK                         _______ _______ _______ _____ _____    ______ ____
ROOT
ATOM      1  C   UNL     1       0.434  -0.102  -3.420  0.00  0.00    +0.031 C 
ENDROOT
BRANCH   1   2
ATOM      2  C   UNL     1      -0.365   0.224  -4.655  0.00  0.00    -0.028 C 
ATOM      3  C   UNL     1      -1.636   0.682  -4.704  0.00  0.00    +0.000 A 
ATOM      4  C   UNL     1      -2.619   1.000  -3.661  0.00  0.00    +0.010 A 
ATOM      5  C   UNL     1      -3.841   1.449  -4.026  0.00  0.00    +0.001 A 
ATOM      6  C   UNL     1      -4.192   1.619  -5.373  0.00  0.00    +0.002 A 
ATOM      7  C   UNL     1      -3.343   1.349  -6.387  0.00  0.00    +0.026 A 
ATOM      8  C   UNL     1      -2.031   0.870  -6.118  0.00  0.00    +0.043 A 
ATOM      9  N   UNL     1      -1.042   0.541  -6.913  0.00  0.00    -0.374 N 
ATOM     10  C   UNL     1       0.096   0.113  -6.091  0.00  0.00    +0.137 C 
ATOM     11  H   UNL     1      -1.058   0.579  -7.882  0.00  0.00    +0.161 HD
BRANCH  10  12
ATOM     12  C   UNL     1       0.456  -1.315  -6.412  0.00  0.00    -0.021 A 
ATOM     13  C   UNL     1      -0.538  -2.228  -6.711  0.00  0.00    +0.006 A 
ATOM     14  C   UNL     1      -0.208  -3.538  -7.005  0.00  0.00    +0.000 A 
ATOM     15  C   UNL     1       1.116  -3.934  -7.001  0.00  0.00    +0.000 A 
ATOM     16  C   UNL     1       2.110  -3.021  -6.703  0.00  0.00    +0.000 A 
ATOM     17  C   UNL     1       1.780  -1.710  -6.413  0.00  0.00    +0.006 A 
ENDBRANCH  10  12
ENDBRANCH   1   2
BRANCH   1  18
ATOM     18  C   UNL     1       0.588  -1.597  -3.302  0.00  0.00    -0.042 A 
ATOM     19  C   UNL     1      -0.531  -2.402  -3.204  0.00  0.00    +0.004 A 
ATOM     20  C   UNL     1      -0.390  -3.772  -3.096  0.00  0.00    +0.000 A 
ATOM     21  C   UNL     1       0.871  -4.339  -3.086  0.00  0.00    +0.000 A 
ATOM     22  C   UNL     1       1.991  -3.534  -3.185  0.00  0.00    +0.000 A 
ATOM     23  C   UNL     1       1.849  -2.163  -3.297  0.00  0.00    +0.004 A 
ENDBRANCH   1  18
BRANCH   1  24
ATOM     24  C   UNL     1      -0.293   0.434  -2.185  0.00  0.00    -0.069 C 
BRANCH  24  25
ATOM     25  N   UNL     1       0.561   0.266  -1.002  0.00  0.00    +0.387 N 
ATOM     26  H   UNL     1       1.421   0.776  -1.133  0.00  0.00    -0.085 HD
ATOM     27  H   UNL     1       0.767  -0.713  -0.872  0.00  0.00    -0.085 HD
BRANCH  25  29
ATOM     28  C   UNL     1      -0.339   2.291   0.040  0.00  0.00    -0.004 C 
ATOM     29  C   UNL     1      -0.138   0.781   0.183  0.00  0.00    +0.013 C 
BRANCH  29  30
ATOM     30  C   UNL     1       0.685   0.499   1.414  0.00  0.00    +0.201 C 
ATOM     31  O   UNL     1       1.859   0.213   1.306  0.00  0.00    -0.277 OA
ATOM     32  N   UNL     1       0.117   0.564   2.634  0.00  0.00    -0.298 N 
ATOM     33  C   UNL     1      -1.328   0.800   2.785  0.00  0.00    +0.136 C 
ATOM     34  C   UNL     1      -1.896  -0.268   3.728  0.00  0.00    +0.179 C 
ATOM     35  O   UNL     1      -1.127  -0.290   4.932  0.00  0.00    -0.377 OA
ATOM     36  C   UNL     1       0.245  -0.647   4.745  0.00  0.00    +0.179 C 
ATOM     37  C   UNL     1       0.921   0.395   3.854  0.00  0.00    +0.136 C 
ENDBRANCH  29  30
ENDBRANCH  25  29
ENDBRANCH  24  25
ENDBRANCH   1  24
TORSDOF 7
