REMARK  Name = ZINC00292773
REMARK  7 active torsions:
REMARK  status: ('A' for Active; 'I' for Inactive)
REMARK    1  A    between atoms: C_1  and  O_2
REMARK    2  A    between atoms: O_2  and  C_3
REMARK    3  A    between atoms: C_7  and  C_9
REMARK    4  A    between atoms: C_18  and  C_26
REMARK    5  A    between atoms: C_19  and  N_25
REMARK    6  A    between atoms: C_20  and  C_21
REMARK    7  A    between atoms: C_20  and  C_23
REMARK                            x       y       z     vdW  Elec       q    Type
REMARK                         _______ _______ _______ _____ _____    ______ ____
ROOT
ATOM      1  C   UNL     1      -2.785   4.174   0.256  0.00  0.00    +0.066 C 
ATOM      2  C   UNL     1      -1.528   3.303   0.276  0.00  0.00    +0.030 C 
ATOM      3  C   UNL     1      -1.339   2.607   1.602  0.00  0.00    +0.009 C 
ATOM      4  C   UNL     1      -1.789   1.149   1.553  0.00  0.00    +0.005 C 
ATOM      5  C   UNL     1      -0.987   0.431   0.459  0.00  0.00    +0.027 C 
ATOM      6  C   UNL     1      -1.305   1.099  -0.855  0.00  0.00    -0.022 C 
ATOM      7  C   UNL     1      -1.569   2.389  -0.912  0.00  0.00    -0.029 C 
ATOM      8  C   UNL     1      -1.935   3.001  -2.216  0.00  0.00    +0.074 C 
ATOM      9  C   UNL     1      -2.501   4.234  -2.234  0.00  0.00    +0.054 C 
ATOM     10  C   UNL     1      -2.763   5.045  -1.001  0.00  0.00    +0.188 C 
ENDROOT
BRANCH   1  15
ATOM     11  C   UNL     1      -1.686   6.520   3.007  0.00  0.00    +0.120 A 
ATOM     12  C   UNL     1      -2.862   6.668   3.728  0.00  0.00    +0.045 A 
ATOM     13  C   UNL     1      -4.007   6.009   3.322  0.00  0.00    +0.004 A 
ATOM     14  C   UNL     1      -3.982   5.207   2.196  0.00  0.00    +0.004 A 
ATOM     15  C   UNL     1      -2.810   5.054   1.479  0.00  0.00    -0.037 A 
ATOM     16  C   UNL     1      -1.662   5.710   1.881  0.00  0.00    +0.049 A 
BRANCH  11  18
ATOM     17  C   UNL     1      -0.656   7.983   4.573  0.00  0.00    +0.277 C 
ATOM     18  O   UNL     1      -0.558   7.166   3.404  0.00  0.00    -0.495 OA
ENDBRANCH  11  18
ENDBRANCH   1  15
BRANCH   9  19
ATOM     19  N   UNL     1      -2.852   4.766  -3.443  0.00  0.00    -0.358 N 
ATOM     20  H   UNL     1      -3.313   5.764  -3.492  0.00  0.00    +0.142 HD
ATOM     21  H   UNL     1      -2.674   4.197  -4.367  0.00  0.00    +0.142 HD
ENDBRANCH   9  19
BRANCH  10  22
ATOM     22  C   UNL     1      -1.706   6.061  -0.862  0.00  0.00    +0.091 C 
ATOM     23  N   UNL     1      -0.891   6.845  -0.754  0.00  0.00    -0.194 NA
ENDBRANCH  10  22
BRANCH  10  24
ATOM     24  C   UNL     1      -4.062   5.723  -1.138  0.00  0.00    +0.091 C 
ATOM     25  N   UNL     1      -5.065   6.245  -1.244  0.00  0.00    -0.194 NA
ENDBRANCH  10  24
BRANCH   8  26
ATOM     26  C   UNL     1      -1.695   2.297  -3.440  0.00  0.00    +0.101 C 
ATOM     27  N   UNL     1      -1.504   1.739  -4.410  0.00  0.00    -0.191 NA
ENDBRANCH   8  26
TORSDOF 6
