REMARK  Name = ZINC16587883
REMARK  6 active torsions:
REMARK  status: ('A' for Active; 'I' for Inactive)
REMARK    1  A    between atoms: C_3  and  S_8
REMARK    2  A    between atoms: S_8  and  N_11
REMARK    3  A    between atoms: N_14  and  C_17
REMARK    4  A    between atoms: C_17  and  C_18
REMARK    5  A    between atoms: N_20  and  C_21
REMARK    6  A    between atoms: C_22  and  C_26
REMARK                            x       y       z     vdW  Elec       q    Type
REMARK                         _______ _______ _______ _____ _____    ______ ____
ROOT
ATOM      1  N   UNL     1       4.327   2.556   1.555  0.00  0.00    -0.174 NA
ATOM      2  C   UNL     1       3.874   3.748   2.289  0.00  0.00    +0.125 C 
ATOM      3  C   UNL     1       5.094   4.417   2.931  0.00  0.00    +0.102 C 
ATOM      4  N   UNL     1       5.822   3.429   3.739  0.00  0.00    -0.291 NA
ATOM      5  C   UNL     1       6.346   2.340   2.904  0.00  0.00    +0.102 C 
ATOM      6  C   UNL     1       5.173   1.583   2.263  0.00  0.00    +0.125 C 
ENDROOT
BRANCH   1   7
ATOM      7  S   UNL     1       3.891   2.314  -0.024  0.00  0.00    +0.061 S 
ATOM      8  O   UNL     1       4.872   1.456  -0.589  0.00  0.00    -0.153 OA
ATOM      9  O   UNL     1       3.596   3.595  -0.565  0.00  0.00    -0.153 OA
BRANCH   7  12
ATOM     10  C   UNL     1      -0.017   1.378   0.010  0.00  0.00    +0.003 A 
ATOM     11  C   UNL     1       1.171   2.086   0.002  0.00  0.00    +0.028 A 
ATOM     12  C   UNL     1       2.378   1.411  -0.013  0.00  0.00    +0.107 A 
ATOM     13  C   UNL     1       2.397   0.029  -0.022  0.00  0.00    +0.043 A 
ATOM     14  C   UNL     1       1.210  -0.679  -0.014  0.00  0.00    +0.020 A 
ATOM     15  C   UNL     1       0.002  -0.004   0.002  0.00  0.00    +0.015 A 
ATOM     16 BR   UNL     1       1.236  -2.570  -0.025  0.00  0.00    -0.050 Br
ENDBRANCH   7  12
ENDBRANCH   1   7
BRANCH   4  17
ATOM     17  C   UNL     1       6.898   4.068   4.508  0.00  0.00    +0.180 C 
BRANCH  17  18
ATOM     18  C   UNL     1       7.459   3.083   5.501  0.00  0.00    +0.232 C 
ATOM     19  O   UNL     1       7.006   1.959   5.562  0.00  0.00    -0.274 OA
ATOM     20  N   UNL     1       8.463   3.450   6.321  0.00  0.00    -0.278 N 
ATOM     21  H   UNL     1       8.825   4.349   6.272  0.00  0.00    +0.155 HD
BRANCH  20  22
ATOM     22  C   UNL     1       8.979   2.544   7.235  0.00  0.00    +0.084 A 
ATOM     23  C   UNL     1       9.999   2.745   8.154  0.00  0.00    +0.065 A 
ATOM     24  C   UNL     1      10.343   1.622   8.994  0.00  0.00    +0.022 A 
ATOM     25  C   UNL     1       9.631   0.498   8.792  0.00  0.00    +0.048 A 
ATOM     26  S   UNL     1       8.508   0.954   7.489  0.00  0.00    -0.081 S 
BRANCH  23  27
ATOM     27  C   UNL     1      10.693   4.032   8.265  0.00  0.00    +0.244 C 
ATOM     28  O   UNL     1      10.378   4.958   7.540  0.00  0.00    -0.270 OA
ATOM     29  N   UNL     1      11.679   4.190   9.170  0.00  0.00    -0.325 N 
ATOM     30  H   UNL     1      11.930   3.452   9.747  0.00  0.00    +0.145 HD
ATOM     31  H   UNL     1      12.138   5.042   9.243  0.00  0.00    +0.145 HD
ENDBRANCH  23  27
ENDBRANCH  20  22
ENDBRANCH  17  18
ENDBRANCH   4  17
TORSDOF 6
