REMARK  Name = ZINC39604146
REMARK  10 active torsions:
REMARK  status: ('A' for Active; 'I' for Inactive)
REMARK    1  A    between atoms: C_1  and  C_2
REMARK    2  A    between atoms: C_2  and  O_3
REMARK    3  A    between atoms: O_3  and  C_4
REMARK    4  A    between atoms: C_4  and  C_6
REMARK    5  A    between atoms: C_6  and  C_7
REMARK    6  A    between atoms: C_7  and  N_8
REMARK    7  A    between atoms: C_9  and  C_11
REMARK    8  A    between atoms: C_22  and  C_24
REMARK    9  A    between atoms: C_26  and  O_31
REMARK   10  A    between atoms: O_31  and  C_32
REMARK                            x       y       z     vdW  Elec       q    Type
REMARK                         _______ _______ _______ _____ _____    ______ ____
ROOT
ATOM      1  C   UNL     1      -5.035  -6.580  -0.108  0.00  0.00    +0.100 C 
ATOM      2  C   UNL     1      -6.005  -6.000  -1.161  0.00  0.00    +0.121 C 
ATOM      3  N   UNL     1      -6.082  -7.040  -2.214  0.00  0.00    -0.296 N 
ATOM      4  C   UNL     1      -6.095  -8.320  -1.467  0.00  0.00    +0.115 C 
ATOM      5  C   UNL     1      -5.099  -8.104  -0.310  0.00  0.00    -0.004 C 
ATOM      6  C   UNL     1      -5.606  -8.784   0.958  0.00  0.00    -0.010 C 
ATOM      7  C   UNL     1      -5.606 -10.301   0.753  0.00  0.00    -0.082 C 
ATOM      8  N   UNL     1      -4.245 -10.754   0.442  0.00  0.00    +0.379 N 
ATOM      9  C   UNL     1      -3.800 -10.168  -0.828  0.00  0.00    -0.082 C 
ATOM     10  C   UNL     1      -3.724  -8.645  -0.690  0.00  0.00    -0.010 C 
ATOM     11  C   UNL     1      -6.130  -6.861  -3.549  0.00  0.00    +0.248 C 
ATOM     12  O   UNL     1      -6.289  -7.816  -4.284  0.00  0.00    -0.270 OA
ATOM     13  H   UNL     1      -3.620 -10.469   1.181  0.00  0.00    -0.086 HD
ATOM     14  H   UNL     1      -4.236 -11.761   0.368  0.00  0.00    -0.086 HD
ENDROOT
BRANCH  11  15
ATOM     15  C   UNL     1      -5.989  -5.505  -4.119  0.00  0.00    +0.054 A 
ATOM     16  C   UNL     1      -6.529  -4.405  -3.451  0.00  0.00    +0.059 A 
ATOM     17  C   UNL     1      -6.393  -3.138  -3.991  0.00  0.00    +0.121 A 
ATOM     18  C   UNL     1      -5.720  -2.962  -5.193  0.00  0.00    +0.047 A 
ATOM     19  C   UNL     1      -5.184  -4.050  -5.856  0.00  0.00    +0.019 A 
ATOM     20  C   UNL     1      -5.309  -5.319  -5.324  0.00  0.00    +0.030 A 
ATOM     21 BR   UNL     1      -4.567  -6.803  -6.232  0.00  0.00    -0.050 Br
BRANCH  17  22
ATOM     22  O   UNL     1      -6.919  -2.064  -3.344  0.00  0.00    -0.495 OA
ATOM     23  C   UNL     1      -6.741  -0.786  -3.958  0.00  0.00    +0.277 C 
ENDBRANCH  17  22
ENDBRANCH  11  15
BRANCH   1  25
ATOM     24  N   UNL     1      -2.766  -5.980   0.675  0.00  0.00    -0.314 N 
ATOM     25  C   UNL     1      -3.635  -6.077  -0.351  0.00  0.00    +0.218 C 
ATOM     26  O   UNL     1      -3.290  -5.760  -1.470  0.00  0.00    -0.275 OA
ATOM     27  H   UNL     1      -3.042  -6.234   1.569  0.00  0.00    +0.149 HD
BRANCH  24  28
ATOM     28  C   UNL     1      -1.406  -5.491   0.438  0.00  0.00    +0.115 C 
BRANCH  28  29
ATOM     29  C   UNL     1      -0.632  -5.479   1.758  0.00  0.00    +0.139 C 
BRANCH  29  30
ATOM     30  C   UNL     1       0.768  -4.976   1.515  0.00  0.00    +0.309 C 
ATOM     31  O   UNL     1       1.111  -4.660   0.401  0.00  0.00    -0.251 OA
BRANCH  30  32
ATOM     32  O   UNL     1       1.633  -4.879   2.537  0.00  0.00    -0.465 OA
BRANCH  32  34
ATOM     33  C   UNL     1       3.780  -4.354   3.514  0.00  0.00    +0.048 C 
ATOM     34  C   UNL     1       2.943  -4.395   2.234  0.00  0.00    +0.229 C 
ENDBRANCH  32  34
ENDBRANCH  30  32
ENDBRANCH  29  30
ENDBRANCH  28  29
ENDBRANCH  24  28
ENDBRANCH   1  25
TORSDOF 8
