REMARK  Name = ZINC54296431
REMARK  2 active torsions:
REMARK  status: ('A' for Active; 'I' for Inactive)
REMARK    1  A    between atoms: C_3  and  C_10
REMARK    2  A    between atoms: C_10  and  C_11
REMARK                            x       y       z     vdW  Elec       q    Type
REMARK                         _______ _______ _______ _____ _____    ______ ____
ROOT
ATOM      1  C   UNL     1      -0.019   1.528   0.010  0.00  0.00    +0.019 C 
ATOM      2  C   UNL     1       1.419   2.053  -0.001  0.00  0.00    +0.007 C 
ATOM      3  C   UNL     1       2.124   1.587  -1.276  0.00  0.00    +0.017 C 
ATOM      4  C   UNL     1       2.170   0.056  -1.299  0.00  0.00    +0.111 C 
ATOM      5  N   UNL     1       0.803  -0.460  -1.143  0.00  0.00    -0.304 N 
ATOM      6  C   UNL     1       0.002  -0.004   0.002  0.00  0.00    +0.107 C 
ATOM      7  C   UNL     1       0.293  -1.334  -2.033  0.00  0.00    +0.328 C 
ATOM      8  O   UNL     1      -0.837  -1.752  -1.893  0.00  0.00    -0.279 OA
ENDROOT
BRANCH   3   9
ATOM      9  C   UNL     1       3.550   2.141  -1.302  0.00  0.00    +0.130 C 
BRANCH   9  10
ATOM     10  C   UNL     1       4.204   1.785  -2.612  0.00  0.00    +0.356 C 
ATOM     11  O   UNL     1       3.586   1.147  -3.448  0.00  0.00    -0.246 OA
ATOM     12  O   UNL     1       5.350   2.134  -2.837  0.00  0.00    -0.246 OA
ENDBRANCH   9  10
ENDBRANCH   3   9
TORSDOF 2
