REMARK  Name = ZINC13650758
REMARK  6 active torsions:
REMARK  status: ('A' for Active; 'I' for Inactive)
REMARK    1  A    between atoms: C_2  and  C_3
REMARK    2  A    between atoms: C_3  and  N_4
REMARK    3  A    between atoms: C_14  and  N_71
REMARK    4  A    between atoms: C_17  and  N_71
REMARK    5  A    between atoms: N_34  and  C_35
REMARK    6  A    between atoms: C_35  and  C_36
REMARK                            x       y       z     vdW  Elec       q    Type
REMARK                         _______ _______ _______ _____ _____    ______ ____
ROOT
ATOM      1  N   UNL     1      -2.144   3.135  -5.439  0.00  0.00    -0.310 N 
ATOM      2  C   UNL     1      -2.801   2.430  -4.451  0.00  0.00    +0.221 A 
ATOM      3  N   UNL     1      -4.069   2.070  -4.623  0.00  0.00    -0.181 NA
ATOM      4  C   UNL     1      -4.702   1.391  -3.671  0.00  0.00    +0.221 A 
ATOM      5  N   UNL     1      -4.066   1.072  -2.548  0.00  0.00    -0.181 NA
ATOM      6  C   UNL     1      -2.798   1.432  -2.377  0.00  0.00    +0.224 A 
ATOM      7  N   UNL     1      -2.167   2.115  -3.326  0.00  0.00    -0.181 NA
ATOM      8  N   UNL     1      -2.138   1.101  -1.210  0.00  0.00    -0.300 N 
ATOM      9  C   UNL     1      -0.754   1.594  -1.231  0.00  0.00    +0.106 C 
ATOM     10  C   UNL     1      -0.013   1.086   0.008  0.00  0.00    +0.003 C 
ATOM     11  C   UNL     1      -0.731   1.580   1.267  0.00  0.00    -0.068 C 
ATOM     12  C   UNL     1      -2.184   1.095   1.239  0.00  0.00    +0.003 C 
ATOM     13  C   UNL     1      -2.862   1.602  -0.035  0.00  0.00    +0.106 C 
ATOM     14  N   UNL     1      -6.018   1.018  -3.848  0.00  0.00    -0.310 N 
ATOM     15  H   UNL     1      -1.219   3.398  -5.314  0.00  0.00    +0.149 HD
ATOM     16  H   UNL     1      -6.480   0.522  -3.154  0.00  0.00    +0.149 HD
ENDROOT
BRANCH  11  17
ATOM     17  N   UNL     1      -0.051   1.039   2.458  0.00  0.00    +0.383 N 
ATOM     18  H   UNL     1       0.959   0.987   2.277  0.00  0.00    -0.085 HD
ATOM     19  H   UNL     1      -0.412   0.099   2.656  0.00  0.00    -0.085 HD
BRANCH  17  20
ATOM     20  C   UNL     1      -0.291   1.909   3.625  0.00  0.00    -0.059 C 
ATOM     21  C   UNL     1      -1.626   1.533   4.263  0.00  0.00    -0.002 C 
ATOM     22  C   UNL     1      -1.442   1.086   5.729  0.00  0.00    +0.048 C 
ATOM     23  C   UNL     1      -0.721   2.236   6.414  0.00  0.00    -0.036 A 
ATOM     24  C   UNL     1      -1.186   2.908   7.508  0.00  0.00    +0.004 A 
ATOM     25  C   UNL     1      -0.422   3.943   8.032  0.00  0.00    +0.000 A 
ATOM     26  C   UNL     1       0.787   4.283   7.455  0.00  0.00    +0.000 A 
ATOM     27  C   UNL     1       1.254   3.594   6.343  0.00  0.00    +0.004 A 
ATOM     28  C   UNL     1       0.497   2.578   5.832  0.00  0.00    -0.038 A 
ATOM     29  C   UNL     1       0.875   1.737   4.622  0.00  0.00    +0.036 C 
ATOM     30  C   UNL     1       0.791   0.297   5.099  0.00  0.00    -0.038 A 
ATOM     31  C   UNL     1      -0.428  -0.046   5.681  0.00  0.00    -0.036 A 
ATOM     32  C   UNL     1      -0.645  -1.309   6.154  0.00  0.00    +0.004 A 
ATOM     33  C   UNL     1       0.372  -2.248   6.044  0.00  0.00    +0.000 A 
ATOM     34  C   UNL     1       1.581  -1.908   5.467  0.00  0.00    +0.000 A 
ATOM     35  C   UNL     1       1.795  -0.621   4.989  0.00  0.00    +0.004 A 
ENDBRANCH  17  20
ENDBRANCH  11  17
BRANCH   1  36
ATOM     36  C   UNL     1      -2.845   3.487  -6.677  0.00  0.00    +0.131 C 
BRANCH  36  38
ATOM     37  C   UNL     1      -1.701   3.832  -8.806  0.00  0.00    +0.005 C 
ATOM     38  C   UNL     1      -1.913   4.250  -7.583  0.00  0.00    -0.016 C 
ENDBRANCH  36  38
ENDBRANCH   1  36
BRANCH  14  39
ATOM     39  C   UNL     1      -6.719   1.369  -5.086  0.00  0.00    +0.131 C 
BRANCH  39  40
ATOM     40  C   UNL     1      -8.132   0.849  -5.028  0.00  0.00    -0.016 C 
ATOM     41  C   UNL     1      -9.139   1.667  -5.211  0.00  0.00    +0.005 C 
ENDBRANCH  39  40
ENDBRANCH  14  39
TORSDOF 6
