REMARK  Name = ZINC34791333
REMARK  12 active torsions:
REMARK  status: ('A' for Active; 'I' for Inactive)
REMARK    1  A    between atoms: C_1  and  C_2
REMARK    2  A    between atoms: C_2  and  N_3
REMARK    3  A    between atoms: C_6  and  C_11
REMARK    4  A    between atoms: C_14  and  C_18
REMARK    5  A    between atoms: C_16  and  C_17
REMARK    6  A    between atoms: N_21  and  C_23
REMARK    7  A    between atoms: C_23  and  C_25
REMARK    8  A    between atoms: C_23  and  C_29
REMARK    9  A    between atoms: C_25  and  C_26
REMARK   10  A    between atoms: C_26  and  C_27
REMARK   11  A    between atoms: C_26  and  C_28
REMARK   12  A    between atoms: C_34  and  C_37
REMARK                            x       y       z     vdW  Elec       q    Type
REMARK                         _______ _______ _______ _____ _____    ______ ____
ROOT
ATOM      1  N   UNL     1      -1.386   1.203   0.830  0.00  0.00    -0.257 N 
ATOM      2  C   UNL     1      -2.141   0.512   1.736  0.00  0.00    +0.042 C 
ATOM      3  C   UNL     1      -3.249  -0.155   1.357  0.00  0.00    +0.058 C 
ATOM      4  C   UNL     1      -3.631  -0.113  -0.109  0.00  0.00    +0.142 C 
ATOM      5  N   UNL     1      -2.753   0.659  -1.005  0.00  0.00    -0.288 N 
ATOM      6  C   UNL     1      -1.679   1.278  -0.475  0.00  0.00    +0.307 C 
ATOM      7  O   UNL     1      -0.951   1.920  -1.205  0.00  0.00    -0.252 OA
ATOM      8  C   UNL     1      -3.848  -0.783   2.469  0.00  0.00    +0.247 C 
ATOM      9  O   UNL     1      -4.862  -1.454   2.417  0.00  0.00    -0.270 OA
ATOM     10  N   UNL     1      -3.151  -0.544   3.594  0.00  0.00    -0.281 N 
ATOM     11  C   UNL     1      -2.004   0.300   3.227  0.00  0.00    +0.160 C 
ATOM     12  H   UNL     1      -2.944   0.723  -1.953  0.00  0.00    +0.151 HD
ENDROOT
BRANCH   4  13
ATOM     13  C   UNL     1      -5.020   0.464  -0.211  0.00  0.00    -0.020 A 
ATOM     14  C   UNL     1      -5.527   1.233   0.819  0.00  0.00    +0.006 A 
ATOM     15  C   UNL     1      -6.800   1.762   0.725  0.00  0.00    +0.004 A 
ATOM     16  C   UNL     1      -7.567   1.521  -0.400  0.00  0.00    -0.050 A 
ATOM     17  C   UNL     1      -7.060   0.753  -1.431  0.00  0.00    +0.007 A 
ATOM     18  C   UNL     1      -5.784   0.228  -1.338  0.00  0.00    -0.045 A 
ATOM     19  C   UNL     1      -5.229  -0.606  -2.465  0.00  0.00    +0.044 C 
ATOM     20  C   UNL     1      -8.956   2.097  -0.502  0.00  0.00    +0.044 C 
ENDBRANCH   4  13
BRANCH   1  22
ATOM     21  C   UNL     1      -0.574   3.328   1.728  0.00  0.00    +0.025 C 
ATOM     22  C   UNL     1      -0.195   1.905   1.314  0.00  0.00    +0.111 C 
ENDBRANCH   1  22
BRANCH  10  23
ATOM     23  C   UNL     1      -3.474  -1.034   4.937  0.00  0.00    +0.163 C 
BRANCH  23  24
ATOM     24  C   UNL     1      -4.744  -0.381   5.418  0.00  0.00    +0.236 C 
ATOM     25  O   UNL     1      -5.413   0.280   4.652  0.00  0.00    -0.274 OA
ATOM     26  N   UNL     1      -5.136  -0.531   6.698  0.00  0.00    -0.300 N 
ATOM     27  C   UNL     1      -4.277  -1.225   7.668  0.00  0.00    +0.108 C 
ATOM     28  C   UNL     1      -4.068  -0.314   8.882  0.00  0.00    +0.022 C 
ATOM     29  C   UNL     1      -5.429   0.108   9.438  0.00  0.00    -0.011 C 
ATOM     30  C   UNL     1      -6.197   0.893   8.372  0.00  0.00    +0.022 C 
ATOM     31  C   UNL     1      -6.427   0.002   7.153  0.00  0.00    +0.108 C 
ATOM     32  C   UNL     1      -5.225   0.990  10.672  0.00  0.00    +0.007 C 
ENDBRANCH  23  24
BRANCH  23  33
ATOM     33  C   UNL     1      -3.665  -2.551   4.894  0.00  0.00    +0.035 C 
BRANCH  33  34
ATOM     34  C   UNL     1      -2.328  -3.225   4.580  0.00  0.00    -0.015 C 
ATOM     35  C   UNL     1      -2.466  -4.739   4.756  0.00  0.00    +0.007 C 
ATOM     36  C   UNL     1      -1.926  -2.915   3.137  0.00  0.00    +0.007 C 
ENDBRANCH  33  34
ENDBRANCH  23  33
ENDBRANCH  10  23
TORSDOF 6
