REMARK  Name = ZINC12703395
REMARK  9 active torsions:
REMARK  status: ('A' for Active; 'I' for Inactive)
REMARK    1  A    between atoms: C_3  and  C_6
REMARK    2  A    between atoms: C_6  and  C_8
REMARK    3  A    between atoms: C_6  and  N_16
REMARK    4  A    between atoms: N_10  and  C_11
REMARK    5  A    between atoms: N_16  and  C_17
REMARK    6  A    between atoms: C_17  and  C_18
REMARK    7  A    between atoms: C_23  and  C_25
REMARK    8  A    between atoms: C_28  and  C_30
REMARK    9  A    between atoms: C_30  and  N_66
REMARK                            x       y       z     vdW  Elec       q    Type
REMARK                         _______ _______ _______ _____ _____    ______ ____
ROOT
ATOM      1  N   UNL     1      -0.196   5.386   6.061  0.00  0.00    -0.272 N 
ATOM      2  C   UNL     1      -0.811   4.256   6.462  0.00  0.00    +0.283 C 
ATOM      3  O   UNL     1      -1.513   4.265   7.456  0.00  0.00    -0.267 OA
ENDROOT
BRANCH   2   4
ATOM      4  C   UNL     1      -0.633   3.015   5.701  0.00  0.00    +0.190 A 
ATOM      5  C   UNL     1       0.555   2.506   5.263  0.00  0.00    +0.055 A 
ATOM      6  C   UNL     1       0.258   1.313   4.585  0.00  0.00    +0.043 A 
ATOM      7  C   UNL     1      -1.083   1.149   4.638  0.00  0.00    +0.090 A 
ATOM      8  O   UNL     1      -1.617   2.179   5.307  0.00  0.00    -0.457 OA
BRANCH   7   9
ATOM      9  C   UNL     1      -1.851  -0.000   4.038  0.00  0.00    -0.003 C 
BRANCH   9  15
ATOM     10  C   UNL     1      -2.914  -2.114   4.556  0.00  0.00    -0.050 C 
ATOM     11  C   UNL     1      -3.016  -3.219   5.610  0.00  0.00    +0.141 C 
ATOM     12  O   UNL     1      -3.470  -2.655   6.843  0.00  0.00    -0.383 OA
ATOM     13  C   UNL     1      -2.621  -1.622   7.351  0.00  0.00    +0.141 C 
ATOM     14  C   UNL     1      -2.515  -0.500   6.314  0.00  0.00    -0.050 C 
ATOM     15  N   UNL     1      -1.996  -1.068   5.051  0.00  0.00    +0.387 N 
ATOM     16  H   UNL     1      -1.076  -1.488   5.228  0.00  0.00    -0.081 HD
ENDBRANCH   9  15
ENDBRANCH   7   9
ENDBRANCH   2   4
BRANCH   1  17
ATOM     17  C   UNL     1      -0.487   6.656   6.732  0.00  0.00    +0.229 C 
BRANCH  17  20
ATOM     18  C   UNL     1       2.340   8.365   8.366  0.00  0.00    +0.041 A 
ATOM     19  C   UNL     1       0.995   7.931   8.354  0.00  0.00    +0.047 A 
ATOM     20  C   UNL     1       0.802   7.291   7.186  0.00  0.00    +0.134 A 
ATOM     21  O   UNL     1       1.954   7.309   6.497  0.00  0.00    -0.465 OA
ATOM     22  C   UNL     1       2.889   7.964   7.205  0.00  0.00    +0.195 A 
ENDBRANCH  17  20
BRANCH  17  23
ATOM     23  C   UNL     1      -1.192   7.580   5.772  0.00  0.00    +0.241 C 
ATOM     24  O   UNL     1      -1.571   7.165   4.698  0.00  0.00    -0.273 OA
ATOM     25  N   UNL     1      -1.400   8.869   6.109  0.00  0.00    -0.311 N 
ATOM     26  H   UNL     1      -1.097   9.201   6.968  0.00  0.00    +0.149 HD
BRANCH  25  27
ATOM     27  C   UNL     1      -2.085   9.768   5.176  0.00  0.00    +0.073 C 
ATOM     28  C   UNL     1      -1.063  10.411   4.215  0.00  0.00    +0.022 C 
ATOM     29  C   UNL     1      -1.584  11.856   4.019  0.00  0.00    +0.002 C 
ATOM     30  C   UNL     1      -2.108  12.225   5.429  0.00  0.00    +0.002 C 
ATOM     31  C   UNL     1      -2.749  10.921   5.948  0.00  0.00    +0.022 C 
ENDBRANCH  25  27
ENDBRANCH  17  23
ENDBRANCH   1  17
BRANCH   1  32
ATOM     32  C   UNL     1       0.764   5.345   4.955  0.00  0.00    +0.151 C 
BRANCH  32  33
ATOM     33  C   UNL     1       0.019   5.317   3.645  0.00  0.00    +0.007 A 
ATOM     34  C   UNL     1      -0.238   6.335   2.788  0.00  0.00    +0.013 A 
ATOM     35  C   UNL     1      -0.947   6.074   1.630  0.00  0.00    +0.008 A 
ATOM     36  C   UNL     1      -1.365   4.808   1.387  0.00  0.00    +0.045 A 
ATOM     37  S   UNL     1      -0.746   3.934   2.816  0.00  0.00    -0.100 S 
ENDBRANCH  32  33
ENDBRANCH   1  32
TORSDOF 9
