REMARK  Name = ZINC39710224
REMARK  11 active torsions:
REMARK  status: ('A' for Active; 'I' for Inactive)
REMARK    1  A    between atoms: C_1  and  C_2
REMARK    2  A    between atoms: C_9  and  C_14
REMARK    3  A    between atoms: C_14  and  C_16
REMARK    4  A    between atoms: C_14  and  N_26
REMARK    5  A    between atoms: N_21  and  C_22
REMARK    6  A    between atoms: C_22  and  C_23
REMARK    7  A    between atoms: C_22  and  C_24
REMARK    8  A    between atoms: C_22  and  C_25
REMARK    9  A    between atoms: N_29  and  C_32
REMARK   10  A    between atoms: C_34  and  C_39
REMARK   11  A    between atoms: C_37  and  C_38
REMARK                            x       y       z     vdW  Elec       q    Type
REMARK                         _______ _______ _______ _____ _____    ______ ____
ROOT
ATOM      1  C   UNL     1      -1.058  -4.883   2.997  0.00  0.00    -0.009 C 
ENDROOT
BRANCH   1  10
ATOM      2  C   UNL     1       5.712  -3.274   4.605  0.00  0.00    +0.044 C 
ATOM      3  C   UNL     1       4.331  -2.939   4.102  0.00  0.00    -0.050 A 
ATOM      4  C   UNL     1       3.900  -1.612   4.125  0.00  0.00    +0.005 A 
ATOM      5  C   UNL     1       2.670  -1.234   3.688  0.00  0.00    +0.024 A 
ATOM      6  C   UNL     1       1.766  -2.187   3.185  0.00  0.00    +0.040 A 
ATOM      7  N   UNL     1       0.563  -1.804   2.758  0.00  0.00    -0.285 N 
ATOM      8  C   UNL     1      -0.333  -2.648   2.274  0.00  0.00    +0.223 C 
ATOM      9  O   UNL     1      -1.416  -2.239   1.900  0.00  0.00    -0.275 OA
ATOM     10  C   UNL     1      -0.007  -4.122   2.188  0.00  0.00    +0.088 C 
ATOM     11  C   UNL     1       1.361  -4.562   2.671  0.00  0.00    -0.006 C 
ATOM     12  C   UNL     1       2.196  -3.596   3.148  0.00  0.00    -0.007 A 
ATOM     13  C   UNL     1       3.536  -3.933   3.630  0.00  0.00    +0.012 A 
ATOM     14  H   UNL     1       0.334  -0.863   2.805  0.00  0.00    +0.155 HD
ENDBRANCH   1  10
BRANCH   1  15
ATOM     15  N   UNL     1      -0.782  -6.324   2.925  0.00  0.00    +0.387 N 
ATOM     16  C   UNL     1      -0.621  -6.720   1.520  0.00  0.00    -0.059 C 
ATOM     17  C   UNL     1      -0.221  -8.197   1.449  0.00  0.00    +0.086 C 
ATOM     18  N   UNL     1      -1.216  -8.986   2.192  0.00  0.00    -0.333 N 
ATOM     19  C   UNL     1      -1.560  -8.560   3.557  0.00  0.00    +0.086 C 
ATOM     20  C   UNL     1      -1.897  -7.065   3.528  0.00  0.00    -0.059 C 
ATOM     21  H   UNL     1       0.068  -6.529   3.429  0.00  0.00    -0.081 HD
BRANCH  18  22
ATOM     22  C   UNL     1      -1.816 -10.109   1.617  0.00  0.00    +0.033 A 
ATOM     23  C   UNL     1      -1.241 -11.364   1.774  0.00  0.00    +0.026 A 
ATOM     24  C   UNL     1      -1.837 -12.471   1.206  0.00  0.00    -0.049 A 
ATOM     25  C   UNL     1      -3.006 -12.333   0.480  0.00  0.00    +0.004 A 
ATOM     26  C   UNL     1      -3.582 -11.086   0.321  0.00  0.00    +0.005 A 
ATOM     27  C   UNL     1      -2.994  -9.974   0.892  0.00  0.00    -0.029 A 
ATOM     28  C   UNL     1      -3.625  -8.616   0.725  0.00  0.00    +0.045 C 
ATOM     29  C   UNL     1      -1.214 -13.833   1.375  0.00  0.00    +0.044 C 
ENDBRANCH  18  22
ENDBRANCH   1  15
BRANCH   1  30
ATOM     30  C   UNL     1      -1.007  -4.427   4.457  0.00  0.00    +0.205 C 
ATOM     31  N   UNL     1       0.204  -4.941   5.112  0.00  0.00    -0.152 NA
ATOM     32  N   UNL     1      -0.129  -5.670   6.049  0.00  0.00    -0.070 NA
ATOM     33  N   UNL     1      -1.512  -5.776   6.189  0.00  0.00    -0.179 N 
ATOM     34  N   UNL     1      -2.125  -5.018   5.222  0.00  0.00    -0.183 NA
ATOM     35  H   UNL     1      -1.970  -6.301   6.864  0.00  0.00    +0.191 HD
BRANCH  34  36
ATOM     36  C   UNL     1      -2.964  -3.972   5.821  0.00  0.00    +0.035 C 
ATOM     37  C   UNL     1      -3.545  -3.088   4.716  0.00  0.00    +0.029 C 
ATOM     38  C   UNL     1      -4.104  -4.622   6.608  0.00  0.00    +0.029 C 
ATOM     39  C   UNL     1      -2.116  -3.117   6.765  0.00  0.00    +0.029 C 
ENDBRANCH  34  36
ENDBRANCH   1  30
TORSDOF 5
