REMARK  Name = ZINC21260113
REMARK  7 active torsions:
REMARK  status: ('A' for Active; 'I' for Inactive)
REMARK    1  A    between atoms: C_1  and  O_2
REMARK    2  A    between atoms: O_2  and  C_3
REMARK    3  A    between atoms: C_6  and  C_17
REMARK    4  A    between atoms: C_8  and  O_9
REMARK    5  A    between atoms: O_9  and  C_10
REMARK    6  A    between atoms: C_10  and  C_11
REMARK    7  A    between atoms: C_22  and  C_27
REMARK                            x       y       z     vdW  Elec       q    Type
REMARK                         _______ _______ _______ _____ _____    ______ ____
ROOT
ATOM      1  C   UNL     1       2.281   0.478   3.597  0.00  0.00    +0.136 C 
ATOM      2  C   UNL     1       1.560   0.863   2.326  0.00  0.00    +0.036 C 
ATOM      3  C   UNL     1       0.240   1.074   2.203  0.00  0.00    +0.017 C 
ATOM      4  C   UNL     1      -0.345   1.508   0.868  0.00  0.00    +0.059 C 
ATOM      5  C   UNL     1       0.446   0.873  -0.275  0.00  0.00    +0.032 C 
ATOM      6  C   UNL     1       1.898   1.351  -0.158  0.00  0.00    +0.088 C 
ATOM      7  C   UNL     1       2.412   0.997   1.204  0.00  0.00    +0.163 C 
ATOM      8  O   UNL     1       3.605   0.817   1.352  0.00  0.00    -0.292 OA
ATOM      9  N   UNL     1      -0.671   0.945   3.201  0.00  0.00    -0.316 N 
ATOM     10  C   UNL     1      -0.526   1.476   4.479  0.00  0.00    +0.052 A 
ATOM     11  C   UNL     1      -1.377   2.445   4.980  0.00  0.00    +0.025 A 
ATOM     12  C   UNL     1      -1.204   2.895   6.278  0.00  0.00    +0.002 A 
ATOM     13  C   UNL     1      -0.190   2.378   7.065  0.00  0.00    +0.002 A 
ATOM     14  C   UNL     1       0.673   1.422   6.558  0.00  0.00    +0.025 A 
ATOM     15  C   UNL     1       0.516   0.985   5.252  0.00  0.00    +0.049 A 
ATOM     16  N   UNL     1       1.407   0.081   4.679  0.00  0.00    -0.331 N 
ATOM     17  H   UNL     1      -1.604   0.389   3.026  0.00  0.00    +0.152 HD
ATOM     18  H   UNL     1       1.440  -0.949   5.063  0.00  0.00    +0.147 HD
ENDROOT
BRANCH   1  22
ATOM     19  C   UNL     1       4.619   3.817   4.894  0.00  0.00    +0.162 A 
ATOM     20  C   UNL     1       3.237   3.912   4.843  0.00  0.00    +0.050 A 
ATOM     21  C   UNL     1       2.485   2.833   4.418  0.00  0.00    +0.009 A 
ATOM     22  C   UNL     1       3.107   1.653   4.053  0.00  0.00    -0.019 A 
ATOM     23  C   UNL     1       4.485   1.551   4.102  0.00  0.00    +0.055 A 
ATOM     24  C   UNL     1       5.245   2.631   4.522  0.00  0.00    +0.163 A 
BRANCH  19  26
ATOM     25  C   UNL     1       4.650   6.063   5.673  0.00  0.00    +0.277 C 
ATOM     26  O   UNL     1       5.361   4.879   5.307  0.00  0.00    -0.491 OA
ENDBRANCH  19  26
BRANCH  24  27
ATOM     27  O   UNL     1       6.601   2.532   4.570  0.00  0.00    -0.484 OA
BRANCH  27  28
ATOM     28  C   UNL     1       7.175   1.285   4.174  0.00  0.00    +0.264 C 
BRANCH  28  29
ATOM     29  C   UNL     1       8.675   1.362   4.293  0.00  0.00    -0.010 A 
ATOM     30  C   UNL     1       9.433   1.783   3.216  0.00  0.00    +0.007 A 
ATOM     31  C   UNL     1      10.809   1.858   3.326  0.00  0.00    +0.000 A 
ATOM     32  C   UNL     1      11.428   1.503   4.510  0.00  0.00    +0.000 A 
ATOM     33  C   UNL     1      10.670   1.078   5.585  0.00  0.00    +0.000 A 
ATOM     34  C   UNL     1       9.294   1.007   5.476  0.00  0.00    +0.007 A 
ENDBRANCH  28  29
ENDBRANCH  27  28
ENDBRANCH  24  27
ENDBRANCH   1  22
BRANCH   5  35
ATOM     35  C   UNL     1      -0.130   1.306  -1.598  0.00  0.00    -0.044 A 
ATOM     36  C   UNL     1      -0.189   2.650  -1.920  0.00  0.00    +0.004 A 
ATOM     37  C   UNL     1      -0.712   3.047  -3.136  0.00  0.00    +0.000 A 
ATOM     38  C   UNL     1      -1.186   2.101  -4.026  0.00  0.00    +0.000 A 
ATOM     39  C   UNL     1      -1.133   0.758  -3.702  0.00  0.00    +0.000 A 
ATOM     40  C   UNL     1      -0.604   0.361  -2.488  0.00  0.00    +0.004 A 
ENDBRANCH   5  35
TORSDOF 6
