REMARK  Name = ZINC36547703
REMARK  11 active torsions:
REMARK  status: ('A' for Active; 'I' for Inactive)
REMARK    1  A    between atoms: C_1  and  C_2
REMARK    2  A    between atoms: C_5  and  S_8
REMARK    3  A    between atoms: S_8  and  C_11
REMARK    4  A    between atoms: C_11  and  N_12
REMARK    5  A    between atoms: C_13  and  C_15
REMARK    6  A    between atoms: C_15  and  C_17
REMARK    7  A    between atoms: C_15  and  N_24
REMARK    8  A    between atoms: C_22  and  O_23
REMARK    9  A    between atoms: N_24  and  C_25
REMARK   10  A    between atoms: C_32  and  C_34
REMARK   11  A    between atoms: C_34  and  O_35
REMARK                            x       y       z     vdW  Elec       q    Type
REMARK                         _______ _______ _______ _____ _____    ______ ____
ROOT
ATOM      1  C   UNL     1       3.263  -5.000   3.573  0.00  0.00    +0.201 C 
ENDROOT
BRANCH   1   2
ATOM      2  C   UNL     1       2.455  -3.792   3.970  0.00  0.00    +0.024 A 
ATOM      3  C   UNL     1       1.159  -3.646   3.516  0.00  0.00    +0.009 A 
ATOM      4  C   UNL     1       0.417  -2.538   3.880  0.00  0.00    +0.001 A 
ATOM      5  C   UNL     1       0.971  -1.572   4.700  0.00  0.00    +0.004 A 
ATOM      6  C   UNL     1       2.266  -1.713   5.158  0.00  0.00    +0.046 A 
ATOM      7  C   UNL     1       3.011  -2.827   4.798  0.00  0.00    +0.122 A 
BRANCH   7   8
ATOM      8  O   UNL     1       4.284  -2.970   5.252  0.00  0.00    -0.506 OA
ATOM      9  H   UNL     1       4.946  -2.511   4.716  0.00  0.00    +0.292 HD
ENDBRANCH   7   8
ENDBRANCH   1   2
BRANCH   1  11
ATOM     10  N   UNL     1       2.947  -5.140   1.123  0.00  0.00    -0.294 N 
ATOM     11  C   UNL     1       2.655  -5.629   2.345  0.00  0.00    +0.240 C 
ATOM     12  O   UNL     1       1.904  -6.574   2.457  0.00  0.00    -0.273 OA
ATOM     13  H   UNL     1       3.491  -4.342   1.037  0.00  0.00    +0.150 HD
BRANCH  10  14
ATOM     14  C   UNL     1       2.441  -5.814  -0.075  0.00  0.00    +0.278 C 
BRANCH  14  15
ATOM     15  S   UNL     1       0.895  -5.028  -0.605  0.00  0.00    +0.013 S 
ATOM     16  O   UNL     1       0.028  -4.854   0.507  0.00  0.00    -0.168 OA
ATOM     17  O   UNL     1       0.425  -5.630  -1.803  0.00  0.00    -0.168 OA
BRANCH  15  22
ATOM     18  C   UNL     1       2.471   0.570  -2.214  0.00  0.00    +0.044 C 
ATOM     19  C   UNL     1       2.078  -0.828  -1.812  0.00  0.00    -0.050 A 
ATOM     20  C   UNL     1       2.091  -1.846  -2.747  0.00  0.00    +0.005 A 
ATOM     21  C   UNL     1       1.730  -3.128  -2.379  0.00  0.00    +0.027 A 
ATOM     22  C   UNL     1       1.356  -3.393  -1.074  0.00  0.00    +0.090 A 
ATOM     23  C   UNL     1       1.344  -2.376  -0.139  0.00  0.00    +0.027 A 
ATOM     24  C   UNL     1       1.709  -1.094  -0.506  0.00  0.00    +0.005 A 
ENDBRANCH  15  22
ENDBRANCH  14  15
ENDBRANCH  10  14
ENDBRANCH   1  11
BRANCH   1  25
ATOM     25  N   UNL     1       3.262  -5.971   4.670  0.00  0.00    -0.252 N 
ATOM     26  C   UNL     1       4.429  -6.431   5.163  0.00  0.00    +0.246 C 
ATOM     27  O   UNL     1       4.429  -7.300   6.009  0.00  0.00    -0.273 OA
BRANCH  25  28
ATOM     28  C   UNL     1       2.050  -6.420   5.205  0.00  0.00    +0.056 A 
ATOM     29  C   UNL     1       1.432  -7.547   4.679  0.00  0.00    +0.025 A 
ATOM     30  C   UNL     1       0.236  -7.989   5.210  0.00  0.00    +0.002 A 
ATOM     31  C   UNL     1      -0.348  -7.310   6.264  0.00  0.00    +0.002 A 
ATOM     32  C   UNL     1       0.264  -6.188   6.791  0.00  0.00    +0.022 A 
ATOM     33  C   UNL     1       1.464  -5.744   6.269  0.00  0.00    +0.062 A 
ATOM     34 CL   UNL     1       2.236  -4.339   6.935  0.00  0.00    -0.082 Cl
ENDBRANCH  25  28
BRANCH  26  35
ATOM     35  C   UNL     1       5.733  -5.865   4.665  0.00  0.00    +0.252 C 
BRANCH  35  36
ATOM     36  O   UNL     1       6.820  -6.573   5.264  0.00  0.00    -0.386 OA
ATOM     37  H   UNL     1       7.693  -6.261   4.988  0.00  0.00    +0.210 HD
ENDBRANCH  35  36
ENDBRANCH  26  35
ENDBRANCH   1  25
TORSDOF 10
