REMARK  Name = ZINC02817329
REMARK  3 active torsions:
REMARK  status: ('A' for Active; 'I' for Inactive)
REMARK    1  A    between atoms: C_4  and  C_7
REMARK    2  A    between atoms: C_8  and  N_22
REMARK    3  A    between atoms: C_9  and  C_15
REMARK                            x       y       z     vdW  Elec       q    Type
REMARK                         _______ _______ _______ _____ _____    ______ ____
ROOT
ATOM      1  C   UNL     1       0.004  -0.008   0.014  0.00  0.00    +0.070 C 
ATOM      2  C   UNL     1       0.042   1.209  -0.535  0.00  0.00    +0.150 C 
ATOM      3  C   UNL     1       1.365   1.945  -0.538  0.00  0.00    +0.160 C 
ATOM      4  N   UNL     1       2.519   1.261   0.068  0.00  0.00    -0.287 N 
ATOM      5  C   UNL     1       2.339   0.030   0.587  0.00  0.00    +0.305 C 
ATOM      6  O   UNL     1       3.286  -0.543   1.089  0.00  0.00    -0.252 OA
ATOM      7  N   UNL     1       1.147  -0.581   0.566  0.00  0.00    -0.267 N 
ATOM      8  H   UNL     1       3.390   1.686   0.093  0.00  0.00    +0.151 HD
ATOM      9  H   UNL     1       1.076  -1.467   0.954  0.00  0.00    +0.156 HD
ENDROOT
BRANCH   3  10
ATOM     10  C   UNL     1       1.170   3.252   0.186  0.00  0.00    -0.020 A 
ATOM     11  C   UNL     1       0.988   4.420  -0.531  0.00  0.00    +0.006 A 
ATOM     12  C   UNL     1       0.809   5.619   0.132  0.00  0.00    +0.002 A 
ATOM     13  C   UNL     1       0.810   5.651   1.514  0.00  0.00    +0.020 A 
ATOM     14  C   UNL     1       0.992   4.484   2.233  0.00  0.00    +0.041 A 
ATOM     15  C   UNL     1       1.167   3.283   1.568  0.00  0.00    +0.025 A 
ATOM     16 CL   UNL     1       0.994   4.523   3.969  0.00  0.00    -0.084 Cl
ENDBRANCH   3  10
BRANCH   1  20
ATOM     17  C   UNL     1      -3.658  -2.162   0.077  0.00  0.00    +0.000 A 
ATOM     18  C   UNL     1      -2.579  -2.659  -0.632  0.00  0.00    +0.001 A 
ATOM     19  C   UNL     1      -1.387  -1.964  -0.656  0.00  0.00    +0.010 A 
ATOM     20  C   UNL     1      -1.272  -0.758   0.036  0.00  0.00    -0.002 A 
ATOM     21  C   UNL     1      -2.362  -0.266   0.753  0.00  0.00    +0.010 A 
ATOM     22  C   UNL     1      -3.550  -0.967   0.765  0.00  0.00    +0.001 A 
ENDBRANCH   1  20
BRANCH   2  23
ATOM     23  N   UNL     1      -1.171   1.817  -1.127  0.00  0.00    +0.056 N 
ATOM     24  O   UNL     1      -2.196   1.166  -1.218  0.00  0.00    -0.126 OA
ATOM     25  O   UNL     1      -1.143   2.968  -1.524  0.00  0.00    -0.126 OA
ENDBRANCH   2  23
TORSDOF 3
