REMARK  Name = ZINC08131440
REMARK  9 active torsions:
REMARK  status: ('A' for Active; 'I' for Inactive)
REMARK    1  A    between atoms: C_1  and  C_2
REMARK    2  A    between atoms: C_2  and  C_22
REMARK    3  A    between atoms: N_5  and  C_9
REMARK    4  A    between atoms: C_9  and  C_10
REMARK    5  A    between atoms: N_12  and  C_13
REMARK    6  A    between atoms: C_13  and  C_14
REMARK    7  A    between atoms: C_14  and  N_58
REMARK    8  A    between atoms: C_20  and  N_58
REMARK    9  A    between atoms: C_21  and  N_58
REMARK                            x       y       z     vdW  Elec       q    Type
REMARK                         _______ _______ _______ _____ _____    ______ ____
ROOT
ATOM      1  C   UNL     1       2.039   3.196   0.252  0.00  0.00    +0.213 C 
ENDROOT
BRANCH   1   6
ATOM      2  C   UNL     1      -0.203  -0.542   2.007  0.00  0.00    +0.047 C 
ATOM      3  C   UNL     1       0.358  -0.091   0.656  0.00  0.00    +0.135 C 
ATOM      4  C   UNL     1       0.323   1.421   0.543  0.00  0.00    +0.251 C 
ATOM      5  O   UNL     1      -0.656   2.135   0.571  0.00  0.00    -0.272 OA
ATOM      6  N   UNL     1       1.607   1.804   0.399  0.00  0.00    -0.215 N 
ATOM      7  C   UNL     1       2.439   0.756   0.405  0.00  0.00    +0.310 C 
ATOM      8  O   UNL     1       3.645   0.851   0.290  0.00  0.00    -0.252 OA
ATOM      9  N   UNL     1       1.791  -0.413   0.553  0.00  0.00    -0.281 N 
ATOM     10  H   UNL     1       2.190  -1.297   0.586  0.00  0.00    +0.152 HD
BRANCH   3  11
ATOM     11  C   UNL     1      -0.411  -0.725  -0.474  0.00  0.00    -0.016 A 
ATOM     12  C   UNL     1      -1.490  -0.064  -1.032  0.00  0.00    +0.006 A 
ATOM     13  C   UNL     1      -2.192  -0.643  -2.072  0.00  0.00    +0.000 A 
ATOM     14  C   UNL     1      -1.823  -1.888  -2.547  0.00  0.00    +0.000 A 
ATOM     15  C   UNL     1      -0.748  -2.551  -1.985  0.00  0.00    +0.000 A 
ATOM     16  C   UNL     1      -0.042  -1.969  -0.949  0.00  0.00    +0.006 A 
ENDBRANCH   3  11
ENDBRANCH   1   6
BRANCH   1  17
ATOM     17  C   UNL     1       2.312   3.784   1.613  0.00  0.00    +0.231 C 
ATOM     18  O   UNL     1       2.162   3.106   2.607  0.00  0.00    -0.274 OA
ATOM     19  N   UNL     1       2.724   5.062   1.724  0.00  0.00    -0.315 N 
ATOM     20  H   UNL     1       2.845   5.604   0.929  0.00  0.00    +0.149 HD
BRANCH  19  21
ATOM     21  C   UNL     1       2.991   5.633   3.047  0.00  0.00    +0.092 C 
BRANCH  21  22
ATOM     22  C   UNL     1       3.284   7.128   2.908  0.00  0.00    -0.050 C 
ATOM     23  C   UNL     1       4.407   7.335   1.890  0.00  0.00    -0.010 C 
ATOM     24  C   UNL     1       5.668   6.611   2.367  0.00  0.00    -0.001 C 
ATOM     25  C   UNL     1       6.097   7.175   3.723  0.00  0.00    -0.000 C 
ATOM     26  C   UNL     1       4.974   6.968   4.741  0.00  0.00    -0.001 C 
ATOM     27  C   UNL     1       3.713   7.692   4.263  0.00  0.00    -0.010 C 
BRANCH  22  30
ATOM     28  C   UNL     1       1.685   7.374   1.106  0.00  0.00    -0.096 C 
ATOM     29  C   UNL     1       0.971   7.646   3.403  0.00  0.00    -0.096 C 
ATOM     30  N   UNL     1       2.080   7.852   2.448  0.00  0.00    +0.381 N 
ATOM     31  H   UNL     1       2.293   8.855   2.396  0.00  0.00    -0.082 HD
ENDBRANCH  22  30
ENDBRANCH  21  22
ENDBRANCH  19  21
ENDBRANCH   1  17
TORSDOF 6
