REMARK  Name = ZINC40404639
REMARK  11 active torsions:
REMARK  status: ('A' for Active; 'I' for Inactive)
REMARK    1  A    between atoms: C_1  and  C_2
REMARK    2  A    between atoms: C_2  and  O_3
REMARK    3  A    between atoms: O_3  and  C_4
REMARK    4  A    between atoms: C_4  and  C_5
REMARK    5  A    between atoms: C_5  and  C_7
REMARK    6  A    between atoms: C_5  and  O_34
REMARK    7  A    between atoms: C_7  and  N_8
REMARK    8  A    between atoms: N_8  and  C_9
REMARK    9  A    between atoms: N_8  and  C_28
REMARK   10  A    between atoms: C_9  and  C_10
REMARK   11  A    between atoms: C_16  and  C_21
REMARK                            x       y       z     vdW  Elec       q    Type
REMARK                         _______ _______ _______ _____ _____    ______ ____
ROOT
ATOM      1  C   UNL     1       3.026  -6.013   5.263  0.00  0.00    +0.094 A 
ATOM      2  N   UNL     1       3.255  -7.324   5.528  0.00  0.00    -0.312 N 
ATOM      3  H   UNL     1       2.920  -7.998   4.916  0.00  0.00    +0.170 HD
ATOM      4  C   UNL     1       3.938  -7.708   6.622  0.00  0.00    +0.260 A 
ATOM      5  O   UNL     1       4.136  -8.890   6.845  0.00  0.00    -0.267 OA
ATOM      6  C   UNL     1       4.430  -6.707   7.519  0.00  0.00    +0.080 A 
ATOM      7  C   UNL     1       5.188  -6.868   8.755  0.00  0.00    +0.004 A 
ATOM      8  C   UNL     1       5.549  -5.760   9.446  0.00  0.00    +0.056 A 
ATOM      9  S   UNL     1       4.885  -4.427   8.466  0.00  0.00    -0.076 S 
ATOM     10  C   UNL     1       4.145  -5.379   7.164  0.00  0.00    +0.116 A 
ATOM     11  N   UNL     1       3.466  -5.076   6.060  0.00  0.00    -0.229 NA
ENDROOT
BRANCH   7  12
ATOM     12  C   UNL     1       5.555  -8.218   9.245  0.00  0.00    -0.016 A 
ATOM     13  C   UNL     1       4.586  -9.216   9.339  0.00  0.00    +0.010 A 
ATOM     14  C   UNL     1       4.934 -10.470   9.796  0.00  0.00    +0.020 A 
ATOM     15  C   UNL     1       6.242 -10.739  10.161  0.00  0.00    +0.041 A 
ATOM     16  C   UNL     1       7.207  -9.751  10.071  0.00  0.00    +0.020 A 
ATOM     17  C   UNL     1       6.872  -8.495   9.610  0.00  0.00    +0.010 A 
ATOM     18 CL   UNL     1       6.672 -12.320  10.735  0.00  0.00    -0.084 Cl
ENDBRANCH   7  12
BRANCH   1  19
ATOM     19  C   UNL     1       2.257  -5.630   4.025  0.00  0.00    -0.003 C 
BRANCH  19  20
ATOM     20  N   UNL     1       2.285  -4.170   3.863  0.00  0.00    +0.388 N 
ATOM     21  H   UNL     1       2.232  -3.730   4.769  0.00  0.00    -0.081 HD
BRANCH  20  22
ATOM     22  C   UNL     1       3.534  -3.775   3.199  0.00  0.00    -0.068 C 
ATOM     23  C   UNL     1       3.571  -4.367   1.788  0.00  0.00    -0.015 C 
ATOM     24  C   UNL     1       4.872  -3.956   1.096  0.00  0.00    -0.002 C 
ATOM     25  C   UNL     1       6.064  -4.478   1.900  0.00  0.00    -0.000 C 
ATOM     26  C   UNL     1       6.027  -3.886   3.310  0.00  0.00    -0.002 C 
ATOM     27  C   UNL     1       4.726  -4.297   4.002  0.00  0.00    -0.015 C 
ENDBRANCH  20  22
BRANCH  20  28
ATOM     28  C   UNL     1       1.140  -3.746   3.046  0.00  0.00    -0.044 C 
BRANCH  28  29
ATOM     29  C   UNL     1       1.058  -2.218   3.037  0.00  0.00    +0.124 C 
BRANCH  29  30
ATOM     30  O   UNL     1       2.164  -1.686   2.306  0.00  0.00    -0.391 OA
ATOM     31  H   UNL     1       2.156  -1.907   1.364  0.00  0.00    +0.210 HD
ENDBRANCH  29  30
BRANCH  29  32
ATOM     32  C   UNL     1      -0.250  -1.782   2.373  0.00  0.00    +0.189 C 
BRANCH  32  33
ATOM     33  O   UNL     1      -0.382  -0.362   2.468  0.00  0.00    -0.378 OA
BRANCH  33  35
ATOM     34  C   UNL     1      -1.611   1.673   2.035  0.00  0.00    +0.034 C 
ATOM     35  C   UNL     1      -1.576   0.152   1.875  0.00  0.00    +0.156 C 
ENDBRANCH  33  35
ENDBRANCH  32  33
ENDBRANCH  29  32
ENDBRANCH  28  29
ENDBRANCH  20  28
ENDBRANCH  19  20
ENDBRANCH   1  19
TORSDOF 10
