REMARK  Name = ZINC13730405
REMARK  7 active torsions:
REMARK  status: ('A' for Active; 'I' for Inactive)
REMARK    1  A    between atoms: C_1  and  C_2
REMARK    2  A    between atoms: C_2  and  C_35
REMARK    3  A    between atoms: C_3  and  C_17
REMARK    4  A    between atoms: N_19  and  C_20
REMARK    5  A    between atoms: C_20  and  C_21
REMARK    6  A    between atoms: C_21  and  C_22
REMARK    7  A    between atoms: N_24  and  C_25
REMARK                            x       y       z     vdW  Elec       q    Type
REMARK                         _______ _______ _______ _____ _____    ______ ____
ROOT
ATOM      1  C   UNL     1      -0.279   2.392   3.535  0.00  0.00    +0.235 C 
ATOM      2  O   UNL     1      -1.056   3.293   3.301  0.00  0.00    -0.274 OA
ATOM      3  N   UNL     1       0.315   2.311   4.743  0.00  0.00    -0.313 N 
ATOM      4  H   UNL     1       0.936   1.591   4.930  0.00  0.00    +0.149 HD
ENDROOT
BRANCH   1   7
ATOM      5  C   UNL     1       2.440   0.673   2.127  0.00  0.00    +0.025 C 
ATOM      6  C   UNL     1       1.373   1.722   1.806  0.00  0.00    +0.040 C 
ATOM      7  C   UNL     1       0.024   1.363   2.476  0.00  0.00    +0.179 C 
ATOM      8  N   UNL     1      -1.096   1.320   1.531  0.00  0.00    -0.269 N 
ATOM      9  C   UNL     1      -0.668   0.768   0.215  0.00  0.00    +0.167 C 
ATOM     10  S   UNL     1       0.921   1.679   0.016  0.00  0.00    -0.125 S 
ATOM     11  C   UNL     1      -1.677   1.232  -0.792  0.00  0.00    -0.005 A 
ATOM     12  C   UNL     1      -1.741   1.243  -2.155  0.00  0.00    +0.007 A 
ATOM     13  C   UNL     1      -2.856   1.746  -2.804  0.00  0.00    +0.000 A 
ATOM     14  C   UNL     1      -3.917   2.251  -2.073  0.00  0.00    +0.001 A 
ATOM     15  C   UNL     1      -3.866   2.268  -0.695  0.00  0.00    +0.013 A 
ATOM     16  C   UNL     1      -2.739   1.780  -0.034  0.00  0.00    +0.043 A 
ATOM     17  C   UNL     1      -2.390   1.678   1.396  0.00  0.00    +0.249 C 
ATOM     18  O   UNL     1      -3.155   1.885   2.317  0.00  0.00    -0.270 OA
ATOM     19  C   UNL     1       1.839   3.119   2.221  0.00  0.00    +0.025 C 
ENDBRANCH   1   7
BRANCH   3  20
ATOM     20  C   UNL     1       0.020   3.311   5.772  0.00  0.00    +0.113 C 
BRANCH  20  21
ATOM     21  C   UNL     1       0.818   2.990   7.037  0.00  0.00    +0.115 C 
BRANCH  21  22
ATOM     22  C   UNL     1       0.515   4.019   8.096  0.00  0.00    +0.219 C 
ATOM     23  O   UNL     1      -0.263   4.920   7.862  0.00  0.00    -0.275 OA
ATOM     24  N   UNL     1       1.108   3.938   9.304  0.00  0.00    -0.285 N 
ATOM     25  H   UNL     1       1.670   3.177   9.518  0.00  0.00    +0.155 HD
BRANCH  24  26
ATOM     26  C   UNL     1       0.913   4.953  10.250  0.00  0.00    +0.034 A 
ATOM     27  C   UNL     1       0.882   4.641  11.608  0.00  0.00    +0.025 A 
ATOM     28  C   UNL     1       0.691   5.626  12.550  0.00  0.00    +0.028 A 
ATOM     29  C   UNL     1       0.527   6.949  12.150  0.00  0.00    +0.047 A 
ATOM     30  C   UNL     1       0.558   7.268  10.781  0.00  0.00    +0.001 A 
ATOM     31  C   UNL     1       0.757   6.262   9.833  0.00  0.00    +0.033 A 
ATOM     32  C   UNL     1       0.359   8.717  10.698  0.00  0.00    +0.027 A 
ATOM     33  C   UNL     1       0.226   9.168  11.956  0.00  0.00    +0.083 A 
ATOM     34  N   UNL     1       0.324   8.126  12.837  0.00  0.00    -0.361 N 
ATOM     35  H   UNL     1       0.258   8.205  13.802  0.00  0.00    +0.165 HD
ENDBRANCH  24  26
ENDBRANCH  21  22
ENDBRANCH  20  21
ENDBRANCH   3  20
TORSDOF 5
