REMARK  Name = ZINC01131052
REMARK  8 active torsions:
REMARK  status: ('A' for Active; 'I' for Inactive)
REMARK    1  A    between atoms: C_1  and  C_2
REMARK    2  A    between atoms: N_5  and  C_7
REMARK    3  A    between atoms: C_9  and  O_16
REMARK    4  A    between atoms: C_10  and  O_15
REMARK    5  A    between atoms: O_16  and  C_17
REMARK    6  A    between atoms: C_19  and  N_31
REMARK    7  A    between atoms: C_20  and  C_29
REMARK    8  A    between atoms: C_21  and  C_23
REMARK                            x       y       z     vdW  Elec       q    Type
REMARK                         _______ _______ _______ _____ _____    ______ ____
ROOT
ATOM      1  C   UNL     1       0.194   1.498  -0.002  0.00  0.00    +0.068 C 
ATOM      2  C   UNL     1       0.098  -0.006  -0.003  0.00  0.00    +0.068 A 
ATOM      3  C   UNL     1      -0.077  -0.809  -1.123  0.00  0.00    +0.050 A 
ATOM      4  C   UNL     1      -0.114  -2.112  -0.709  0.00  0.00    +0.230 A 
ATOM      5  N   UNL     1       0.034  -2.116   0.634  0.00  0.00    -0.198 N 
ATOM      6  N   UNL     1       0.170  -0.783   1.052  0.00  0.00    -0.168 NA
ATOM      7  O   UNL     1      -0.271  -3.150  -1.567  0.00  0.00    -0.423 OA
ATOM      8  C   UNL     1      -0.120  -2.899  -2.884  0.00  0.00    +0.200 C 
ATOM      9  C   UNL     1      -0.082  -1.656  -3.413  0.00  0.00    +0.098 C 
ATOM     10  C   UNL     1      -0.212  -0.412  -2.570  0.00  0.00    +0.101 C 
ENDROOT
BRANCH   5  11
ATOM     11  C   UNL     1       0.052  -3.249   1.461  0.00  0.00    +0.092 A 
ATOM     12  C   UNL     1       0.842  -4.340   1.126  0.00  0.00    +0.078 A 
ATOM     13  C   UNL     1       0.860  -5.458   1.943  0.00  0.00    +0.164 A 
ATOM     14  C   UNL     1       0.085  -5.487   3.098  0.00  0.00    +0.174 A 
ATOM     15  C   UNL     1      -0.704  -4.396   3.431  0.00  0.00    +0.083 A 
ATOM     16  C   UNL     1      -0.717  -3.277   2.617  0.00  0.00    +0.084 A 
ATOM     17 CL   UNL     1      -1.699  -1.909   3.039  0.00  0.00    -0.080 Cl
ATOM     18 BR   UNL     1      -1.757  -4.435   5.001  0.00  0.00    -0.045 Br
BRANCH  14  19
ATOM     19  O   UNL     1       0.101  -6.585   3.901  0.00  0.00    -0.503 OA
ATOM     20  H   UNL     1       0.777  -6.557   4.592  0.00  0.00    +0.292 HD
ENDBRANCH  14  19
BRANCH  13  21
ATOM     21  O   UNL     1       1.633  -6.528   1.616  0.00  0.00    -0.491 OA
ATOM     22  C   UNL     1       2.402  -6.430   0.415  0.00  0.00    +0.277 C 
ENDBRANCH  13  21
ENDBRANCH   5  11
BRANCH  10  23
ATOM     23  C   UNL     1      -1.561   0.218  -2.800  0.00  0.00    -0.035 A 
ATOM     24  C   UNL     1      -2.713  -0.500  -2.541  0.00  0.00    +0.004 A 
ATOM     25  C   UNL     1      -3.951   0.079  -2.753  0.00  0.00    +0.000 A 
ATOM     26  C   UNL     1      -4.036   1.376  -3.223  0.00  0.00    +0.000 A 
ATOM     27  C   UNL     1      -2.884   2.095  -3.481  0.00  0.00    +0.000 A 
ATOM     28  C   UNL     1      -1.646   1.517  -3.266  0.00  0.00    +0.004 A 
ENDBRANCH  10  23
BRANCH   8  29
ATOM     29  N   UNL     1       0.004  -3.968  -3.736  0.00  0.00    -0.328 N 
ATOM     30  H   UNL     1      -0.019  -4.872  -3.385  0.00  0.00    +0.145 HD
ATOM     31  H   UNL     1       0.114  -3.820  -4.688  0.00  0.00    +0.145 HD
ENDBRANCH   8  29
BRANCH   9  32
ATOM     32  C   UNL     1       0.088  -1.514  -4.828  0.00  0.00    +0.101 C 
ATOM     33  N   UNL     1       0.222  -1.402  -5.951  0.00  0.00    -0.191 NA
ENDBRANCH   9  32
TORSDOF 6
