REMARK  Name = ZINC45827528
REMARK  14 active torsions:
REMARK  status: ('A' for Active; 'I' for Inactive)
REMARK    1  A    between atoms: C_1  and  C_2
REMARK    2  A    between atoms: C_2  and  N_3
REMARK    3  A    between atoms: N_3  and  C_4
REMARK    4  A    between atoms: N_3  and  C_6
REMARK    5  A    between atoms: C_4  and  C_5
REMARK    6  A    between atoms: C_6  and  C_8
REMARK    7  A    between atoms: C_6  and  C_28
REMARK    8  A    between atoms: C_8  and  N_9
REMARK    9  A    between atoms: C_10  and  C_12
REMARK   10  A    between atoms: N_17  and  S_19
REMARK   11  A    between atoms: S_19  and  C_22
REMARK   12  A    between atoms: C_25  and  C_27
REMARK   13  A    between atoms: C_32  and  O_34
REMARK   14  A    between atoms: O_34  and  C_35
REMARK                            x       y       z     vdW  Elec       q    Type
REMARK                         _______ _______ _______ _____ _____    ______ ____
ROOT
ATOM      1  N   UNL     1      -1.615  -2.380   0.698  0.00  0.00    -0.316 N 
ATOM      2  C   UNL     1      -1.248  -3.382  -0.126  0.00  0.00    +0.217 C 
ATOM      3  O   UNL     1      -1.065  -3.162  -1.304  0.00  0.00    -0.275 OA
ATOM      4  H   UNL     1      -1.691  -2.539   1.652  0.00  0.00    +0.149 HD
ENDROOT
BRANCH   2   5
ATOM      5  C   UNL     1      -1.065  -4.776   0.418  0.00  0.00    +0.091 C 
ATOM      6  C   UNL     1      -2.416  -5.322   0.887  0.00  0.00    +0.015 C 
ATOM      7  C   UNL     1      -2.226  -6.724   1.470  0.00  0.00    +0.018 C 
ATOM      8  C   UNL     1      -1.679  -7.655   0.383  0.00  0.00    +0.109 C 
ATOM      9  N   UNL     1      -0.456  -7.063  -0.176  0.00  0.00    -0.175 NA
ATOM     10  C   UNL     1      -0.505  -5.684  -0.681  0.00  0.00    +0.122 C 
BRANCH   9  11
ATOM     11  S   UNL     1       0.952  -7.933  -0.234  0.00  0.00    +0.067 S 
ATOM     12  O   UNL     1       2.012  -6.987  -0.273  0.00  0.00    -0.152 OA
ATOM     13  O   UNL     1       0.856  -8.928   0.775  0.00  0.00    -0.152 OA
BRANCH  11  14
ATOM     14  C   UNL     1       0.977  -8.781  -1.778  0.00  0.00    +0.143 A 
ATOM     15  C   UNL     1       1.482  -8.373  -2.968  0.00  0.00    +0.036 A 
ATOM     16  C   UNL     1       1.389  -9.216  -4.060  0.00  0.00    +0.013 A 
ATOM     17  C   UNL     1       0.795 -10.425  -3.909  0.00  0.00    -0.011 A 
ATOM     18  S   UNL     1       0.350 -10.403  -2.180  0.00  0.00    -0.074 S 
ATOM     19  C   UNL     1       0.574 -11.508  -4.932  0.00  0.00    +0.051 C 
ENDBRANCH  11  14
ENDBRANCH   9  11
ENDBRANCH   2   5
BRANCH   1  20
ATOM     20  C   UNL     1      -1.899  -1.051   0.152  0.00  0.00    +0.093 C 
BRANCH  20  21
ATOM     21  C   UNL     1      -2.151  -0.071   1.301  0.00  0.00    -0.020 C 
BRANCH  21  22
ATOM     22  C   UNL     1      -2.324   1.319   0.746  0.00  0.00    -0.056 A 
ATOM     23  C   UNL     1      -2.701   1.495  -0.573  0.00  0.00    +0.002 A 
ATOM     24  C   UNL     1      -2.861   2.769  -1.084  0.00  0.00    +0.004 A 
ATOM     25  C   UNL     1      -2.644   3.871  -0.279  0.00  0.00    +0.045 A 
ATOM     26  C   UNL     1      -2.266   3.697   1.044  0.00  0.00    +0.120 A 
ATOM     27  C   UNL     1      -2.112   2.417   1.557  0.00  0.00    +0.047 A 
BRANCH  26  28
ATOM     28  O   UNL     1      -2.052   4.779   1.839  0.00  0.00    -0.495 OA
ATOM     29  C   UNL     1      -2.235   6.066   1.245  0.00  0.00    +0.277 C 
ENDBRANCH  26  28
ENDBRANCH  21  22
BRANCH  21  30
ATOM     30  N   UNL     1      -1.006  -0.092   2.221  0.00  0.00    +0.385 N 
ATOM     31  H   UNL     1      -0.607  -1.019   2.240  0.00  0.00    -0.081 HD
BRANCH  30  33
ATOM     32  C   UNL     1       0.417   0.534   0.329  0.00  0.00    -0.017 C 
ATOM     33  C   UNL     1       0.007   0.868   1.765  0.00  0.00    -0.081 C 
ENDBRANCH  30  33
BRANCH  30  34
ATOM     34  C   UNL     1      -1.456   0.275   3.571  0.00  0.00    -0.081 C 
ATOM     35  C   UNL     1      -2.345  -0.836   4.131  0.00  0.00    -0.017 C 
ENDBRANCH  30  34
ENDBRANCH  21  30
ENDBRANCH  20  21
ENDBRANCH   1  20
TORSDOF 10
