REMARK  Name = ZINC38860840
REMARK  6 active torsions:
REMARK  status: ('A' for Active; 'I' for Inactive)
REMARK    1  A    between atoms: C_4  and  O_7
REMARK    2  A    between atoms: O_7  and  C_8
REMARK    3  A    between atoms: C_13  and  N_14
REMARK    4  A    between atoms: C_15  and  C_17
REMARK    5  A    between atoms: N_20  and  C_23
REMARK    6  A    between atoms: C_23  and  C_24
REMARK                            x       y       z     vdW  Elec       q    Type
REMARK                         _______ _______ _______ _____ _____    ______ ____
ROOT
ATOM      1  N   UNL     1       5.929  -1.934   0.112  0.00  0.00    -0.282 N 
ATOM      2  C   UNL     1       7.082  -2.630   0.100  0.00  0.00    +0.220 C 
ATOM      3  O   UNL     1       7.062  -3.840   0.188  0.00  0.00    -0.275 OA
ATOM      4  H   UNL     1       5.947  -0.964   0.099  0.00  0.00    +0.155 HD
ENDROOT
BRANCH   1  10
ATOM      5  C   UNL     1       3.595  -2.082  -0.516  0.00  0.00    +0.150 A 
ATOM      6  C   UNL     1       2.386  -2.758  -0.486  0.00  0.00    +0.049 A 
ATOM      7  C   UNL     1       2.278  -3.951   0.203  0.00  0.00    +0.024 A 
ATOM      8  C   UNL     1       3.375  -4.474   0.865  0.00  0.00    +0.043 A 
ATOM      9  C   UNL     1       4.585  -3.805   0.839  0.00  0.00    +0.047 A 
ATOM     10  C   UNL     1       4.702  -2.610   0.144  0.00  0.00    +0.078 A 
ATOM     11 CL   UNL     1       3.232  -5.973   1.729  0.00  0.00    -0.083 Cl
BRANCH   5  12
ATOM     12  O   UNL     1       3.703  -0.908  -1.194  0.00  0.00    -0.454 OA
BRANCH  12  16
ATOM     13  C   UNL     1       0.272   0.722  -2.804  0.00  0.00    +0.000 A 
ATOM     14  C   UNL     1       0.421   0.644  -1.431  0.00  0.00    +0.004 A 
ATOM     15  C   UNL     1       1.569   0.099  -0.889  0.00  0.00    +0.046 A 
ATOM     16  C   UNL     1       2.573  -0.371  -1.724  0.00  0.00    +0.129 A 
ATOM     17  C   UNL     1       2.421  -0.293  -3.101  0.00  0.00    +0.046 A 
ATOM     18  C   UNL     1       1.271   0.253  -3.637  0.00  0.00    +0.004 A 
ENDBRANCH  12  16
ENDBRANCH   5  12
ENDBRANCH   1  10
BRANCH   2  19
ATOM     19  C   UNL     1       8.398  -1.907  -0.025  0.00  0.00    +0.072 C 
ATOM     20  C   UNL     1       8.568  -0.947   1.157  0.00  0.00    -0.006 C 
ATOM     21  C   UNL     1       9.940  -0.275   1.067  0.00  0.00    -0.078 C 
ATOM     22  N   UNL     1      10.993  -1.296   1.109  0.00  0.00    +0.382 N 
ATOM     23  C   UNL     1      10.880  -2.176  -0.060  0.00  0.00    -0.078 C 
ATOM     24  C   UNL     1       9.544  -2.922  -0.014  0.00  0.00    -0.006 C 
ATOM     25  H   UNL     1      10.897  -1.843   1.951  0.00  0.00    -0.081 HD
BRANCH  22  26
ATOM     26  C   UNL     1      12.309  -0.641   1.101  0.00  0.00    -0.043 C 
BRANCH  26  27
ATOM     27  C   UNL     1      13.388  -1.680   1.268  0.00  0.00    -0.063 A 
ATOM     28  C   UNL     1      13.821  -2.030   2.533  0.00  0.00    +0.002 A 
ATOM     29  C   UNL     1      14.810  -2.983   2.686  0.00  0.00    +0.001 A 
ATOM     30  C   UNL     1      15.368  -3.586   1.574  0.00  0.00    +0.015 A 
ATOM     31  C   UNL     1      14.934  -3.236   0.308  0.00  0.00    +0.018 A 
ATOM     32  C   UNL     1      13.940  -2.286   0.155  0.00  0.00    +0.017 A 
ATOM     33 BR   UNL     1      15.697  -4.060  -1.214  0.00  0.00    -0.050 Br
ENDBRANCH  26  27
ENDBRANCH  22  26
ENDBRANCH   2  19
TORSDOF 6
