REMARK  Name = ZINC39665354
REMARK  9 active torsions:
REMARK  status: ('A' for Active; 'I' for Inactive)
REMARK    1  A    between atoms: C_1  and  C_2
REMARK    2  A    between atoms: C_4  and  C_11
REMARK    3  A    between atoms: C_5  and  C_7
REMARK    4  A    between atoms: C_15  and  C_24
REMARK    5  A    between atoms: N_26  and  C_27
REMARK    6  A    between atoms: C_27  and  C_28
REMARK    7  A    between atoms: C_28  and  C_30
REMARK    8  A    between atoms: C_28  and  O_31
REMARK    9  A    between atoms: O_31  and  C_32
REMARK                            x       y       z     vdW  Elec       q    Type
REMARK                         _______ _______ _______ _____ _____    ______ ____
ROOT
ATOM      1  C   UNL     1      -1.289  -3.194   0.045  0.00  0.00    +0.250 C 
ATOM      2  O   UNL     1      -0.701  -4.253  -0.060  0.00  0.00    -0.270 OA
ATOM      3  N   UNL     1      -2.633  -3.176   0.145  0.00  0.00    -0.296 N 
ATOM      4  C   UNL     1      -3.527  -1.995   0.158  0.00  0.00    +0.121 C 
ATOM      5  C   UNL     1      -4.752  -2.423  -0.682  0.00  0.00    +0.100 C 
ATOM      6  C   UNL     1      -4.763  -3.959  -0.605  0.00  0.00    -0.004 C 
ATOM      7  C   UNL     1      -3.551  -4.335   0.261  0.00  0.00    +0.115 C 
ATOM      8  C   UNL     1      -6.052  -4.446   0.050  0.00  0.00    -0.010 C 
ATOM      9  C   UNL     1      -6.065  -5.978   0.062  0.00  0.00    -0.082 C 
ATOM     10  N   UNL     1      -5.970  -6.481  -1.313  0.00  0.00    +0.379 N 
ATOM     11  C   UNL     1      -4.686  -6.086  -1.903  0.00  0.00    -0.082 C 
ATOM     12  C   UNL     1      -4.614  -4.559  -2.000  0.00  0.00    -0.010 C 
ATOM     13  H   UNL     1      -6.041  -7.488  -1.307  0.00  0.00    -0.086 HD
ATOM     14  H   UNL     1      -6.724  -6.098  -1.863  0.00  0.00    -0.086 HD
ENDROOT
BRANCH   1  18
ATOM     15  C   UNL     1       0.092   1.647   0.877  0.00  0.00    +0.086 C 
ATOM     16  C   UNL     1       0.059   0.205   0.439  0.00  0.00    +0.103 A 
ATOM     17  C   UNL     1      -0.943  -0.656   0.672  0.00  0.00    +0.058 A 
ATOM     18  C   UNL     1      -0.532  -1.929   0.063  0.00  0.00    +0.087 A 
ATOM     19  C   UNL     1       0.696  -1.696  -0.483  0.00  0.00    +0.220 A 
ATOM     20  O   UNL     1       1.025  -0.421  -0.252  0.00  0.00    -0.455 OA
BRANCH  19  21
ATOM     21  C   UNL     1       1.537  -2.703  -1.225  0.00  0.00    +0.451 C 
ATOM     22  F   UNL     1       1.226  -2.656  -2.588  0.00  0.00    -0.163 F 
ATOM     23  F   UNL     1       2.891  -2.401  -1.045  0.00  0.00    -0.163 F 
ATOM     24  F   UNL     1       1.275  -3.985  -0.730  0.00  0.00    -0.163 F 
ENDBRANCH  19  21
ENDBRANCH   1  18
BRANCH   5  25
ATOM     25  C   UNL     1      -6.017  -1.857  -0.091  0.00  0.00    +0.218 C 
ATOM     26  O   UNL     1      -6.065  -1.580   1.089  0.00  0.00    -0.275 OA
ATOM     27  N   UNL     1      -7.096  -1.658  -0.874  0.00  0.00    -0.312 N 
ATOM     28  H   UNL     1      -7.058  -1.879  -1.818  0.00  0.00    +0.149 HD
BRANCH  27  29
ATOM     29  C   UNL     1      -8.326  -1.107  -0.300  0.00  0.00    +0.148 C 
BRANCH  29  30
ATOM     30  C   UNL     1      -9.389  -0.982  -1.394  0.00  0.00    +0.187 C 
ATOM     31  C   UNL     1     -10.673  -0.407  -0.794  0.00  0.00    +0.053 C 
BRANCH  30  32
ATOM     32  O   UNL     1      -8.913  -0.113  -2.423  0.00  0.00    -0.488 OA
BRANCH  32  33
ATOM     33  C   UNL     1      -9.294  -0.396  -3.696  0.00  0.00    +0.121 A 
ATOM     34  C   UNL     1      -8.767   0.326  -4.757  0.00  0.00    +0.045 A 
ATOM     35  C   UNL     1      -9.156   0.035  -6.050  0.00  0.00    +0.004 A 
ATOM     36  C   UNL     1     -10.071  -0.974  -6.287  0.00  0.00    +0.000 A 
ATOM     37  C   UNL     1     -10.599  -1.695  -5.232  0.00  0.00    +0.004 A 
ATOM     38  C   UNL     1     -10.208  -1.412  -3.937  0.00  0.00    +0.045 A 
ENDBRANCH  32  33
ENDBRANCH  30  32
ENDBRANCH  29  30
ENDBRANCH  27  29
ENDBRANCH   5  25
TORSDOF 7
