REMARK  Name = ZINC09640421
REMARK  6 active torsions:
REMARK  status: ('A' for Active; 'I' for Inactive)
REMARK    1  A    between atoms: C_1  and  C_2
REMARK    2  A    between atoms: C_2  and  C_4
REMARK    3  A    between atoms: C_2  and  N_13
REMARK    4  A    between atoms: C_14  and  C_16
REMARK    5  A    between atoms: C_16  and  N_51
REMARK    6  A    between atoms: C_24  and  C_26
REMARK                            x       y       z     vdW  Elec       q    Type
REMARK                         _______ _______ _______ _____ _____    ______ ____
ROOT
ATOM      1  C   UNL     1       2.248   3.457  -2.259  0.00  0.00    +0.020 C 
ENDROOT
BRANCH   1  10
ATOM      2  C   UNL     1       3.880   3.417  -0.470  0.00  0.00    -0.072 C 
ATOM      3  C   UNL     1       3.980   3.476   1.063  0.00  0.00    +0.024 C 
ATOM      4  C   UNL     1       3.422   4.789   1.506  0.00  0.00    -0.010 A 
ATOM      5  C   UNL     1       2.679   5.651   0.757  0.00  0.00    -0.046 A 
ATOM      6  C   UNL     1       2.268   6.825   1.384  0.00  0.00    +0.010 A 
ATOM      7  C   UNL     1       2.608   7.059   2.672  0.00  0.00    +0.045 A 
ATOM      8  S   UNL     1       3.552   5.596   3.076  0.00  0.00    -0.101 S 
ATOM      9  C   UNL     1       2.344   5.297  -0.689  0.00  0.00    +0.002 C 
ATOM     10  N   UNL     1       2.510   3.834  -0.857  0.00  0.00    +0.393 N 
ATOM     11  H   UNL     1       1.835   3.353  -0.251  0.00  0.00    -0.080 HD
BRANCH   9  12
ATOM     12  C   UNL     1       0.911   5.659  -0.980  0.00  0.00    -0.019 A 
ATOM     13  C   UNL     1       0.418   6.749  -1.618  0.00  0.00    +0.010 A 
ATOM     14  C   UNL     1      -0.950   6.873  -1.773  0.00  0.00    +0.008 A 
ATOM     15  C   UNL     1      -1.758   5.902  -1.283  0.00  0.00    +0.045 A 
ATOM     16  S   UNL     1      -0.579   4.763  -0.575  0.00  0.00    -0.103 S 
ENDBRANCH   9  12
ENDBRANCH   1  10
BRANCH   1  18
ATOM     17  N   UNL     1       3.111   3.972  -4.520  0.00  0.00    -0.310 N 
ATOM     18  C   UNL     1       3.239   4.114  -3.186  0.00  0.00    +0.197 C 
ATOM     19  O   UNL     1       4.151   4.770  -2.730  0.00  0.00    -0.278 OA
ATOM     20  H   UNL     1       2.381   3.446  -4.884  0.00  0.00    +0.149 HD
BRANCH  17  22
ATOM     21  C   UNL     1       3.647   6.056  -5.681  0.00  0.00    +0.033 C 
ATOM     22  C   UNL     1       4.074   4.610  -5.420  0.00  0.00    +0.100 C 
BRANCH  22  23
ATOM     23  C   UNL     1       4.118   3.857  -6.724  0.00  0.00    -0.024 A 
ATOM     24  C   UNL     1       2.950   3.370  -7.280  0.00  0.00    +0.009 A 
ATOM     25  C   UNL     1       2.985   2.683  -8.479  0.00  0.00    +0.050 A 
ATOM     26  C   UNL     1       4.194   2.470  -9.121  0.00  0.00    +0.166 A 
ATOM     27  C   UNL     1       5.372   2.956  -8.559  0.00  0.00    +0.167 A 
ATOM     28  C   UNL     1       5.328   3.648  -7.360  0.00  0.00    +0.055 A 
ATOM     29  O   UNL     1       6.415   2.620  -9.373  0.00  0.00    -0.453 OA
ATOM     30  C   UNL     1       5.914   1.575 -10.227  0.00  0.00    +0.466 C 
ATOM     31  O   UNL     1       4.499   1.831 -10.288  0.00  0.00    -0.453 OA
ENDBRANCH  22  23
ENDBRANCH  17  22
ENDBRANCH   1  18
TORSDOF 5
