REMARK  Name = ZINC38598553
REMARK  12 active torsions:
REMARK  status: ('A' for Active; 'I' for Inactive)
REMARK    1  A    between atoms: C_1  and  C_2
REMARK    2  A    between atoms: C_2  and  C_3
REMARK    3  A    between atoms: C_2  and  C_4
REMARK    4  A    between atoms: C_4  and  C_6
REMARK    5  A    between atoms: C_4  and  N_19
REMARK    6  A    between atoms: C_6  and  N_8
REMARK    7  A    between atoms: C_20  and  C_22
REMARK    8  A    between atoms: C_22  and  N_23
REMARK    9  A    between atoms: C_28  and  O_36
REMARK   10  A    between atoms: C_29  and  O_34
REMARK   11  A    between atoms: O_34  and  C_35
REMARK   12  A    between atoms: O_36  and  C_37
REMARK                            x       y       z     vdW  Elec       q    Type
REMARK                         _______ _______ _______ _____ _____    ______ ____
ROOT
ATOM      1  N   UNL     1      -2.142  -0.048  -1.174  0.00  0.00    -0.302 N 
ATOM      2  C   UNL     1      -2.727   1.166  -1.160  0.00  0.00    +0.231 C 
ATOM      3  O   UNL     1      -2.667   1.857  -0.165  0.00  0.00    -0.274 OA
ATOM      4  H   UNL     1      -2.190  -0.601  -1.970  0.00  0.00    +0.150 HD
ENDROOT
BRANCH   1   5
ATOM      5  C   UNL     1      -1.433  -0.534   0.013  0.00  0.00    +0.164 C 
BRANCH   5   7
ATOM      6  C   UNL     1      -0.019   1.526   0.010  0.00  0.00    +0.009 C 
ATOM      7  C   UNL     1       0.002  -0.004   0.002  0.00  0.00    +0.012 C 
ATOM      8  C   UNL     1       0.742  -0.511   1.242  0.00  0.00    +0.009 C 
ENDBRANCH   5   7
BRANCH   5   9
ATOM      9  C   UNL     1      -1.413  -2.041   0.005  0.00  0.00    +0.259 C 
ATOM     10  O   UNL     1      -1.940  -2.651  -0.906  0.00  0.00    -0.272 OA
BRANCH   9  11
ATOM     11  N   UNL     1      -0.819  -2.702   0.992  0.00  0.00    -0.155 NA
ATOM     12  C   UNL     1      -0.801  -4.034   0.985  0.00  0.00    +0.164 A 
ATOM     13  N   UNL     1      -0.250  -4.863   1.906  0.00  0.00    -0.335 N 
ATOM     14  H   UNL     1       0.198  -4.497   2.685  0.00  0.00    +0.168 HD
ATOM     15  C   UNL     1      -0.328  -6.232   1.733  0.00  0.00    +0.055 A 
ATOM     16  C   UNL     1       0.166  -7.258   2.550  0.00  0.00    +0.027 A 
ATOM     17  C   UNL     1      -0.014  -8.577   2.205  0.00  0.00    +0.002 A 
ATOM     18  C   UNL     1      -0.684  -8.930   1.045  0.00  0.00    +0.001 A 
ATOM     19  C   UNL     1      -1.182  -7.936   0.221  0.00  0.00    +0.017 A 
ATOM     20  C   UNL     1      -1.003  -6.617   0.565  0.00  0.00    +0.039 A 
ATOM     21  S   UNL     1      -1.462  -5.067  -0.164  0.00  0.00    -0.052 S 
ENDBRANCH   9  11
ENDBRANCH   5   9
ENDBRANCH   1   5
BRANCH   2  22
ATOM     22  C   UNL     1      -3.456   1.665  -2.381  0.00  0.00    +0.205 C 
BRANCH  22  23
ATOM     23  N   UNL     1      -3.999   2.999  -2.114  0.00  0.00    -0.273 N 
ATOM     24  C   UNL     1      -5.341   3.128  -1.548  0.00  0.00    +0.214 C 
ATOM     25  N   UNL     1      -5.416   4.307  -0.677  0.00  0.00    -0.328 N 
ATOM     26  C   UNL     1      -4.826   5.494  -1.106  0.00  0.00    +0.044 A 
ATOM     27  C   UNL     1      -5.306   6.728  -0.707  0.00  0.00    +0.073 A 
ATOM     28  C   UNL     1      -4.678   7.884  -1.145  0.00  0.00    +0.163 A 
ATOM     29  C   UNL     1      -3.566   7.808  -1.985  0.00  0.00    +0.162 A 
ATOM     30  C   UNL     1      -3.083   6.582  -2.394  0.00  0.00    +0.064 A 
ATOM     31  C   UNL     1      -3.714   5.414  -1.962  0.00  0.00    +0.061 A 
ATOM     32  C   UNL     1      -3.249   4.085  -2.389  0.00  0.00    +0.250 C 
ATOM     33  O   UNL     1      -2.198   3.968  -2.990  0.00  0.00    -0.270 OA
ATOM     34  H   UNL     1      -5.867   4.260   0.180  0.00  0.00    +0.148 HD
BRANCH  29  35
ATOM     35  O   UNL     1      -2.954   8.950  -2.403  0.00  0.00    -0.491 OA
ATOM     36  C   UNL     1      -1.821   8.802  -3.260  0.00  0.00    +0.277 C 
ENDBRANCH  29  35
BRANCH  28  37
ATOM     37  O   UNL     1      -5.149   9.097  -0.756  0.00  0.00    -0.491 OA
ATOM     38  C   UNL     1      -6.291   9.104   0.103  0.00  0.00    +0.277 C 
ENDBRANCH  28  37
ENDBRANCH  22  23
ENDBRANCH   2  22
TORSDOF 8
