REMARK  Name = ZINC39639225
REMARK  10 active torsions:
REMARK  status: ('A' for Active; 'I' for Inactive)
REMARK    1  A    between atoms: C_1  and  C_2
REMARK    2  A    between atoms: C_2  and  C_3
REMARK    3  A    between atoms: C_3  and  C_4
REMARK    4  A    between atoms: C_4  and  C_6
REMARK    5  A    between atoms: C_4  and  C_7
REMARK    6  A    between atoms: C_11  and  C_20
REMARK    7  A    between atoms: N_22  and  C_23
REMARK    8  A    between atoms: C_23  and  C_25
REMARK    9  A    between atoms: C_23  and  C_26
REMARK   10  A    between atoms: C_29  and  C_32
REMARK                            x       y       z     vdW  Elec       q    Type
REMARK                         _______ _______ _______ _____ _____    ______ ____
ROOT
ATOM      1  C   UNL     1       1.049  -2.466   2.596  0.00  0.00    +0.218 C 
ATOM      2  O   UNL     1       1.291  -1.747   3.542  0.00  0.00    -0.275 OA
ATOM      3  N   UNL     1       1.330  -3.783   2.660  0.00  0.00    -0.300 N 
ATOM      4  C   UNL     1       1.216  -4.789   1.579  0.00  0.00    +0.121 C 
ATOM      5  C   UNL     1       2.454  -5.697   1.759  0.00  0.00    +0.100 C 
ATOM      6  C   UNL     1       2.846  -5.537   3.237  0.00  0.00    -0.004 C 
ATOM      7  C   UNL     1       1.829  -4.549   3.827  0.00  0.00    +0.115 C 
ATOM      8  C   UNL     1       4.255  -4.965   3.351  0.00  0.00    -0.010 C 
ATOM      9  C   UNL     1       4.644  -4.869   4.829  0.00  0.00    -0.082 C 
ATOM     10  N   UNL     1       4.585  -6.202   5.440  0.00  0.00    +0.379 N 
ATOM     11  C   UNL     1       3.207  -6.707   5.409  0.00  0.00    -0.082 C 
ATOM     12  C   UNL     1       2.757  -6.880   3.956  0.00  0.00    -0.010 C 
ATOM     13  H   UNL     1       5.184  -6.833   4.928  0.00  0.00    -0.086 HD
ATOM     14  H   UNL     1       4.900  -6.147   6.397  0.00  0.00    -0.086 HD
ENDROOT
BRANCH   5  15
ATOM     15  C   UNL     1       3.575  -5.238   0.863  0.00  0.00    +0.219 C 
ATOM     16  O   UNL     1       3.633  -4.080   0.508  0.00  0.00    -0.275 OA
ATOM     17  N   UNL     1       4.515  -6.115   0.457  0.00  0.00    -0.308 N 
ATOM     18  H   UNL     1       4.469  -7.042   0.741  0.00  0.00    +0.149 HD
BRANCH  17  19
ATOM     19  C   UNL     1       5.606  -5.669  -0.414  0.00  0.00    +0.100 C 
ATOM     20  C   UNL     1       6.732  -5.083   0.440  0.00  0.00    +0.033 C 
BRANCH  19  21
ATOM     21  C   UNL     1       6.130  -6.842  -1.202  0.00  0.00    -0.027 A 
ATOM     22  C   UNL     1       6.262  -8.078  -0.597  0.00  0.00    +0.006 A 
ATOM     23  C   UNL     1       6.744  -9.153  -1.320  0.00  0.00    +0.004 A 
ATOM     24  C   UNL     1       7.093  -8.992  -2.648  0.00  0.00    -0.050 A 
ATOM     25  C   UNL     1       6.961  -7.756  -3.253  0.00  0.00    +0.004 A 
ATOM     26  C   UNL     1       6.475  -6.682  -2.531  0.00  0.00    +0.006 A 
ATOM     27  C   UNL     1       7.619 -10.164  -3.436  0.00  0.00    +0.044 C 
ENDBRANCH  19  21
ENDBRANCH  17  19
ENDBRANCH   5  15
BRANCH   1  28
ATOM     28  C   UNL     1       0.435  -1.887   1.348  0.00  0.00    +0.072 C 
ATOM     29  C   UNL     1       0.966  -0.469   1.128  0.00  0.00    +0.017 C 
BRANCH  28  30
ATOM     30  C   UNL     1      -1.087  -1.843   1.501  0.00  0.00    +0.012 C 
BRANCH  30  32
ATOM     31  C   UNL     1      -3.240  -1.329   0.343  0.00  0.00    +0.004 C 
ATOM     32  C   UNL     1      -1.718  -1.372   0.189  0.00  0.00    -0.003 C 
ENDBRANCH  30  32
ENDBRANCH  28  30
ENDBRANCH   1  28
TORSDOF 6
