REMARK  Name = ZINC63686514
REMARK  11 active torsions:
REMARK  status: ('A' for Active; 'I' for Inactive)
REMARK    1  A    between atoms: C_1  and  C_2
REMARK    2  A    between atoms: C_5  and  O_9
REMARK    3  A    between atoms: C_7  and  C_8
REMARK    4  A    between atoms: O_9  and  C_10
REMARK    5  A    between atoms: C_10  and  C_11
REMARK    6  A    between atoms: N_13  and  C_14
REMARK    7  A    between atoms: C_18  and  S_20
REMARK    8  A    between atoms: S_20  and  C_21
REMARK    9  A    between atoms: C_21  and  C_22
REMARK   10  A    between atoms: C_26  and  C_34
REMARK   11  A    between atoms: C_28  and  C_33
REMARK                            x       y       z     vdW  Elec       q    Type
REMARK                         _______ _______ _______ _____ _____    ______ ____
ROOT
ATOM      1  C   UNL     1      -1.269  -8.242  -0.828  0.00  0.00    +0.242 C 
ATOM      2  N   UNL     1      -0.848  -8.732  -2.160  0.00  0.00    -0.237 N 
ATOM      3  N   UNL     1      -1.700  -9.641  -2.747  0.00  0.00    -0.171 NA
ATOM      4  C   UNL     1      -2.797 -10.052  -2.189  0.00  0.00    +0.152 C 
ATOM      5  S   UNL     1      -2.840  -9.179  -0.630  0.00  0.00    -0.054 S 
ATOM      6  H   UNL     1      -0.031  -8.434  -2.589  0.00  0.00    +0.171 HD
ENDROOT
BRANCH   1   9
ATOM      7  C   UNL     1      -1.682  -6.131   0.316  0.00  0.00    +0.253 C 
ATOM      8  O   UNL     1      -1.642  -6.729   1.371  0.00  0.00    -0.272 OA
ATOM      9  N   UNL     1      -1.508  -6.797  -0.843  0.00  0.00    -0.284 N 
ATOM     10  H   UNL     1      -1.540  -6.319  -1.686  0.00  0.00    +0.151 HD
BRANCH   7  11
ATOM     11  C   UNL     1      -1.928  -4.645   0.301  0.00  0.00    +0.324 C 
BRANCH  11  12
ATOM     12  O   UNL     1      -2.081  -4.174   1.642  0.00  0.00    -0.483 OA
BRANCH  12  17
ATOM     13  C   UNL     1      -3.035   1.335   2.323  0.00  0.00    +0.044 C 
ATOM     14  C   UNL     1      -2.779  -0.139   2.141  0.00  0.00    -0.047 A 
ATOM     15  C   UNL     1      -2.621  -0.660   0.870  0.00  0.00    +0.007 A 
ATOM     16  C   UNL     1      -2.387  -2.010   0.700  0.00  0.00    +0.046 A 
ATOM     17  C   UNL     1      -2.310  -2.844   1.806  0.00  0.00    +0.121 A 
ATOM     18  C   UNL     1      -2.469  -2.319   3.080  0.00  0.00    +0.049 A 
ATOM     19  C   UNL     1      -2.697  -0.966   3.245  0.00  0.00    -0.044 A 
ATOM     20  C   UNL     1      -2.864  -0.394   4.629  0.00  0.00    +0.044 C 
ENDBRANCH  12  17
ENDBRANCH  11  12
ENDBRANCH   7  11
ENDBRANCH   1   9
BRANCH   4  21
ATOM     21  S   UNL     1      -3.972 -11.203  -2.822  0.00  0.00    -0.091 S 
BRANCH  21  22
ATOM     22  C   UNL     1      -3.292 -11.682  -4.434  0.00  0.00    +0.129 C 
BRANCH  22  23
ATOM     23  C   UNL     1      -4.212 -12.678  -5.091  0.00  0.00    +0.030 A 
ATOM     24  N   UNL     1      -4.229 -13.953  -4.631  0.00  0.00    -0.357 N 
ATOM     25  C   UNL     1      -5.046 -14.911  -5.188  0.00  0.00    +0.051 A 
ATOM     26  C   UNL     1      -5.055 -16.217  -4.708  0.00  0.00    +0.029 A 
ATOM     27  C   UNL     1      -5.885 -17.151  -5.287  0.00  0.00    -0.048 A 
ATOM     28  C   UNL     1      -6.713 -16.805  -6.346  0.00  0.00    +0.007 A 
ATOM     29  C   UNL     1      -6.720 -15.527  -6.832  0.00  0.00    -0.037 A 
ATOM     30  C   UNL     1      -5.888 -14.566  -6.260  0.00  0.00    +0.048 A 
ATOM     31  C   UNL     1      -5.863 -13.178  -6.753  0.00  0.00    +0.190 A 
ATOM     32  O   UNL     1      -6.573 -12.825  -7.680  0.00  0.00    -0.287 OA
ATOM     33  C   UNL     1      -4.992 -12.265  -6.112  0.00  0.00    +0.073 A 
ATOM     34  C   UNL     1      -7.622 -15.160  -7.982  0.00  0.00    +0.044 C 
ATOM     35  C   UNL     1      -5.894 -18.566  -4.766  0.00  0.00    +0.044 C 
ATOM     36  H   UNL     1      -3.650 -14.196  -3.892  0.00  0.00    +0.166 HD
ENDBRANCH  22  23
ENDBRANCH  21  22
ENDBRANCH   4  21
TORSDOF 7
