REMARK  Name = ZINC59418288
REMARK  7 active torsions:
REMARK  status: ('A' for Active; 'I' for Inactive)
REMARK    1  A    between atoms: C_1  and  N_2
REMARK    2  A    between atoms: N_2  and  C_3
REMARK    3  A    between atoms: N_2  and  C_4
REMARK    4  A    between atoms: C_7  and  C_11
REMARK    5  A    between atoms: N_12  and  N_13
REMARK    6  A    between atoms: N_20  and  C_21
REMARK    7  A    between atoms: N_27  and  C_28
REMARK                            x       y       z     vdW  Elec       q    Type
REMARK                         _______ _______ _______ _____ _____    ______ ____
ROOT
ATOM      1  N   UNL     1      -1.117  -3.171  -6.527  0.00  0.00    -0.205 N 
ATOM      2  C   UNL     1      -2.241  -3.401  -7.295  0.00  0.00    +0.241 A 
ATOM      3  N   UNL     1      -3.402  -3.678  -6.708  0.00  0.00    -0.179 NA
ATOM      4  C   UNL     1      -4.484  -3.899  -7.447  0.00  0.00    +0.225 A 
ATOM      5  N   UNL     1      -4.406  -3.844  -8.774  0.00  0.00    -0.181 NA
ATOM      6  C   UNL     1      -3.246  -3.568  -9.360  0.00  0.00    +0.225 A 
ATOM      7  N   UNL     1      -2.164  -3.341  -8.621  0.00  0.00    -0.179 NA
ATOM      8  N   UNL     1      -3.164  -3.511 -10.738  0.00  0.00    -0.283 N 
ATOM      9  N   UNL     1      -5.691  -4.186  -6.838  0.00  0.00    -0.283 N 
ATOM     10  H   UNL     1      -0.255  -3.046  -6.954  0.00  0.00    +0.177 HD
ATOM     11  H   UNL     1      -3.968  -3.592 -11.275  0.00  0.00    +0.155 HD
ATOM     12  H   UNL     1      -5.771  -4.133  -5.873  0.00  0.00    +0.155 HD
ENDROOT
BRANCH   8  13
ATOM     13  C   UNL     1      -1.923  -3.338 -11.359  0.00  0.00    +0.034 A 
ATOM     14  C   UNL     1      -0.774  -3.852 -10.773  0.00  0.00    +0.023 A 
ATOM     15  C   UNL     1       0.450  -3.679 -11.389  0.00  0.00    +0.002 A 
ATOM     16  C   UNL     1       0.532  -2.996 -12.588  0.00  0.00    +0.000 A 
ATOM     17  C   UNL     1      -0.611  -2.482 -13.174  0.00  0.00    +0.002 A 
ATOM     18  C   UNL     1      -1.838  -2.656 -12.566  0.00  0.00    +0.023 A 
ENDBRANCH   8  13
BRANCH   9  19
ATOM     19  C   UNL     1      -6.795  -4.553  -7.612  0.00  0.00    +0.034 A 
ATOM     20  C   UNL     1      -6.616  -5.290  -8.776  0.00  0.00    +0.023 A 
ATOM     21  C   UNL     1      -7.709  -5.651  -9.539  0.00  0.00    +0.002 A 
ATOM     22  C   UNL     1      -8.982  -5.280  -9.145  0.00  0.00    +0.000 A 
ATOM     23  C   UNL     1      -9.164  -4.546  -7.987  0.00  0.00    +0.002 A 
ATOM     24  C   UNL     1      -8.075  -4.187  -7.217  0.00  0.00    +0.023 A 
ENDBRANCH   9  19
BRANCH   1  26
ATOM     25  C   UNL     1      -0.186  -2.803  -4.414  0.00  0.00    +0.138 C 
ATOM     26  N   UNL     1      -1.221  -3.118  -5.131  0.00  0.00    -0.188 NA
BRANCH  25  30
ATOM     27  C   UNL     1      -0.409  -2.957  -0.176  0.00  0.00    +0.043 A 
ATOM     28  C   UNL     1       0.805  -2.686  -0.798  0.00  0.00    +0.025 A 
ATOM     29  C   UNL     1       0.881  -2.635  -2.173  0.00  0.00    +0.011 A 
ATOM     30  C   UNL     1      -0.264  -2.857  -2.943  0.00  0.00    -0.004 A 
ATOM     31  C   UNL     1      -1.482  -3.129  -2.316  0.00  0.00    +0.026 A 
ATOM     32  C   UNL     1      -1.550  -3.184  -0.940  0.00  0.00    +0.039 A 
ATOM     33 BR   UNL     1      -3.196  -3.560  -0.089  0.00  0.00    -0.048 Br
BRANCH  27  35
ATOM     34  C   UNL     1      -0.787  -1.795   1.979  0.00  0.00    +0.129 C 
ATOM     35  N   UNL     1      -0.481  -3.008   1.216  0.00  0.00    -0.335 N 
ATOM     36  C   UNL     1      -0.253  -4.275   1.916  0.00  0.00    +0.129 C 
ENDBRANCH  27  35
ENDBRANCH  25  30
ENDBRANCH   1  26
TORSDOF 5
