REMARK  Name = ZINC06198356
REMARK  8 active torsions:
REMARK  status: ('A' for Active; 'I' for Inactive)
REMARK    1  A    between atoms: C_1  and  C_2
REMARK    2  A    between atoms: C_2  and  C_3
REMARK    3  A    between atoms: C_10  and  C_15
REMARK    4  A    between atoms: C_15  and  C_17
REMARK    5  A    between atoms: C_15  and  N_63
REMARK    6  A    between atoms: N_21  and  C_22
REMARK    7  A    between atoms: C_22  and  C_23
REMARK    8  A    between atoms: C_31  and  C_34
REMARK                            x       y       z     vdW  Elec       q    Type
REMARK                         _______ _______ _______ _____ _____    ______ ____
ROOT
ATOM      1  C   UNL     1       4.237   2.963  -1.744  0.00  0.00    +0.039 C 
ENDROOT
BRANCH   1   9
ATOM      2  C   UNL     1       9.411  -0.423  -1.525  0.00  0.00    -0.047 A 
ATOM      3  C   UNL     1      10.283   0.638  -1.321  0.00  0.00    +0.005 A 
ATOM      4  C   UNL     1       9.812   1.930  -1.243  0.00  0.00    +0.026 A 
ATOM      5  C   UNL     1       8.448   2.176  -1.367  0.00  0.00    +0.049 A 
ATOM      6  C   UNL     1       7.567   1.098  -1.572  0.00  0.00    -0.001 A 
ATOM      7  C   UNL     1       8.069  -0.205  -1.649  0.00  0.00    +0.013 A 
ATOM      8  C   UNL     1       6.134   1.367  -1.696  0.00  0.00    +0.017 A 
ATOM      9  C   UNL     1       5.706   2.651  -1.617  0.00  0.00    +0.011 A 
ATOM     10  C   UNL     1       6.631   3.697  -1.410  0.00  0.00    +0.251 A 
ATOM     11  O   UNL     1       6.225   4.844  -1.338  0.00  0.00    -0.268 OA
ATOM     12  N   UNL     1       7.949   3.459  -1.291  0.00  0.00    -0.322 N 
ATOM     13  H   UNL     1       8.577   4.224  -1.145  0.00  0.00    +0.169 HD
BRANCH   2  15
ATOM     14  C   UNL     1      10.290  -2.159  -3.062  0.00  0.00    +0.009 C 
ATOM     15  C   UNL     1       9.951  -1.828  -1.608  0.00  0.00    +0.032 C 
ENDBRANCH   2  15
ENDBRANCH   1   9
BRANCH   1  22
ATOM     16  C   UNL     1       4.641   3.329  -4.103  0.00  0.00    -0.077 C 
ATOM     17  C   UNL     1       4.527   4.359  -5.229  0.00  0.00    -0.015 C 
ATOM     18  C   UNL     1       3.050   4.678  -5.477  0.00  0.00    -0.018 C 
ATOM     19  C   UNL     1       2.422   5.190  -4.178  0.00  0.00    -0.015 C 
ATOM     20  C   UNL     1       2.596   4.136  -3.083  0.00  0.00    -0.077 C 
ATOM     21  C   UNL     1       2.933   5.752  -6.560  0.00  0.00    +0.007 C 
ATOM     22  N   UNL     1       4.039   3.893  -2.876  0.00  0.00    +0.389 N 
ATOM     23  H   UNL     1       4.499   4.785  -2.659  0.00  0.00    -0.080 HD
ENDBRANCH   1  22
BRANCH   1  24
ATOM     24  C   UNL     1       3.470   1.685  -1.968  0.00  0.00    +0.143 A 
ATOM     25  N   UNL     1       3.414   0.990  -3.078  0.00  0.00    -0.115 NA
ATOM     26  N   UNL     1       2.658  -0.032  -2.870  0.00  0.00    -0.023 NA
ATOM     27  N   UNL     1       2.235  -0.010  -1.654  0.00  0.00    -0.044 NA
ATOM     28  N   UNL     1       2.709   1.036  -1.067  0.00  0.00    -0.226 N 
BRANCH  28  29
ATOM     29  C   UNL     1       2.470   1.439   0.320  0.00  0.00    +0.182 C 
BRANCH  29  30
ATOM     30  C   UNL     1       1.256   2.330   0.382  0.00  0.00    -0.026 A 
ATOM     31  C   UNL     1       0.002   1.778   0.569  0.00  0.00    +0.005 A 
ATOM     32  C   UNL     1      -1.112   2.595   0.621  0.00  0.00    +0.000 A 
ATOM     33  C   UNL     1      -0.971   3.964   0.495  0.00  0.00    +0.000 A 
ATOM     34  C   UNL     1       0.282   4.516   0.309  0.00  0.00    +0.000 A 
ATOM     35  C   UNL     1       1.396   3.699   0.253  0.00  0.00    +0.005 A 
ENDBRANCH  29  30
ENDBRANCH  28  29
ENDBRANCH   1  24
TORSDOF 6
