REMARK  Name = ZINC33537259
REMARK  6 active torsions:
REMARK  status: ('A' for Active; 'I' for Inactive)
REMARK    1  A    between atoms: C_6  and  N_7
REMARK    2  A    between atoms: C_8  and  C_10
REMARK    3  A    between atoms: C_13  and  CA_15
REMARK    4  A    between atoms: CA_15  and  C_17
REMARK    5  A    between atoms: CA_15  and  N_19
REMARK    6  A    between atoms: C_17  and  O_18
REMARK                            x       y       z     vdW  Elec       q    Type
REMARK                         _______ _______ _______ _____ _____    ______ ____
ROOT
ATOM      1  C   UNL     1       2.052   0.671  -0.007  0.00  0.00    +0.164 A 
ATOM      2  C   UNL     1       1.253   1.773   0.005  0.00  0.00    +0.230 A 
ATOM      3  O   UNL     1      -0.016   1.336   0.025  0.00  0.00    -0.449 OA
ATOM      4  C   UNL     1       0.002  -0.005   0.024  0.00  0.00    +0.184 A 
ATOM      5  N   UNL     1       1.235  -0.416   0.005  0.00  0.00    -0.210 NA
ENDROOT
BRANCH   1   7
ATOM      6  N   UNL     1       4.190  -0.514  -0.040  0.00  0.00    -0.280 N 
ATOM      7  C   UNL     1       3.526   0.659  -0.030  0.00  0.00    +0.270 C 
ATOM      8  O   UNL     1       4.143   1.707  -0.039  0.00  0.00    -0.268 OA
ATOM      9  H   UNL     1       3.636  -1.460   0.045  0.00  0.00    +0.155 HD
BRANCH   6  15
ATOM     10  C   UNL     1       6.212  -1.548  -0.861  0.00  0.00    +0.024 A 
ATOM     11  C   UNL     1       7.588  -1.555  -0.982  0.00  0.00    +0.016 A 
ATOM     12  C   UNL     1       8.341  -0.555  -0.393  0.00  0.00    +0.013 A 
ATOM     13  C   UNL     1       7.718   0.459   0.312  0.00  0.00    +0.016 A 
ATOM     14  C   UNL     1       6.342   0.475   0.431  0.00  0.00    +0.024 A 
ATOM     15  C   UNL     1       5.583  -0.528  -0.158  0.00  0.00    +0.034 A 
ATOM     16  I   UNL     1      10.428  -0.575  -0.572  0.00  0.00    -0.044 I 
ENDBRANCH   6  15
ENDBRANCH   1   7
BRANCH   4  17
ATOM     17  CA  UNL     1      -1.214  -0.894   0.043  0.00  0.00    +0.039 C 
BRANCH  17  18
ATOM     18  N   UNL     1      -2.172  -0.392   1.037  0.00  0.00    +0.387 N 
ATOM     19  H1  UNL     1      -3.060  -1.042   1.051  0.00  0.00    -0.089 HD
ATOM     20  H2  UNL     1      -2.471   0.633   0.773  0.00  0.00    -0.089 HD
ATOM     21  H3  UNL     1      -1.702  -0.393   2.031  0.00  0.00    -0.089 HD
ENDBRANCH  17  18
BRANCH  17  22
ATOM     22  C   UNL     1      -1.868  -0.893  -1.341  0.00  0.00    +0.149 C 
BRANCH  22  23
ATOM     23  O   UNL     1      -2.951  -1.825  -1.356  0.00  0.00    -0.396 OA
ATOM     24  H   UNL     1      -3.544  -1.964  -2.272  0.00  0.00    +0.209 HD
ENDBRANCH  22  23
ENDBRANCH  17  22
ENDBRANCH   4  17
TORSDOF 6
