REMARK  Name = ZINC02385525
REMARK  6 active torsions:
REMARK  status: ('A' for Active; 'I' for Inactive)
REMARK    1  A    between atoms: C_5  and  N_7
REMARK    2  A    between atoms: C_8  and  C_10
REMARK    3  A    between atoms: C_10  and  S_11
REMARK    4  A    between atoms: S_11  and  C_12
REMARK    5  A    between atoms: C_15  and  C_18
REMARK    6  A    between atoms: N_16  and  N_17
REMARK                            x       y       z     vdW  Elec       q    Type
REMARK                         _______ _______ _______ _____ _____    ______ ____
ROOT
ATOM      1  C   UNL     1       1.679   2.221  -0.167  0.00  0.00    +0.209 A 
ATOM      2  N   UNL     1       2.600   1.302   0.025  0.00  0.00    -0.121 NA
ATOM      3  N   UNL     1       3.763   1.846   0.070  0.00  0.00    -0.127 NA
ATOM      4  C   UNL     1       3.656   3.146  -0.082  0.00  0.00    +0.182 A 
ATOM      5  N   UNL     1       2.318   3.426  -0.238  0.00  0.00    -0.224 N 
ENDROOT
BRANCH   4   6
ATOM      6  C   UNL     1       4.765   4.124  -0.084  0.00  0.00    +0.021 A 
ATOM      7  C   UNL     1       6.080   3.693  -0.268  0.00  0.00    +0.013 A 
ATOM      8  C   UNL     1       7.109   4.611  -0.275  0.00  0.00    +0.021 A 
ATOM      9  C   UNL     1       6.841   5.957  -0.088  0.00  0.00    +0.041 A 
ATOM     10  C   UNL     1       5.539   6.390   0.100  0.00  0.00    +0.021 A 
ATOM     11  C   UNL     1       4.501   5.482   0.103  0.00  0.00    +0.013 A 
ATOM     12 CL   UNL     1       8.143   7.106  -0.090  0.00  0.00    -0.084 Cl
ENDBRANCH   4   6
BRANCH   5  13
ATOM     13  N   UNL     1       1.748   4.653  -0.425  0.00  0.00    -0.295 N 
ATOM     14  H   UNL     1       1.593   5.118   0.457  0.00  0.00    +0.163 HD
ATOM     15  H   UNL     1       2.309   5.223  -1.040  0.00  0.00    +0.163 HD
ENDBRANCH   5  13
BRANCH   1  16
ATOM     16  S   UNL     1      -0.057   1.949  -0.300  0.00  0.00    -0.075 S 
BRANCH  16  17
ATOM     17  C   UNL     1      -0.108   0.150  -0.110  0.00  0.00    +0.173 C 
BRANCH  17  19
ATOM     18  N   UNL     1      -1.820  -1.636  -0.076  0.00  0.00    -0.283 N 
ATOM     19  C   UNL     1      -1.537  -0.323  -0.192  0.00  0.00    +0.228 C 
ATOM     20  O   UNL     1      -2.432   0.478  -0.362  0.00  0.00    -0.275 OA
ATOM     21  H   UNL     1      -1.101  -2.283  -0.013  0.00  0.00    +0.155 HD
BRANCH  18  26
ATOM     22  C   UNL     1      -5.431  -1.816  -0.752  0.00  0.00    +0.002 A 
ATOM     23  C   UNL     1      -5.788  -2.912   0.012  0.00  0.00    +0.003 A 
ATOM     24  C   UNL     1      -4.831  -3.586   0.748  0.00  0.00    +0.040 A 
ATOM     25  C   UNL     1      -3.514  -3.166   0.722  0.00  0.00    +0.144 A 
ATOM     26  C   UNL     1      -3.153  -2.064  -0.046  0.00  0.00    +0.069 A 
ATOM     27  C   UNL     1      -4.118  -1.387  -0.779  0.00  0.00    +0.026 A 
ATOM     28  F   UNL     1      -2.579  -3.825   1.441  0.00  0.00    -0.204 F 
ENDBRANCH  18  26
ENDBRANCH  17  19
ENDBRANCH  16  17
ENDBRANCH   1  16
TORSDOF 6
