REMARK  Name = ZINC59645239
REMARK  8 active torsions:
REMARK  status: ('A' for Active; 'I' for Inactive)
REMARK    1  A    between atoms: C_4  and  C_28
REMARK    2  A    between atoms: C_5  and  C_7
REMARK    3  A    between atoms: C_7  and  O_8
REMARK    4  A    between atoms: O_8  and  C_9
REMARK    5  A    between atoms: C_14  and  C_15
REMARK    6  A    between atoms: N_16  and  N_17
REMARK    7  A    between atoms: C_18  and  C_20
REMARK    8  A    between atoms: C_20  and  C_21
REMARK                            x       y       z     vdW  Elec       q    Type
REMARK                         _______ _______ _______ _____ _____    ______ ____
ROOT
ATOM      1  C   UNL     1      -0.286  -4.022   0.509  0.00  0.00    +0.130 A 
ATOM      2  C   UNL     1       0.813  -4.843   0.704  0.00  0.00    +0.047 A 
ATOM      3  C   UNL     1       0.657  -6.216   0.720  0.00  0.00    +0.019 A 
ATOM      4  C   UNL     1      -0.595  -6.781   0.543  0.00  0.00    +0.019 A 
ATOM      5  C   UNL     1      -1.700  -5.978   0.348  0.00  0.00    +0.028 A 
ATOM      6  C   UNL     1      -1.556  -4.588   0.335  0.00  0.00    +0.037 A 
ATOM      7 BR   UNL     1      -0.791  -8.662   0.568  0.00  0.00    -0.050 Br
ENDROOT
BRANCH   6   8
ATOM      8  C   UNL     1      -2.732  -3.723   0.134  0.00  0.00    +0.142 C 
ATOM      9  N   UNL     1      -2.602  -2.433   0.174  0.00  0.00    -0.188 NA
BRANCH   9  10
ATOM     10  N   UNL     1      -3.739  -1.614   0.152  0.00  0.00    -0.207 N 
ATOM     11  C   UNL     1      -3.604  -0.277   0.043  0.00  0.00    +0.238 C 
ATOM     12  O   UNL     1      -2.510   0.208  -0.155  0.00  0.00    -0.274 OA
ATOM     13  H   UNL     1      -4.623  -2.009   0.215  0.00  0.00    +0.177 HD
BRANCH  11  14
ATOM     14  C   UNL     1      -4.813   0.615   0.169  0.00  0.00    +0.153 C 
BRANCH  14  15
ATOM     15  C   UNL     1      -4.394   2.054   0.011  0.00  0.00    +0.059 A 
ATOM     16  C   UNL     1      -4.972   2.861  -0.910  0.00  0.00    +0.072 A 
ATOM     17  S   UNL     1      -4.085   4.384  -0.623  0.00  0.00    -0.061 S 
ATOM     18  C   UNL     1      -3.088   3.841   0.620  0.00  0.00    +0.156 A 
ATOM     19  N   UNL     1      -3.450   2.585   0.768  0.00  0.00    -0.230 NA
ATOM     20  N   UNL     1      -2.123   4.548   1.320  0.00  0.00    -0.338 N 
ATOM     21  H   UNL     1      -1.956   5.480   1.110  0.00  0.00    +0.144 HD
ATOM     22  H   UNL     1      -1.613   4.110   2.019  0.00  0.00    +0.144 HD
ENDBRANCH  14  15
ENDBRANCH  11  14
ENDBRANCH   9  10
ENDBRANCH   6   8
BRANCH   1  23
ATOM     23  O   UNL     1      -0.133  -2.672   0.493  0.00  0.00    -0.487 OA
BRANCH  23  24
ATOM     24  C   UNL     1       1.204  -2.170   0.529  0.00  0.00    +0.265 C 
BRANCH  24  29
ATOM     25  C   UNL     1      -0.064   1.364   0.935  0.00  0.00    +0.000 A 
ATOM     26  C   UNL     1       1.116   2.087   0.984  0.00  0.00    +0.001 A 
ATOM     27  C   UNL     1       2.330   1.440   0.886  0.00  0.00    +0.019 A 
ATOM     28  C   UNL     1       2.367   0.051   0.738  0.00  0.00    +0.058 A 
ATOM     29  C   UNL     1       1.173  -0.671   0.690  0.00  0.00    +0.007 A 
ATOM     30  C   UNL     1      -0.034  -0.011   0.789  0.00  0.00    +0.008 A 
BRANCH  28  31
ATOM     31  C   UNL     1       3.624  -0.627   0.635  0.00  0.00    +0.100 C 
ATOM     32  N   UNL     1       4.621  -1.166   0.553  0.00  0.00    -0.191 NA
ENDBRANCH  28  31
ENDBRANCH  24  29
ENDBRANCH  23  24
ENDBRANCH   1  23
TORSDOF 8
