REMARK  Name = ZINC13065072
REMARK  13 active torsions:
REMARK  status: ('A' for Active; 'I' for Inactive)
REMARK    1  A    between atoms: C_1  and  C_2
REMARK    2  A    between atoms: C_2  and  C_3
REMARK    3  A    between atoms: C_3  and  C_5
REMARK    4  A    between atoms: C_3  and  N_72
REMARK    5  A    between atoms: N_9  and  C_10
REMARK    6  A    between atoms: C_10  and  C_11
REMARK    7  A    between atoms: C_17  and  C_18
REMARK    8  A    between atoms: C_17  and  N_72
REMARK    9  A    between atoms: C_18  and  C_19
REMARK   10  A    between atoms: C_25  and  C_26
REMARK   11  A    between atoms: C_25  and  N_72
REMARK   12  A    between atoms: C_31  and  C_39
REMARK   13  A    between atoms: C_32  and  C_38
REMARK                            x       y       z     vdW  Elec       q    Type
REMARK                         _______ _______ _______ _____ _____    ______ ____
ROOT
ATOM      1  N   UNL     1       5.755   2.195  -1.994  0.00  0.00    +0.389 N 
ATOM      2  H   UNL     1       6.351   2.881  -1.516  0.00  0.00    -0.080 HD
ENDROOT
BRANCH   1   3
ATOM      3  C   UNL     1       4.368   2.341  -1.504  0.00  0.00    +0.003 C 
BRANCH   3   4
ATOM      4  C   UNL     1       3.507   1.213  -2.011  0.00  0.00    +0.138 A 
ATOM      5  N   UNL     1       3.730  -0.070  -1.860  0.00  0.00    -0.115 NA
ATOM      6  N   UNL     1       2.773  -0.711  -2.438  0.00  0.00    -0.023 NA
ATOM      7  N   UNL     1       1.943   0.130  -2.950  0.00  0.00    -0.044 NA
ATOM      8  N   UNL     1       2.359   1.327  -2.705  0.00  0.00    -0.226 N 
BRANCH   8   9
ATOM      9  C   UNL     1       1.708   2.575  -3.110  0.00  0.00    +0.182 C 
BRANCH   9  10
ATOM     10  C   UNL     1       0.746   3.012  -2.036  0.00  0.00    -0.026 A 
ATOM     11  C   UNL     1       1.179   3.839  -1.016  0.00  0.00    +0.005 A 
ATOM     12  C   UNL     1       0.296   4.240  -0.031  0.00  0.00    +0.000 A 
ATOM     13  C   UNL     1      -1.017   3.810  -0.062  0.00  0.00    +0.000 A 
ATOM     14  C   UNL     1      -1.450   2.987  -1.084  0.00  0.00    +0.000 A 
ATOM     15  C   UNL     1      -0.568   2.586  -2.070  0.00  0.00    +0.005 A 
ENDBRANCH   9  10
ENDBRANCH   8   9
ENDBRANCH   3   4
BRANCH   3  17
ATOM     16  C   UNL     1       5.147   3.544   0.543  0.00  0.00    +0.002 C 
ATOM     17  C   UNL     1       4.381   2.324   0.026  0.00  0.00    -0.011 C 
ENDBRANCH   3  17
ENDBRANCH   1   3
BRANCH   1  18
ATOM     18  C   UNL     1       5.806   2.447  -3.450  0.00  0.00    -0.073 C 
BRANCH  18  19
ATOM     19  C   UNL     1       5.536   3.931  -3.703  0.00  0.00    +0.016 C 
BRANCH  19  20
ATOM     20  C   UNL     1       5.552   4.199  -5.186  0.00  0.00    -0.049 A 
ATOM     21  C   UNL     1       6.748   4.457  -5.829  0.00  0.00    +0.003 A 
ATOM     22  C   UNL     1       6.764   4.697  -7.190  0.00  0.00    +0.000 A 
ATOM     23  C   UNL     1       5.582   4.691  -7.906  0.00  0.00    +0.000 A 
ATOM     24  C   UNL     1       4.385   4.439  -7.262  0.00  0.00    +0.000 A 
ATOM     25  C   UNL     1       4.370   4.193  -5.902  0.00  0.00    +0.003 A 
ENDBRANCH  19  20
ENDBRANCH  18  19
ENDBRANCH   1  18
BRANCH   1  26
ATOM     26  C   UNL     1       6.255   0.836  -1.699  0.00  0.00    -0.037 C 
BRANCH  26  27
ATOM     27  C   UNL     1       7.753   0.825  -1.863  0.00  0.00    +0.001 A 
ATOM     28  C   UNL     1       8.552   1.036  -0.788  0.00  0.00    +0.017 A 
ATOM     29  C   UNL     1      10.003   1.015  -0.981  0.00  0.00    -0.001 A 
ATOM     30  C   UNL     1      10.878   1.220   0.091  0.00  0.00    +0.010 A 
ATOM     31  C   UNL     1      12.227   1.199  -0.122  0.00  0.00    +0.004 A 
ATOM     32  C   UNL     1      12.738   0.975  -1.394  0.00  0.00    -0.046 A 
ATOM     33  C   UNL     1      11.895   0.769  -2.464  0.00  0.00    -0.024 A 
ATOM     34  C   UNL     1      10.517   0.786  -2.271  0.00  0.00    +0.052 A 
ATOM     35  N   UNL     1       9.650   0.583  -3.324  0.00  0.00    -0.322 N 
ATOM     36  H   UNL     1      10.006   0.426  -4.212  0.00  0.00    +0.169 HD
ATOM     37  C   UNL     1       8.319   0.600  -3.136  0.00  0.00    +0.251 A 
ATOM     38  O   UNL     1       7.582   0.416  -4.090  0.00  0.00    -0.268 OA
ATOM     39  C   UNL     1      12.462   0.525  -3.839  0.00  0.00    +0.046 C 
ATOM     40  C   UNL     1      14.230   0.955  -1.606  0.00  0.00    +0.044 C 
ENDBRANCH  26  27
ENDBRANCH   1  26
TORSDOF 10
