REMARK  Name = ZINC67120745
REMARK  12 active torsions:
REMARK  status: ('A' for Active; 'I' for Inactive)
REMARK    1  A    between atoms: C_1  and  C_2
REMARK    2  A    between atoms: N_7  and  C_9
REMARK    3  A    between atoms: C_9  and  C_11
REMARK    4  A    between atoms: C_9  and  C_12
REMARK    5  A    between atoms: C_12  and  N_13
REMARK    6  A    between atoms: N_13  and  C_14
REMARK    7  A    between atoms: C_14  and  C_15
REMARK    8  A    between atoms: C_17  and  O_27
REMARK    9  A    between atoms: C_18  and  O_22
REMARK   10  A    between atoms: O_22  and  C_23
REMARK   11  A    between atoms: C_23  and  C_24
REMARK   12  A    between atoms: O_27  and  C_28
REMARK                            x       y       z     vdW  Elec       q    Type
REMARK                         _______ _______ _______ _____ _____    ______ ____
ROOT
ATOM      1  C   UNL     1       2.532  -6.580   0.100  0.00  0.00    -0.029 A 
ATOM      2  C   UNL     1       1.857  -6.694  -1.101  0.00  0.00    +0.054 A 
ATOM      3  C   UNL     1       2.504  -7.204  -2.215  0.00  0.00    +0.163 A 
ATOM      4  C   UNL     1       3.834  -7.602  -2.121  0.00  0.00    +0.181 A 
ATOM      5  C   UNL     1       4.506  -7.485  -0.914  0.00  0.00    +0.086 A 
ATOM      6  C   UNL     1       3.855  -6.970   0.192  0.00  0.00    +0.028 A 
ATOM      7 CL   UNL     1       6.165  -7.981  -0.793  0.00  0.00    -0.080 Cl
ENDROOT
BRANCH   3   8
ATOM      8  O   UNL     1       1.841  -7.317  -3.397  0.00  0.00    -0.491 OA
ATOM      9  C   UNL     1       0.477  -6.890  -3.419  0.00  0.00    +0.277 C 
ENDBRANCH   3   8
BRANCH   1  10
ATOM     10  C   UNL     1       1.825  -6.025   1.310  0.00  0.00    +0.116 C 
BRANCH  10  11
ATOM     11  N   UNL     1       1.997  -4.566   1.350  0.00  0.00    -0.314 NA
ATOM     12  H   UNL     1       1.670  -4.140   0.496  0.00  0.00    +0.122 HD
BRANCH  11  13
ATOM     13  C   UNL     1       1.320  -3.989   2.519  0.00  0.00    +0.066 C 
BRANCH  13  14
ATOM     14  C   UNL     1       1.636  -2.495   2.605  0.00  0.00    -0.058 C 
ATOM     15  C   UNL     1       0.845  -1.871   3.757  0.00  0.00    -0.012 C 
BRANCH  14  21
ATOM     16  C   UNL     1      -2.100  -1.392  -0.360  0.00  0.00    +0.005 C 
ATOM     17  C   UNL     1      -0.582  -1.312  -0.181  0.00  0.00    -0.031 C 
ATOM     18  C   UNL     1      -0.139   0.153  -0.222  0.00  0.00    -0.001 C 
ATOM     19  C   UNL     1       1.369   0.228   0.036  0.00  0.00    -0.018 C 
ATOM     20  C   UNL     1       1.684  -0.436   1.378  0.00  0.00    -0.078 C 
ATOM     21  N   UNL     1       1.261  -1.841   1.344  0.00  0.00    +0.382 N 
ATOM     22  C   UNL     1      -0.194  -1.920   1.168  0.00  0.00    -0.075 C 
ATOM     23  H   UNL     1       1.717  -2.311   0.576  0.00  0.00    -0.081 HD
ENDBRANCH  14  21
ENDBRANCH  13  14
ENDBRANCH  11  13
ENDBRANCH  10  11
ENDBRANCH   1  10
BRANCH   4  24
ATOM     24  O   UNL     1       4.474  -8.104  -3.212  0.00  0.00    -0.478 OA
BRANCH  24  25
ATOM     25  C   UNL     1       5.153  -7.170  -4.053  0.00  0.00    +0.324 C 
BRANCH  25  26
ATOM     26  C   UNL     1       5.797  -7.904  -5.201  0.00  0.00    +0.248 C 
ATOM     27  O   UNL     1       5.686  -9.108  -5.289  0.00  0.00    -0.272 OA
ATOM     28  N   UNL     1       6.497  -7.221  -6.129  0.00  0.00    -0.327 N 
ATOM     29  H   UNL     1       6.585  -6.258  -6.059  0.00  0.00    +0.145 HD
ATOM     30  H   UNL     1       6.912  -7.694  -6.868  0.00  0.00    +0.145 HD
ENDBRANCH  25  26
ENDBRANCH  24  25
ENDBRANCH   4  24
TORSDOF 9
