REMARK  Name = ZINC59644857
REMARK  9 active torsions:
REMARK  status: ('A' for Active; 'I' for Inactive)
REMARK    1  A    between atoms: C_1  and  O_2
REMARK    2  A    between atoms: O_2  and  C_3
REMARK    3  A    between atoms: C_5  and  C_19
REMARK    4  A    between atoms: C_8  and  O_9
REMARK    5  A    between atoms: O_9  and  C_10
REMARK    6  A    between atoms: C_10  and  C_11
REMARK    7  A    between atoms: N_20  and  N_21
REMARK    8  A    between atoms: C_22  and  C_24
REMARK    9  A    between atoms: C_24  and  C_25
REMARK                            x       y       z     vdW  Elec       q    Type
REMARK                         _______ _______ _______ _____ _____    ______ ____
ROOT
ATOM      1  C   UNL     1       0.626  -0.619   1.042  0.00  0.00    +0.164 A 
ATOM      2  C   UNL     1       1.200   0.137   2.048  0.00  0.00    +0.059 A 
ATOM      3  C   UNL     1       1.840  -0.497   3.115  0.00  0.00    -0.000 A 
ATOM      4  C   UNL     1       1.898  -1.893   3.162  0.00  0.00    +0.033 A 
ATOM      5  C   UNL     1       1.323  -2.640   2.155  0.00  0.00    +0.087 A 
ATOM      6  C   UNL     1       0.682  -2.009   1.097  0.00  0.00    +0.181 A 
ATOM      7 CL   UNL     1       1.394  -4.374   2.214  0.00  0.00    -0.080 Cl
ENDROOT
BRANCH   1   9
ATOM      8  C   UNL     1      -0.017   1.425   0.010  0.00  0.00    +0.277 C 
ATOM      9  O   UNL     1       0.002  -0.004   0.002  0.00  0.00    -0.491 OA
ENDBRANCH   1   9
BRANCH   3  10
ATOM     10  C   UNL     1       2.454   0.303   4.190  0.00  0.00    +0.138 C 
ATOM     11  N   UNL     1       3.049  -0.287   5.181  0.00  0.00    -0.188 NA
BRANCH  11  12
ATOM     12  N   UNL     1       3.632   0.474   6.202  0.00  0.00    -0.207 N 
ATOM     13  C   UNL     1       4.250  -0.140   7.231  0.00  0.00    +0.238 C 
ATOM     14  O   UNL     1       4.300  -1.351   7.274  0.00  0.00    -0.274 OA
ATOM     15  H   UNL     1       3.592   1.442   6.169  0.00  0.00    +0.177 HD
BRANCH  13  16
ATOM     16  C   UNL     1       4.877   0.679   8.330  0.00  0.00    +0.153 C 
BRANCH  16  17
ATOM     17  C   UNL     1       5.496  -0.240   9.351  0.00  0.00    +0.059 A 
ATOM     18  C   UNL     1       6.798  -0.127   9.708  0.00  0.00    +0.072 A 
ATOM     19  S   UNL     1       6.931  -1.443  10.907  0.00  0.00    -0.061 S 
ATOM     20  C   UNL     1       5.341  -1.992  10.828  0.00  0.00    +0.156 A 
ATOM     21  N   UNL     1       4.792  -1.190   9.941  0.00  0.00    -0.230 NA
ATOM     22  N   UNL     1       4.753  -3.031  11.531  0.00  0.00    -0.338 N 
ATOM     23  H   UNL     1       5.277  -3.545  12.165  0.00  0.00    +0.144 HD
ATOM     24  H   UNL     1       3.818  -3.245  11.389  0.00  0.00    +0.144 HD
ENDBRANCH  16  17
ENDBRANCH  13  16
ENDBRANCH  11  12
ENDBRANCH   3  10
BRANCH   6  25
ATOM     25  O   UNL     1       0.112  -2.750   0.110  0.00  0.00    -0.482 OA
BRANCH  25  26
ATOM     26  C   UNL     1       0.937  -3.086  -1.008  0.00  0.00    +0.264 C 
BRANCH  26  27
ATOM     27  C   UNL     1       0.141  -3.903  -1.993  0.00  0.00    -0.010 A 
ATOM     28  C   UNL     1       0.116  -5.281  -1.886  0.00  0.00    +0.008 A 
ATOM     29  C   UNL     1      -0.615  -6.031  -2.788  0.00  0.00    +0.015 A 
ATOM     30  C   UNL     1      -1.320  -5.402  -3.799  0.00  0.00    +0.018 A 
ATOM     31  C   UNL     1      -1.294  -4.023  -3.905  0.00  0.00    +0.015 A 
ATOM     32  C   UNL     1      -0.568  -3.274  -2.999  0.00  0.00    +0.008 A 
ATOM     33 BR   UNL     1      -2.319  -6.427  -5.034  0.00  0.00    -0.050 Br
ENDBRANCH  26  27
ENDBRANCH  25  26
ENDBRANCH   6  25
TORSDOF 8
