REMARK  Name = ZINC21266469
REMARK  10 active torsions:
REMARK  status: ('A' for Active; 'I' for Inactive)
REMARK    1  A    between atoms: C_1  and  O_2
REMARK    2  A    between atoms: O_2  and  C_3
REMARK    3  A    between atoms: C_6  and  C_9
REMARK    4  A    between atoms: C_12  and  S_15
REMARK    5  A    between atoms: N_13  and  N_14
REMARK    6  A    between atoms: S_15  and  C_16
REMARK    7  A    between atoms: C_16  and  C_17
REMARK    8  A    between atoms: N_19  and  C_20
REMARK    9  A    between atoms: C_20  and  C_21
REMARK   10  A    between atoms: C_24  and  C_26
REMARK                            x       y       z     vdW  Elec       q    Type
REMARK                         _______ _______ _______ _____ _____    ______ ____
ROOT
ATOM      1  C   UNL     1       2.466   0.510  -0.661  0.00  0.00    +0.173 C 
ENDROOT
BRANCH   1   2
ATOM      2  C   UNL     1       1.095   1.093  -0.888  0.00  0.00    +0.224 C 
ATOM      3  O   UNL     1       0.943   2.297  -0.904  0.00  0.00    -0.275 OA
ATOM      4  N   UNL     1       0.037   0.278  -1.072  0.00  0.00    -0.308 N 
ATOM      5  H   UNL     1       0.174  -0.813  -1.053  0.00  0.00    +0.149 HD
BRANCH   4   6
ATOM      6  C   UNL     1      -1.294   0.846  -1.298  0.00  0.00    +0.178 C 
BRANCH   6   7
ATOM      7  C   UNL     1      -2.291  -0.270  -1.480  0.00  0.00    +0.123 A 
ATOM      8  C   UNL     1      -2.998  -0.860  -0.497  0.00  0.00    +0.047 A 
ATOM      9  C   UNL     1      -3.804  -1.845  -1.102  0.00  0.00    +0.050 A 
ATOM     10  C   UNL     1      -3.542  -1.801  -2.435  0.00  0.00    +0.135 A 
ATOM     11  O   UNL     1      -2.627  -0.837  -2.651  0.00  0.00    -0.458 OA
BRANCH  10  12
ATOM     12  C   UNL     1      -4.160  -2.657  -3.469  0.00  0.00    +0.017 A 
ATOM     13  C   UNL     1      -5.101  -3.623  -3.108  0.00  0.00    +0.013 A 
ATOM     14  C   UNL     1      -5.678  -4.416  -4.079  0.00  0.00    +0.021 A 
ATOM     15  C   UNL     1      -5.317  -4.263  -5.407  0.00  0.00    +0.041 A 
ATOM     16  C   UNL     1      -4.380  -3.310  -5.770  0.00  0.00    +0.021 A 
ATOM     17  C   UNL     1      -3.800  -2.508  -4.809  0.00  0.00    +0.013 A 
ATOM     18 CL   UNL     1      -6.041  -5.270  -6.621  0.00  0.00    -0.084 Cl
ENDBRANCH  10  12
ENDBRANCH   6   7
ENDBRANCH   4   6
ENDBRANCH   1   2
BRANCH   1  19
ATOM     19  S   UNL     1       3.664   1.850  -0.449  0.00  0.00    -0.075 S 
BRANCH  19  23
ATOM     20  C   UNL     1       7.207   0.309   0.136  0.00  0.00    +0.182 A 
ATOM     21  N   UNL     1       6.448  -0.754   0.001  0.00  0.00    -0.127 NA
ATOM     22  N   UNL     1       5.229  -0.401  -0.197  0.00  0.00    -0.121 NA
ATOM     23  C   UNL     1       5.135   0.910  -0.209  0.00  0.00    +0.209 A 
ATOM     24  N   UNL     1       6.389   1.407   0.006  0.00  0.00    -0.224 N 
BRANCH  20  28
ATOM     25  C   UNL     1      11.396   0.348   0.844  0.00  0.00    +0.120 A 
ATOM     26  C   UNL     1      10.643   1.490   1.083  0.00  0.00    +0.046 A 
ATOM     27  C   UNL     1       9.283   1.481   0.855  0.00  0.00    +0.015 A 
ATOM     28  C   UNL     1       8.664   0.323   0.382  0.00  0.00    +0.021 A 
ATOM     29  C   UNL     1       9.425  -0.825   0.148  0.00  0.00    +0.015 A 
ATOM     30  C   UNL     1      10.784  -0.806   0.374  0.00  0.00    +0.046 A 
BRANCH  25  32
ATOM     31  C   UNL     1      13.450  -0.847   0.804  0.00  0.00    +0.277 C 
ATOM     32  O   UNL     1      12.736   0.361   1.071  0.00  0.00    -0.495 OA
ENDBRANCH  25  32
ENDBRANCH  20  28
BRANCH  24  33
ATOM     33  N   UNL     1       6.754   2.722   0.077  0.00  0.00    -0.295 N 
ATOM     34  H   UNL     1       5.997   3.510  -0.045  0.00  0.00    +0.163 HD
ATOM     35  H   UNL     1       7.806   2.991   0.256  0.00  0.00    +0.163 HD
ENDBRANCH  24  33
ENDBRANCH  19  23
ENDBRANCH   1  19
TORSDOF 9
