REMARK  Name = ZINC05314426
REMARK  4 active torsions:
REMARK  status: ('A' for Active; 'I' for Inactive)
REMARK    1  A    between atoms: C_3  and  C_9
REMARK    2  A    between atoms: N_10  and  N_11
REMARK    3  A    between atoms: C_12  and  C_14
REMARK    4  A    between atoms: C_16  and  C_20
REMARK                            x       y       z     vdW  Elec       q    Type
REMARK                         _______ _______ _______ _____ _____    ______ ____
ROOT
ATOM      1  N   UNL     1       4.752   4.033  -0.020  0.00  0.00    -0.202 N 
ATOM      2  C   UNL     1       5.931   3.380  -0.034  0.00  0.00    +0.281 C 
ATOM      3  O   UNL     1       5.953   2.164  -0.041  0.00  0.00    -0.267 OA
ATOM      4  H   UNL     1       4.734   5.003  -0.015  0.00  0.00    +0.178 HD
ENDROOT
BRANCH   2   5
ATOM      5  C   UNL     1       7.191   4.139  -0.042  0.00  0.00    +0.122 A 
ATOM      6  C   UNL     1       8.463   3.609  -0.050  0.00  0.00    +0.063 A 
ATOM      7  C   UNL     1       9.370   4.682  -0.058  0.00  0.00    +0.100 A 
ATOM      8  N   UNL     1       8.684   5.808  -0.046  0.00  0.00    -0.173 NA
ATOM      9  N   UNL     1       7.318   5.501  -0.035  0.00  0.00    -0.272 N 
ATOM     10  H   UNL     1       6.567   6.161  -0.025  0.00  0.00    +0.189 HD
BRANCH   7  11
ATOM     11  C   UNL     1      10.845   4.567  -0.072  0.00  0.00    +0.041 A 
ATOM     12  C   UNL     1      11.786   5.560  -0.081  0.00  0.00    +0.019 A 
ATOM     13  C   UNL     1      13.120   5.209  -0.090  0.00  0.00    +0.028 A 
ATOM     14  C   UNL     1      13.457   3.893  -0.099  0.00  0.00    +0.079 A 
ATOM     15  S   UNL     1      11.859   3.098  -0.088  0.00  0.00    -0.075 S 
ATOM     16 CL   UNL     1      15.035   3.171  -0.118  0.00  0.00    -0.076 Cl
ENDBRANCH   7  11
ENDBRANCH   2   5
BRANCH   1  18
ATOM     17  C   UNL     1       2.416   3.939   0.000  0.00  0.00    +0.139 C 
ATOM     18  N   UNL     1       3.551   3.311  -0.013  0.00  0.00    -0.187 NA
BRANCH  17  21
ATOM     19  C   UNL     1      -1.250   3.135   0.030  0.00  0.00    +0.021 A 
ATOM     20  C   UNL     1      -0.071   3.852   0.022  0.00  0.00    +0.012 A 
ATOM     21  C   UNL     1       1.152   3.179   0.008  0.00  0.00    +0.013 A 
ATOM     22  C   UNL     1       1.174   1.781   0.000  0.00  0.00    +0.051 A 
ATOM     23  C   UNL     1      -0.013   1.076   0.008  0.00  0.00    +0.040 A 
ATOM     24  C   UNL     1      -1.222   1.750   0.017  0.00  0.00    +0.042 A 
ATOM     25 CL   UNL     1      -2.710   0.857   0.020  0.00  0.00    -0.083 Cl
ATOM     26 CL   UNL     1       2.689   0.934  -0.018  0.00  0.00    -0.083 Cl
ENDBRANCH  17  21
ENDBRANCH   1  18
TORSDOF 4
