REMARK  Name = ZINC08801703
REMARK  11 active torsions:
REMARK  status: ('A' for Active; 'I' for Inactive)
REMARK    1  A    between atoms: C_1  and  C_2
REMARK    2  A    between atoms: C_2  and  C_3
REMARK    3  A    between atoms: C_6  and  O_31
REMARK    4  A    between atoms: C_7  and  S_9
REMARK    5  A    between atoms: S_9  and  N_12
REMARK    6  A    between atoms: N_12  and  C_13
REMARK    7  A    between atoms: C_13  and  C_14
REMARK    8  A    between atoms: C_14  and  C_16
REMARK    9  A    between atoms: C_14  and  N_67
REMARK   10  A    between atoms: N_24  and  C_25
REMARK   11  A    between atoms: O_31  and  C_32
REMARK                            x       y       z     vdW  Elec       q    Type
REMARK                         _______ _______ _______ _____ _____    ______ ____
ROOT
ATOM      1  C   UNL     1      -2.672   0.188   7.606  0.00  0.00    -0.022 C 
ENDROOT
BRANCH   1   2
ATOM      2  C   UNL     1      -2.429   1.210   8.687  0.00  0.00    -0.059 A 
ATOM      3  C   UNL     1      -1.158   1.716   8.889  0.00  0.00    +0.004 A 
ATOM      4  C   UNL     1      -0.932   2.653   9.875  0.00  0.00    +0.023 A 
ATOM      5  C   UNL     1      -1.981   3.089  10.682  0.00  0.00    +0.033 A 
ATOM      6  C   UNL     1      -3.254   2.574  10.472  0.00  0.00    -0.025 A 
ATOM      7  C   UNL     1      -3.476   1.639   9.482  0.00  0.00    +0.007 A 
ATOM      8  C   UNL     1      -4.192   3.223  11.470  0.00  0.00    +0.056 C 
ATOM      9  C   UNL     1      -3.378   4.440  11.964  0.00  0.00    +0.109 C 
ATOM     10  N   UNL     1      -1.981   4.009  11.738  0.00  0.00    -0.332 N 
ATOM     11  C   UNL     1      -1.118   5.158  11.435  0.00  0.00    +0.129 C 
ENDBRANCH   1   2
BRANCH   1  17
ATOM     12  C   UNL     1      -1.708  -1.719   6.467  0.00  0.00    -0.078 C 
ATOM     13  C   UNL     1      -0.458  -2.596   6.370  0.00  0.00    -0.019 C 
ATOM     14  C   UNL     1      -0.260  -3.342   7.693  0.00  0.00    -0.004 C 
ATOM     15  C   UNL     1      -0.148  -2.324   8.831  0.00  0.00    -0.019 C 
ATOM     16  C   UNL     1      -1.407  -1.454   8.857  0.00  0.00    -0.078 C 
ATOM     17  N   UNL     1      -1.527  -0.746   7.565  0.00  0.00    +0.385 N 
ATOM     18  H   UNL     1      -0.667  -0.211   7.397  0.00  0.00    -0.081 HD
ENDBRANCH   1  17
BRANCH   1  19
ATOM     19  C   UNL     1      -2.786   0.893   6.253  0.00  0.00    +0.095 C 
BRANCH  19  20
ATOM     20  N   UNL     1      -3.935   1.802   6.272  0.00  0.00    -0.191 NA
ATOM     21  H   UNL     1      -4.610   1.716   6.963  0.00  0.00    +0.148 HD
BRANCH  20  22
ATOM     22  S   UNL     1      -4.082   2.974   5.112  0.00  0.00    +0.062 S 
ATOM     23  O   UNL     1      -2.827   3.639   5.045  0.00  0.00    -0.153 OA
ATOM     24  O   UNL     1      -5.295   3.663   5.382  0.00  0.00    -0.153 OA
BRANCH  22  29
ATOM     25  C   UNL     1      -5.661   1.651   1.662  0.00  0.00    -0.046 A 
ATOM     26  C   UNL     1      -4.648   0.865   1.143  0.00  0.00    +0.007 A 
ATOM     27  C   UNL     1      -3.457   0.730   1.829  0.00  0.00    +0.048 A 
ATOM     28  C   UNL     1      -3.281   1.373   3.046  0.00  0.00    +0.146 A 
ATOM     29  C   UNL     1      -4.301   2.155   3.567  0.00  0.00    +0.147 A 
ATOM     30  C   UNL     1      -5.489   2.292   2.874  0.00  0.00    +0.036 A 
BRANCH  25  32
ATOM     31  C   UNL     1      -6.863   3.004  -0.032  0.00  0.00    +0.009 C 
ATOM     32  C   UNL     1      -6.957   1.802   0.909  0.00  0.00    +0.032 C 
ENDBRANCH  25  32
BRANCH  28  33
ATOM     33  O   UNL     1      -2.112   1.237   3.725  0.00  0.00    -0.493 OA
ATOM     34  C   UNL     1      -1.106   0.416   3.128  0.00  0.00    +0.277 C 
ENDBRANCH  28  33
ENDBRANCH  22  29
ENDBRANCH  20  22
ENDBRANCH  19  20
ENDBRANCH   1  19
TORSDOF 8
