REMARK  Name = ZINC64626343
REMARK  7 active torsions:
REMARK  status: ('A' for Active; 'I' for Inactive)
REMARK    1  A    between atoms: C_1  and  C_2
REMARK    2  A    between atoms: C_3  and  C_25
REMARK    3  A    between atoms: C_12  and  C_14
REMARK    4  A    between atoms: C_14  and  C_15
REMARK    5  A    between atoms: C_15  and  C_16
REMARK    6  A    between atoms: C_25  and  N_26
REMARK    7  A    between atoms: C_27  and  C_29
REMARK                            x       y       z     vdW  Elec       q    Type
REMARK                         _______ _______ _______ _____ _____    ______ ____
ROOT
ATOM      1  C   UNL     1      -0.018   1.503   0.010  0.00  0.00    +0.066 C 
ATOM      2  C   UNL     1       0.002  -0.004   0.002  0.00  0.00    +0.043 A 
ATOM      3  C   UNL     1       0.006  -0.681  -1.201  0.00  0.00    -0.006 A 
ATOM      4  C   UNL     1       0.028  -2.072  -1.201  0.00  0.00    -0.033 A 
ATOM      5  C   UNL     1       0.052  -2.726   0.012  0.00  0.00    -0.008 A 
ATOM      6  C   UNL     1       0.040  -1.980   1.181  0.00  0.00    +0.116 A 
ATOM      7  N   UNL     1       0.022  -0.663   1.144  0.00  0.00    -0.260 NA
ATOM      8  C   UNL     1       0.104  -4.228   0.117  0.00  0.00    +0.144 C 
ATOM      9  N   UNL     1      -0.159  -4.820  -1.200  0.00  0.00    -0.297 N 
ATOM     10  C   UNL     1       0.522  -4.225  -2.361  0.00  0.00    +0.113 C 
ATOM     11  C   UNL     1       0.018  -2.791  -2.521  0.00  0.00    +0.055 C 
ATOM     12  C   UNL     1      -0.993  -5.870  -1.341  0.00  0.00    +0.216 C 
ATOM     13  O   UNL     1      -1.194  -6.341  -2.440  0.00  0.00    -0.276 OA
ENDROOT
BRANCH  12  14
ATOM     14  C   UNL     1      -1.675  -6.457  -0.132  0.00  0.00    +0.100 C 
BRANCH  14  15
ATOM     15  C   UNL     1      -2.559  -7.629  -0.565  0.00  0.00    +0.042 C 
BRANCH  15  16
ATOM     16  C   UNL     1      -3.242  -8.216   0.643  0.00  0.00    -0.041 C 
ATOM     17  C   UNL     1      -4.482  -7.925   1.099  0.00  0.00    -0.001 A 
ATOM     18  C   UNL     1      -5.526  -7.009   0.625  0.00  0.00    +0.010 A 
ATOM     19  C   UNL     1      -6.691  -6.933   1.306  0.00  0.00    +0.001 A 
ATOM     20  C   UNL     1      -6.926  -7.705   2.453  0.00  0.00    +0.002 A 
ATOM     21  C   UNL     1      -6.016  -8.569   2.949  0.00  0.00    +0.026 A 
ATOM     22  C   UNL     1      -4.755  -8.730   2.311  0.00  0.00    +0.043 A 
ATOM     23  N   UNL     1      -3.724  -9.489   2.594  0.00  0.00    -0.380 N 
ATOM     24  C   UNL     1      -2.681  -9.255   1.589  0.00  0.00    +0.144 C 
ATOM     25  H   UNL     1      -3.662 -10.104   3.341  0.00  0.00    +0.160 HD
ENDBRANCH  15  16
ENDBRANCH  14  15
ENDBRANCH  12  14
BRANCH   3  26
ATOM     26  C   UNL     1      -0.015   0.080  -2.502  0.00  0.00    +0.142 C 
BRANCH  26  27
ATOM     27  N   UNL     1       1.359   0.349  -2.933  0.00  0.00    -0.307 N 
ATOM     28  C   UNL     1       1.587   1.022  -4.078  0.00  0.00    +0.244 C 
ATOM     29  O   UNL     1       0.652   1.405  -4.754  0.00  0.00    -0.270 OA
ATOM     30  H   UNL     1       2.105   0.043  -2.393  0.00  0.00    +0.149 HD
BRANCH  28  31
ATOM     31  C   UNL     1       2.971   1.293  -4.512  0.00  0.00    +0.040 A 
ATOM     32  C   UNL     1       4.047   0.848  -3.739  0.00  0.00    +0.017 A 
ATOM     33  C   UNL     1       5.338   1.102  -4.146  0.00  0.00    +0.050 A 
ATOM     34  C   UNL     1       5.576   1.799  -5.323  0.00  0.00    +0.166 A 
ATOM     35  C   UNL     1       4.506   2.247  -6.099  0.00  0.00    +0.167 A 
ATOM     36  C   UNL     1       3.209   1.990  -5.699  0.00  0.00    +0.062 A 
ATOM     37  O   UNL     1       5.003   2.897  -7.192  0.00  0.00    -0.453 OA
ATOM     38  C   UNL     1       6.373   3.199  -6.869  0.00  0.00    +0.466 C 
ATOM     39  O   UNL     1       6.739   2.169  -5.931  0.00  0.00    -0.453 OA
ENDBRANCH  28  31
ENDBRANCH  26  27
ENDBRANCH   3  26
TORSDOF 6
