REMARK  Name = ZINC01436877
REMARK  4 active torsions:
REMARK  status: ('A' for Active; 'I' for Inactive)
REMARK    1  A    between atoms: C_3  and  S_22
REMARK    2  A    between atoms: C_6  and  C_7
REMARK    3  A    between atoms: N_12  and  C_13
REMARK    4  A    between atoms: S_22  and  N_25
REMARK                            x       y       z     vdW  Elec       q    Type
REMARK                         _______ _______ _______ _____ _____    ______ ____
ROOT
ATOM      1  C   UNL     1       7.075   1.132   0.241  0.00  0.00    +0.080 A 
ATOM      2  C   UNL     1       6.887  -0.221   0.217  0.00  0.00    +0.076 A 
ATOM      3  S   UNL     1       5.106  -0.308   0.079  0.00  0.00    -0.060 S 
ATOM      4  C   UNL     1       4.795   1.452   0.067  0.00  0.00    +0.163 A 
ATOM      5  N   UNL     1       6.020   1.938   0.160  0.00  0.00    -0.225 NA
ATOM      6  N   UNL     1       3.589   2.128  -0.023  0.00  0.00    -0.294 N 
ATOM      7  H   UNL     1       3.579   3.094  -0.110  0.00  0.00    +0.154 HD
ENDROOT
BRANCH   6   8
ATOM      8  C   UNL     1       2.384   1.417   0.014  0.00  0.00    +0.036 A 
ATOM      9  C   UNL     1       2.282   0.262   0.777  0.00  0.00    +0.027 A 
ATOM     10  C   UNL     1       1.093  -0.441   0.814  0.00  0.00    +0.051 A 
ATOM     11  C   UNL     1      -0.001   0.005   0.090  0.00  0.00    +0.166 A 
ATOM     12  C   UNL     1       0.097   1.163  -0.676  0.00  0.00    +0.168 A 
ATOM     13  C   UNL     1       1.289   1.867  -0.713  0.00  0.00    +0.072 A 
ATOM     14  O   UNL     1      -1.105   1.389  -1.283  0.00  0.00    -0.453 OA
ATOM     15  C   UNL     1      -1.811   0.135  -1.212  0.00  0.00    +0.466 C 
ATOM     16  O   UNL     1      -1.265  -0.498  -0.040  0.00  0.00    -0.453 OA
ENDBRANCH   6   8
BRANCH   1  22
ATOM     17  C   UNL     1       9.545   0.847   0.435  0.00  0.00    +0.012 A 
ATOM     18  C   UNL     1      10.815   1.378   0.532  0.00  0.00    +0.029 A 
ATOM     19  C   UNL     1      10.995   2.749   0.556  0.00  0.00    +0.106 A 
ATOM     20  C   UNL     1       9.904   3.596   0.476  0.00  0.00    +0.029 A 
ATOM     21  C   UNL     1       8.630   3.077   0.374  0.00  0.00    +0.012 A 
ATOM     22  C   UNL     1       8.443   1.696   0.350  0.00  0.00    +0.001 A 
BRANCH  19  23
ATOM     23  S   UNL     1      12.619   3.420   0.687  0.00  0.00    +0.061 S 
ATOM     24  O   UNL     1      13.509   2.426   0.197  0.00  0.00    -0.153 OA
ATOM     25  O   UNL     1      12.563   4.730   0.140  0.00  0.00    -0.153 OA
BRANCH  23  26
ATOM     26  N   UNL     1      12.947   3.595   2.301  0.00  0.00    -0.177 NA
ATOM     27  C   UNL     1      12.620   4.846   3.000  0.00  0.00    +0.109 C 
ATOM     28  C   UNL     1      11.762   4.509   4.229  0.00  0.00    +0.017 C 
ATOM     29  C   UNL     1      12.498   3.481   5.091  0.00  0.00    +0.003 C 
ATOM     30  C   UNL     1      12.711   2.197   4.287  0.00  0.00    +0.017 C 
ATOM     31  C   UNL     1      13.575   2.505   3.060  0.00  0.00    +0.109 C 
ENDBRANCH  23  26
ENDBRANCH  19  23
ENDBRANCH   1  22
TORSDOF 4
