REMARK  Name = ZINC33828909
REMARK  16 active torsions:
REMARK  status: ('A' for Active; 'I' for Inactive)
REMARK    1  A    between atoms: C_1  and  C_2
REMARK    2  A    between atoms: C_2  and  C_4
REMARK    3  A    between atoms: C_2  and  N_19
REMARK    4  A    between atoms: N_14  and  C_15
REMARK    5  A    between atoms: C_15  and  C_16
REMARK    6  A    between atoms: C_16  and  O_17
REMARK    7  A    between atoms: O_17  and  C_18
REMARK    8  A    between atoms: N_19  and  C_20
REMARK    9  A    between atoms: C_20  and  C_21
REMARK   10  A    between atoms: C_21  and  C_22
REMARK   11  A    between atoms: C_22  and  C_23
REMARK   12  A    between atoms: C_23  and  C_24
REMARK   13  A    between atoms: C_24  and  C_25
REMARK   14  A    between atoms: C_25  and  N_26
REMARK   15  A    between atoms: C_27  and  C_29
REMARK   16  A    between atoms: C_33  and  N_35
REMARK                            x       y       z     vdW  Elec       q    Type
REMARK                         _______ _______ _______ _____ _____    ______ ____
ROOT
ATOM      1  N   UNL     1       0.836   2.907  -0.430  0.00  0.00    -0.288 N 
ATOM      2  C   UNL     1       1.248   3.389   0.760  0.00  0.00    +0.247 C 
ATOM      3  O   UNL     1       0.724   4.381   1.228  0.00  0.00    -0.270 OA
ENDROOT
BRANCH   2   4
ATOM      4  C   UNL     1       2.336   2.711   1.495  0.00  0.00    +0.039 A 
ATOM      5  C   UNL     1       2.395   1.317   1.532  0.00  0.00    +0.013 A 
ATOM      6  C   UNL     1       3.414   0.690   2.219  0.00  0.00    +0.003 A 
ATOM      7  C   UNL     1       4.376   1.441   2.872  0.00  0.00    +0.033 A 
ATOM      8  C   UNL     1       4.323   2.823   2.840  0.00  0.00    +0.127 A 
ATOM      9  C   UNL     1       3.313   3.462   2.151  0.00  0.00    +0.045 A 
BRANCH   8  10
ATOM     10  N   UNL     1       5.357   3.618   3.540  0.00  0.00    +0.056 N 
ATOM     11  O   UNL     1       6.252   3.055   4.145  0.00  0.00    -0.126 OA
ATOM     12  O   UNL     1       5.312   4.835   3.513  0.00  0.00    -0.126 OA
ENDBRANCH   8  10
ENDBRANCH   2   4
BRANCH   1  14
ATOM     13  C   UNL     1       0.000   0.718   0.270  0.00  0.00    +0.036 C 
ATOM     14  C   UNL     1       0.910   1.470  -0.703  0.00  0.00    +0.139 C 
BRANCH  14  15
ATOM     15  C   UNL     1       2.331   0.998  -0.529  0.00  0.00    +0.133 A 
ATOM     16  N   UNL     1       3.257   1.889  -0.342  0.00  0.00    -0.232 NA
ATOM     17  C   UNL     1       4.557   1.539  -0.177  0.00  0.00    +0.078 A 
ATOM     18  C   UNL     1       5.553   2.496   0.025  0.00  0.00    +0.028 A 
ATOM     19  C   UNL     1       6.860   2.096   0.188  0.00  0.00    +0.002 A 
ATOM     20  C   UNL     1       7.202   0.750   0.154  0.00  0.00    +0.001 A 
ATOM     21  C   UNL     1       6.237  -0.213  -0.044  0.00  0.00    +0.015 A 
ATOM     22  C   UNL     1       4.908   0.171  -0.212  0.00  0.00    +0.065 A 
ATOM     23  C   UNL     1       3.835  -0.811  -0.426  0.00  0.00    +0.262 A 
ATOM     24  O   UNL     1       4.070  -2.005  -0.467  0.00  0.00    -0.267 OA
ATOM     25  N   UNL     1       2.576  -0.337  -0.571  0.00  0.00    -0.292 N 
BRANCH  25  26
ATOM     26  C   UNL     1       1.468  -1.272  -0.782  0.00  0.00    +0.154 C 
BRANCH  26  27
ATOM     27  C   UNL     1       1.295  -1.530  -2.280  0.00  0.00    +0.181 C 
BRANCH  27  28
ATOM     28  O   UNL     1       2.454  -2.196  -2.786  0.00  0.00    -0.381 OA
ATOM     29  C   UNL     1       2.394  -2.485  -4.184  0.00  0.00    +0.194 C 
ENDBRANCH  27  28
ENDBRANCH  26  27
ENDBRANCH  25  26
ENDBRANCH  14  15
ENDBRANCH   1  14
BRANCH   1  30
ATOM     30  C   UNL     1       0.314   3.821  -1.449  0.00  0.00    +0.109 C 
BRANCH  30  31
ATOM     31  C   UNL     1      -1.176   4.065  -1.201  0.00  0.00    +0.019 C 
BRANCH  31  32
ATOM     32  C   UNL     1      -1.721   5.019  -2.265  0.00  0.00    +0.001 C 
BRANCH  32  33
ATOM     33  C   UNL     1      -3.211   5.263  -2.017  0.00  0.00    -0.002 C 
BRANCH  33  34
ATOM     34  C   UNL     1      -3.756   6.217  -3.081  0.00  0.00    -0.020 C 
BRANCH  34  35
ATOM     35  C   UNL     1      -5.246   6.460  -2.833  0.00  0.00    -0.086 C 
BRANCH  35  36
ATOM     36  N   UNL     1      -5.769   7.377  -3.855  0.00  0.00    +0.378 N 
ATOM     37  H   UNL     1      -6.841   7.552  -3.677  0.00  0.00    -0.090 HD
ATOM     38  H   UNL     1      -5.632   6.932  -4.852  0.00  0.00    -0.090 HD
ATOM     39  H   UNL     1      -5.228   8.333  -3.803  0.00  0.00    -0.090 HD
ENDBRANCH  35  36
ENDBRANCH  34  35
ENDBRANCH  33  34
ENDBRANCH  32  33
ENDBRANCH  31  32
ENDBRANCH  30  31
ENDBRANCH   1  30
TORSDOF 14
