REMARK  Name = ZINC50445288
REMARK  5 active torsions:
REMARK  status: ('A' for Active; 'I' for Inactive)
REMARK    1  A    between atoms: C_4  and  S_10
REMARK    2  A    between atoms: C_5  and  N_7
REMARK    3  A    between atoms: S_10  and  C_12
REMARK    4  A    between atoms: C_12  and  C_13
REMARK    5  A    between atoms: C_18  and  N_19
REMARK                            x       y       z     vdW  Elec       q    Type
REMARK                         _______ _______ _______ _____ _____    ______ ____
ROOT
ATOM      1  S   UNL     1       3.846  -0.676   0.960  0.00  0.00    +0.060 S 
ATOM      2  O   UNL     1       3.836  -1.937   0.305  0.00  0.00    -0.252 OA
ENDROOT
BRANCH   1   6
ATOM      3  C   UNL     1       0.023   1.309  -0.430  0.00  0.00    +0.002 A 
ATOM      4  C   UNL     1       1.139   2.076  -0.155  0.00  0.00    +0.001 A 
ATOM      5  C   UNL     1       2.307   1.470   0.270  0.00  0.00    +0.019 A 
ATOM      6  C   UNL     1       2.358   0.097   0.420  0.00  0.00    +0.069 A 
ATOM      7  C   UNL     1       1.241  -0.670   0.145  0.00  0.00    +0.142 A 
ATOM      8  C   UNL     1       0.074  -0.064  -0.281  0.00  0.00    +0.034 A 
BRANCH   7   9
ATOM      9  N   UNL     1       1.296  -2.141   0.305  0.00  0.00    +0.058 N 
ATOM     10  O   UNL     1       0.805  -2.858  -0.535  0.00  0.00    -0.126 OA
ATOM     11  O   UNL     1       1.831  -2.624   1.275  0.00  0.00    -0.126 OA
ENDBRANCH   7   9
ENDBRANCH   1   6
BRANCH   1  12
ATOM     12  C   UNL     1       3.595  -0.916   2.740  0.00  0.00    +0.146 C 
BRANCH  12  13
ATOM     13  C   UNL     1       4.811  -1.578   3.334  0.00  0.00    -0.014 A 
ATOM     14  C   UNL     1       4.891  -2.956   3.389  0.00  0.00    +0.008 A 
ATOM     15  C   UNL     1       6.006  -3.565   3.934  0.00  0.00    +0.020 A 
ATOM     16  C   UNL     1       7.047  -2.796   4.427  0.00  0.00    +0.043 A 
ATOM     17  C   UNL     1       6.972  -1.417   4.376  0.00  0.00    +0.043 A 
ATOM     18  C   UNL     1       5.855  -0.803   3.823  0.00  0.00    +0.030 A 
ATOM     19 CL   UNL     1       8.445  -3.564   5.110  0.00  0.00    -0.083 Cl
BRANCH  18  20
ATOM     20  N   UNL     1       5.779   0.590   3.764  0.00  0.00    -0.358 N 
ATOM     21  H   UNL     1       4.997   1.018   3.381  0.00  0.00    +0.142 HD
ATOM     22  H   UNL     1       6.509   1.131   4.105  0.00  0.00    +0.142 HD
ENDBRANCH  18  20
ENDBRANCH  12  13
ENDBRANCH   1  12
TORSDOF 5
