REMARK  Name = ZINC39675176
REMARK  13 active torsions:
REMARK  status: ('A' for Active; 'I' for Inactive)
REMARK    1  A    between atoms: C_1  and  C_2
REMARK    2  A    between atoms: C_2  and  C_3
REMARK    3  A    between atoms: C_3  and  C_4
REMARK    4  A    between atoms: C_4  and  C_6
REMARK    5  A    between atoms: C_4  and  C_7
REMARK    6  A    between atoms: C_11  and  C_20
REMARK    7  A    between atoms: N_22  and  C_23
REMARK    8  A    between atoms: C_23  and  C_25
REMARK    9  A    between atoms: C_23  and  C_26
REMARK   10  A    between atoms: C_26  and  C_27
REMARK   11  A    between atoms: C_27  and  C_28
REMARK   12  A    between atoms: C_31  and  O_34
REMARK   13  A    between atoms: O_34  and  C_35
REMARK                            x       y       z     vdW  Elec       q    Type
REMARK                         _______ _______ _______ _____ _____    ______ ____
ROOT
ATOM      1  C   UNL     1      -2.729  -2.500  -0.438  0.00  0.00    +0.218 C 
ATOM      2  O   UNL     1      -3.681  -1.792  -0.687  0.00  0.00    -0.275 OA
ATOM      3  N   UNL     1      -2.905  -3.824  -0.253  0.00  0.00    -0.300 N 
ATOM      4  C   UNL     1      -1.895  -4.824   0.169  0.00  0.00    +0.121 C 
ATOM      5  C   UNL     1      -2.656  -5.763   1.133  0.00  0.00    +0.100 C 
ATOM      6  C   UNL     1      -4.134  -5.618   0.736  0.00  0.00    -0.004 C 
ATOM      7  C   UNL     1      -4.152  -4.607  -0.419  0.00  0.00    +0.115 C 
ATOM      8  C   UNL     1      -4.947  -5.082   1.911  0.00  0.00    -0.010 C 
ATOM      9  C   UNL     1      -6.422  -5.001   1.511  0.00  0.00    -0.082 C 
ATOM     10  N   UNL     1      -6.901  -6.335   1.127  0.00  0.00    +0.379 N 
ATOM     11  C   UNL     1      -6.178  -6.804  -0.061  0.00  0.00    -0.082 C 
ATOM     12  C   UNL     1      -4.691  -6.961   0.273  0.00  0.00    -0.010 C 
ATOM     13  H   UNL     1      -6.747  -6.978   1.889  0.00  0.00    -0.086 HD
ATOM     14  H   UNL     1      -7.888  -6.290   0.922  0.00  0.00    -0.086 HD
ENDROOT
BRANCH   5  15
ATOM     15  C   UNL     1      -2.448  -5.329   2.561  0.00  0.00    +0.218 C 
ATOM     16  O   UNL     1      -2.188  -4.171   2.811  0.00  0.00    -0.275 OA
ATOM     17  N   UNL     1      -2.552  -6.228   3.560  0.00  0.00    -0.312 N 
ATOM     18  H   UNL     1      -2.760  -7.154   3.359  0.00  0.00    +0.149 HD
BRANCH  17  19
ATOM     19  C   UNL     1      -2.350  -5.806   4.948  0.00  0.00    +0.070 C 
ATOM     20  C   UNL     1      -3.661  -5.252   5.508  0.00  0.00    +0.028 C 
BRANCH  19  21
ATOM     21  C   UNL     1      -1.905  -7.007   5.786  0.00  0.00    +0.026 C 
BRANCH  21  22
ATOM     22  C   UNL     1      -0.533  -7.484   5.304  0.00  0.00    +0.037 C 
BRANCH  22  23
ATOM     23  C   UNL     1      -0.095  -8.666   6.130  0.00  0.00    -0.047 A 
ATOM     24  C   UNL     1       0.632  -8.467   7.289  0.00  0.00    +0.007 A 
ATOM     25  C   UNL     1       1.036  -9.550   8.047  0.00  0.00    +0.046 A 
ATOM     26  C   UNL     1       0.711 -10.837   7.644  0.00  0.00    +0.120 A 
ATOM     27  C   UNL     1      -0.019 -11.034   6.481  0.00  0.00    +0.046 A 
ATOM     28  C   UNL     1      -0.425  -9.948   5.729  0.00  0.00    +0.007 A 
BRANCH  26  29
ATOM     29  O   UNL     1       1.107 -11.903   8.388  0.00  0.00    -0.495 OA
ATOM     30  C   UNL     1       0.737 -13.199   7.913  0.00  0.00    +0.277 C 
ENDBRANCH  26  29
ENDBRANCH  22  23
ENDBRANCH  21  22
ENDBRANCH  19  21
ENDBRANCH  17  19
ENDBRANCH   5  15
BRANCH   1  31
ATOM     31  C   UNL     1      -1.350  -1.901  -0.334  0.00  0.00    +0.072 C 
ATOM     32  C   UNL     1      -1.448  -0.496   0.264  0.00  0.00    +0.017 C 
BRANCH  31  33
ATOM     33  C   UNL     1      -0.723  -1.820  -1.727  0.00  0.00    +0.012 C 
BRANCH  33  35
ATOM     34  C   UNL     1       1.348  -1.248  -3.002  0.00  0.00    +0.004 C 
ATOM     35  C   UNL     1       0.721  -1.329  -1.609  0.00  0.00    -0.003 C 
ENDBRANCH  33  35
ENDBRANCH  31  33
ENDBRANCH   1  31
TORSDOF 9
