REMARK  Name = ZINC58405457
REMARK  2 active torsions:
REMARK  status: ('A' for Active; 'I' for Inactive)
REMARK    1  A    between atoms: C_6  and  C_7
REMARK    2  A    between atoms: C_21  and  C_23
REMARK                            x       y       z     vdW  Elec       q    Type
REMARK                         _______ _______ _______ _____ _____    ______ ____
ROOT
ATOM      1  C   UNL     1      -0.550   0.625   0.670  0.00  0.00    +0.052 A 
ATOM      2  C   UNL     1       0.514   1.513   0.643  0.00  0.00    +0.116 A 
ATOM      3  N   UNL     1       1.740   1.047   0.467  0.00  0.00    -0.223 NA
ATOM      4  C   UNL     1       1.954  -0.252   0.318  0.00  0.00    +0.219 A 
ATOM      5  N   UNL     1       0.960  -1.127   0.339  0.00  0.00    -0.210 NA
ATOM      6  C   UNL     1      -0.289  -0.726   0.511  0.00  0.00    +0.149 A 
ATOM      7  N   UNL     1       3.249  -0.706   0.136  0.00  0.00    -0.285 N 
ATOM      8  C   UNL     1       4.456   0.124   0.094  0.00  0.00    +0.080 C 
ATOM      9  C   UNL     1       4.201   1.508  -0.459  0.00  0.00    +0.023 C 
ATOM     10  C   UNL     1       3.814   1.452  -1.937  0.00  0.00    +0.002 C 
ATOM     11  C   UNL     1       4.957   0.786  -2.711  0.00  0.00    +0.000 C 
ATOM     12  C   UNL     1       5.111  -0.650  -2.216  0.00  0.00    +0.005 C 
ATOM     13  C   UNL     1       5.476  -0.667  -0.745  0.00  0.00    +0.012 C 
ATOM     14  C   UNL     1       5.189  -2.117  -0.248  0.00  0.00    +0.037 C 
ATOM     15  C   UNL     1       3.658  -2.111  -0.044  0.00  0.00    +0.162 C 
ENDROOT
BRANCH  15  16
ATOM     16  C   UNL     1       2.979  -2.692  -1.257  0.00  0.00    +0.231 C 
ATOM     17  O   UNL     1       2.339  -1.974  -1.996  0.00  0.00    -0.274 OA
ATOM     18  N   UNL     1       3.082  -4.010  -1.521  0.00  0.00    -0.328 N 
ATOM     19  H   UNL     1       3.594  -4.584  -0.930  0.00  0.00    +0.145 HD
ATOM     20  H   UNL     1       2.644  -4.383  -2.302  0.00  0.00    +0.145 HD
ENDBRANCH  15  16
BRANCH   6  21
ATOM     21  C   UNL     1      -1.415  -1.728   0.534  0.00  0.00    +0.434 C 
ATOM     22  F   UNL     1      -2.638  -1.053   0.613  0.00  0.00    -0.164 F 
ATOM     23  F   UNL     1      -1.381  -2.494  -0.636  0.00  0.00    -0.164 F 
ATOM     24  F   UNL     1      -1.272  -2.566   1.645  0.00  0.00    -0.164 F 
ENDBRANCH   6  21
TORSDOF 2
