REMARK  Name = ZINC01719294
REMARK  1 active torsions:
REMARK  status: ('A' for Active; 'I' for Inactive)
REMARK    1  A    between atoms: C_1  and  C_2
REMARK                            x       y       z     vdW  Elec       q    Type
REMARK                         _______ _______ _______ _____ _____    ______ ____
ROOT
ATOM      1  C   UNL     1      -0.018   1.503   0.010  0.00  0.00    +0.090 C 
ATOM      2  C   UNL     1       0.002  -0.004   0.002  0.00  0.00    +0.153 A 
ATOM      3  N   UNL     1       0.008  -0.764  -1.057  0.00  0.00    -0.132 NA
ATOM      4  N   UNL     1       0.026  -2.004  -0.709  0.00  0.00    -0.120 NA
ATOM      5  C   UNL     1       0.033  -2.087   0.587  0.00  0.00    +0.219 A 
ATOM      6  N   UNL     1       0.024  -0.820   1.113  0.00  0.00    -0.190 N 
ATOM      7  N   UNL     1       0.035  -0.723   2.498  0.00  0.00    -0.148 NA
ATOM      8  C   UNL     1       0.056  -1.791   3.252  0.00  0.00    +0.169 A 
ATOM      9  S   UNL     1       0.052  -3.104   2.042  0.00  0.00    -0.019 S 
ATOM     10  S   UNL     1       0.074  -1.906   5.010  0.00  0.00    -0.021 SA
ENDROOT
TORSDOF 0
