REMARK  Name = ZINC34734867
REMARK  8 active torsions:
REMARK  status: ('A' for Active; 'I' for Inactive)
REMARK    1  A    between atoms: C_1  and  C_2
REMARK    2  A    between atoms: C_2  and  C_3
REMARK    3  A    between atoms: C_2  and  C_4
REMARK    4  A    between atoms: C_4  and  N_5
REMARK    5  A    between atoms: N_18  and  C_21
REMARK    6  A    between atoms: C_21  and  C_22
REMARK    7  A    between atoms: C_31  and  C_33
REMARK    8  A    between atoms: C_31  and  C_34
REMARK                            x       y       z     vdW  Elec       q    Type
REMARK                         _______ _______ _______ _____ _____    ______ ____
ROOT
ATOM      1  N   UNL     1      -1.375  -1.569  -0.389  0.00  0.00    -0.280 N 
ATOM      2  C   UNL     1      -1.407  -2.020  -1.656  0.00  0.00    +0.264 A 
ATOM      3  O   UNL     1      -1.356  -1.240  -2.591  0.00  0.00    -0.267 OA
ATOM      4  C   UNL     1      -1.502  -3.429  -1.891  0.00  0.00    +0.076 A 
ATOM      5  C   UNL     1      -1.552  -4.136  -3.168  0.00  0.00    -0.018 A 
ATOM      6  C   UNL     1      -1.642  -5.483  -3.123  0.00  0.00    +0.021 A 
ATOM      7  S   UNL     1      -1.663  -5.884  -1.399  0.00  0.00    -0.071 S 
ATOM      8  C   UNL     1      -1.553  -4.237  -0.742  0.00  0.00    +0.118 A 
ATOM      9  N   UNL     1      -1.518  -3.727   0.483  0.00  0.00    -0.208 NA
ATOM     10  C   UNL     1      -1.425  -2.426   0.670  0.00  0.00    +0.202 A 
ATOM     11  N   UNL     1      -1.384  -1.927   1.948  0.00  0.00    -0.304 N 
ATOM     12  C   UNL     1      -2.622  -1.597   2.671  0.00  0.00    +0.089 C 
ATOM     13  C   UNL     1      -2.571  -2.262   4.051  0.00  0.00    -0.059 C 
ATOM     14  N   UNL     1      -1.339  -1.860   4.742  0.00  0.00    +0.384 N 
ATOM     15  C   UNL     1      -0.169  -2.368   4.015  0.00  0.00    -0.059 C 
ATOM     16  C   UNL     1      -0.101  -1.713   2.636  0.00  0.00    +0.089 C 
ATOM     17  C   UNL     1      -1.708  -6.408  -4.299  0.00  0.00    +0.203 C 
ATOM     18  O   UNL     1      -1.981  -5.617  -5.467  0.00  0.00    -0.368 OA
ATOM     19  C   UNL     1      -1.139  -4.468  -5.586  0.00  0.00    +0.068 C 
ATOM     20  C   UNL     1      -1.507  -3.430  -4.521  0.00  0.00    +0.071 C 
ATOM     21  C   UNL     1       0.321  -4.887  -5.402  0.00  0.00    +0.041 C 
ATOM     22  C   UNL     1      -1.315  -3.852  -6.976  0.00  0.00    +0.041 C 
ATOM     23  H   UNL     1      -1.294  -0.853   4.788  0.00  0.00    -0.081 HD
ENDROOT
BRANCH   1  24
ATOM     24  C   UNL     1      -1.278  -0.128  -0.142  0.00  0.00    +0.131 C 
BRANCH  24  26
ATOM     25  C   UNL     1      -2.571   1.917   0.483  0.00  0.00    +0.009 C 
ATOM     26  C   UNL     1      -2.680   0.449   0.064  0.00  0.00    +0.003 C 
ATOM     27  C   UNL     1      -3.470   0.350  -1.243  0.00  0.00    +0.009 C 
ENDBRANCH  24  26
ENDBRANCH   1  24
BRANCH  14  28
ATOM     28  C   UNL     1      -1.343  -2.409   6.104  0.00  0.00    -0.043 C 
BRANCH  28  29
ATOM     29  C   UNL     1      -0.141  -1.898   6.856  0.00  0.00    -0.064 A 
ATOM     30  C   UNL     1       1.048  -2.601   6.818  0.00  0.00    +0.003 A 
ATOM     31  C   UNL     1       2.151  -2.132   7.506  0.00  0.00    +0.020 A 
ATOM     32  C   UNL     1       2.064  -0.959   8.234  0.00  0.00    +0.041 A 
ATOM     33  C   UNL     1       0.874  -0.255   8.271  0.00  0.00    +0.020 A 
ATOM     34  C   UNL     1      -0.227  -0.722   7.577  0.00  0.00    +0.003 A 
ATOM     35 CL   UNL     1       3.449  -0.369   9.100  0.00  0.00    -0.084 Cl
ENDBRANCH  28  29
ENDBRANCH  14  28
TORSDOF 4
