REMARK  Name = ZINC37129872
REMARK  3 active torsions:
REMARK  status: ('A' for Active; 'I' for Inactive)
REMARK    1  A    between atoms: C_5  and  C_6
REMARK    2  A    between atoms: C_6  and  N_7
REMARK    3  A    between atoms: N_7  and  C_8
REMARK                            x       y       z     vdW  Elec       q    Type
REMARK                         _______ _______ _______ _____ _____    ______ ____
ROOT
ATOM      1  C   UNL     1      -2.604  -2.154  -1.621  0.00  0.00    +0.044 A 
ATOM      2  C   UNL     1      -3.289  -2.731  -0.562  0.00  0.00    +0.051 A 
ATOM      3  C   UNL     1      -4.338  -3.601  -0.812  0.00  0.00    +0.069 A 
ATOM      4  C   UNL     1      -4.702  -3.894  -2.129  0.00  0.00    +0.068 A 
ATOM      5  C   UNL     1      -4.014  -3.313  -3.183  0.00  0.00    +0.045 A 
ATOM      6  C   UNL     1      -2.972  -2.442  -2.930  0.00  0.00    +0.041 A 
ATOM      7 BR   UNL     1      -2.039  -1.646  -4.370  0.00  0.00    -0.048 Br
ATOM      8  N   UNL     1      -5.774  -4.785  -2.061  0.00  0.00    -0.306 N 
ATOM      9  H   UNL     1      -6.242  -5.168  -2.819  0.00  0.00    +0.170 HD
ATOM     10  C   UNL     1      -6.046  -5.022  -0.764  0.00  0.00    +0.325 A 
ATOM     11  O   UNL     1      -6.927  -5.756  -0.356  0.00  0.00    -0.247 OA
ATOM     12  N   UNL     1      -5.198  -4.323   0.013  0.00  0.00    -0.306 N 
ATOM     13  H   UNL     1      -5.187  -4.322   0.983  0.00  0.00    +0.170 HD
ENDROOT
BRANCH   1  14
ATOM     14  N   UNL     1      -1.544  -1.274  -1.371  0.00  0.00    -0.338 N 
ATOM     15  H   UNL     1      -1.067  -0.867  -2.111  0.00  0.00    +0.146 HD
BRANCH  14  16
ATOM     16  C   UNL     1      -1.156  -0.969   0.008  0.00  0.00    +0.144 C 
BRANCH  16  21
ATOM     17  C   UNL     1      -0.016   1.351   0.009  0.00  0.00    +0.028 A 
ATOM     18  C   UNL     1       1.184   2.038   0.002  0.00  0.00    +0.025 A 
ATOM     19  C   UNL     1       2.343   1.335  -0.013  0.00  0.00    +0.060 A 
ATOM     20  S   UNL     1       1.753  -0.350  -0.017  0.00  0.00    -0.099 S 
ATOM     21  C   UNL     1       0.002  -0.004   0.002  0.00  0.00    +0.008 A 
ATOM     22 BR   UNL     1       1.208   3.929   0.011  0.00  0.00    -0.050 Br
ENDBRANCH  16  21
ENDBRANCH  14  16
ENDBRANCH   1  14
TORSDOF 3
