REMARK  Name = ZINC39676534
REMARK  7 active torsions:
REMARK  status: ('A' for Active; 'I' for Inactive)
REMARK    1  A    between atoms: C_1  and  C_2
REMARK    2  A    between atoms: C_4  and  C_9
REMARK    3  A    between atoms: N_7  and  C_8
REMARK    4  A    between atoms: C_13  and  C_22
REMARK    5  A    between atoms: N_24  and  C_25
REMARK    6  A    between atoms: C_25  and  C_26
REMARK    7  A    between atoms: C_26  and  C_27
REMARK                            x       y       z     vdW  Elec       q    Type
REMARK                         _______ _______ _______ _____ _____    ______ ____
ROOT
ATOM      1  C   UNL     1      -1.357  -2.946  -1.170  0.00  0.00    +0.238 C 
ATOM      2  O   UNL     1      -2.284  -3.193  -0.428  0.00  0.00    -0.273 OA
ATOM      3  N   UNL     1      -1.370  -3.401  -2.439  0.00  0.00    -0.299 N 
ATOM      4  C   UNL     1      -0.336  -3.210  -3.483  0.00  0.00    +0.121 C 
ATOM      5  C   UNL     1      -0.273  -4.565  -4.223  0.00  0.00    +0.100 C 
ATOM      6  C   UNL     1      -1.645  -5.213  -3.972  0.00  0.00    -0.004 C 
ATOM      7  C   UNL     1      -2.419  -4.212  -3.103  0.00  0.00    +0.115 C 
ATOM      8  C   UNL     1      -1.477  -6.533  -3.225  0.00  0.00    -0.010 C 
ATOM      9  C   UNL     1      -2.849  -7.186  -3.037  0.00  0.00    -0.082 C 
ATOM     10  N   UNL     1      -3.466  -7.418  -4.349  0.00  0.00    +0.379 N 
ATOM     11  C   UNL     1      -3.708  -6.137  -5.023  0.00  0.00    -0.082 C 
ATOM     12  C   UNL     1      -2.372  -5.440  -5.294  0.00  0.00    -0.010 C 
ATOM     13  H   UNL     1      -2.848  -7.982  -4.914  0.00  0.00    -0.086 HD
ATOM     14  H   UNL     1      -4.342  -7.904  -4.227  0.00  0.00    -0.086 HD
ENDROOT
BRANCH   1  18
ATOM     15  C   UNL     1      -0.522   1.550  -0.058  0.00  0.00    +0.061 C 
ATOM     16  C   UNL     1      -0.389   0.049  -0.048  0.00  0.00    +0.017 C 
ATOM     17  C   UNL     1      -0.316  -0.694  -1.134  0.00  0.00    +0.022 C 
ATOM     18  C   UNL     1      -0.191  -2.131  -0.674  0.00  0.00    +0.183 C 
ATOM     19  N   UNL     1      -0.207  -2.043   0.799  0.00  0.00    -0.225 NA
ATOM     20  N   UNL     1      -0.322  -0.716   1.100  0.00  0.00    -0.274 N 
ATOM     21  C   UNL     1      -0.371  -0.175   2.460  0.00  0.00    +0.149 C 
ATOM     22  H   UNL     1       0.638  -2.428   1.194  0.00  0.00    +0.146 HD
ENDBRANCH   1  18
BRANCH   5  23
ATOM     23  C   UNL     1      -0.054  -4.348  -5.698  0.00  0.00    +0.218 C 
ATOM     24  O   UNL     1      -0.486  -3.350  -6.235  0.00  0.00    -0.275 OA
ATOM     25  N   UNL     1       0.621  -5.263  -6.421  0.00  0.00    -0.315 N 
ATOM     26  H   UNL     1       0.967  -6.062  -5.992  0.00  0.00    +0.149 HD
BRANCH  25  27
ATOM     27  C   UNL     1       0.834  -5.052  -7.855  0.00  0.00    +0.109 C 
BRANCH  27  28
ATOM     28  C   UNL     1       1.622  -6.230  -8.433  0.00  0.00    +0.056 C 
BRANCH  28  29
ATOM     29  C   UNL     1       1.840  -6.013  -9.908  0.00  0.00    -0.021 A 
ATOM     30  C   UNL     1       2.921  -5.239 -10.524  0.00  0.00    +0.004 A 
ATOM     31  C   UNL     1       4.004  -4.515 -10.021  0.00  0.00    +0.030 A 
ATOM     32  C   UNL     1       4.864  -3.883 -10.892  0.00  0.00    +0.042 A 
ATOM     33  C   UNL     1       4.658  -3.963 -12.263  0.00  0.00    +0.022 A 
ATOM     34  C   UNL     1       3.594  -4.674 -12.774  0.00  0.00    +0.027 A 
ATOM     35  C   UNL     1       2.714  -5.320 -11.913  0.00  0.00    +0.047 A 
ATOM     36  N   UNL     1       1.588  -6.088 -12.112  0.00  0.00    -0.360 N 
ATOM     37  C   UNL     1       1.085  -6.497 -10.907  0.00  0.00    +0.087 A 
ATOM     38 CL   UNL     1       6.211  -2.981 -10.272  0.00  0.00    -0.084 Cl
ATOM     39  H   UNL     1       1.210  -6.310 -12.977  0.00  0.00    +0.165 HD
ENDBRANCH  28  29
ENDBRANCH  27  28
ENDBRANCH  25  27
ENDBRANCH   5  23
TORSDOF 5
