REMARK  Name = ZINC21252689
REMARK  11 active torsions:
REMARK  status: ('A' for Active; 'I' for Inactive)
REMARK    1  A    between atoms: C_1  and  C_2
REMARK    2  A    between atoms: C_2  and  C_3
REMARK    3  A    between atoms: C_3  and  O_4
REMARK    4  A    between atoms: O_4  and  C_5
REMARK    5  A    between atoms: C_8  and  C_11
REMARK    6  A    between atoms: C_16  and  C_21
REMARK    7  A    between atoms: C_24  and  O_29
REMARK    8  A    between atoms: C_25  and  O_27
REMARK    9  A    between atoms: O_27  and  C_28
REMARK   10  A    between atoms: O_29  and  C_30
REMARK   11  A    between atoms: C_30  and  C_31
REMARK                            x       y       z     vdW  Elec       q    Type
REMARK                         _______ _______ _______ _____ _____    ______ ____
ROOT
ATOM      1  C   UNL     1      -3.306   3.619  -1.279  0.00  0.00    +0.136 C 
ATOM      2  C   UNL     1      -3.789   2.204  -1.478  0.00  0.00    +0.036 C 
ATOM      3  C   UNL     1      -3.351   1.119  -0.813  0.00  0.00    +0.017 C 
ATOM      4  C   UNL     1      -3.936  -0.252  -1.104  0.00  0.00    +0.059 C 
ATOM      5  C   UNL     1      -4.332  -0.348  -2.576  0.00  0.00    +0.032 C 
ATOM      6  C   UNL     1      -5.372   0.745  -2.852  0.00  0.00    +0.088 C 
ATOM      7  C   UNL     1      -4.785   2.071  -2.475  0.00  0.00    +0.163 C 
ATOM      8  O   UNL     1      -5.178   3.070  -3.046  0.00  0.00    -0.292 OA
ATOM      9  N   UNL     1      -2.397   1.143   0.151  0.00  0.00    -0.316 N 
ATOM     10  C   UNL     1      -1.188   1.821   0.057  0.00  0.00    +0.052 A 
ATOM     11  C   UNL     1       0.031   1.163   0.066  0.00  0.00    +0.025 A 
ATOM     12  C   UNL     1       1.201   1.903   0.057  0.00  0.00    +0.002 A 
ATOM     13  C   UNL     1       1.154   3.285   0.045  0.00  0.00    +0.002 A 
ATOM     14  C   UNL     1      -0.064   3.944   0.025  0.00  0.00    +0.025 A 
ATOM     15  C   UNL     1      -1.236   3.206   0.016  0.00  0.00    +0.049 A 
ATOM     16  N   UNL     1      -2.484   3.818  -0.092  0.00  0.00    -0.331 N 
ATOM     17  H   UNL     1      -2.554   0.598   1.093  0.00  0.00    +0.152 HD
ATOM     18  H   UNL     1      -2.847   4.455   0.728  0.00  0.00    +0.147 HD
ENDROOT
BRANCH   1  22
ATOM     19  C   UNL     1      -1.052   4.776  -4.721  0.00  0.00    +0.121 A 
ATOM     20  C   UNL     1      -0.609   3.736  -3.917  0.00  0.00    +0.046 A 
ATOM     21  C   UNL     1      -1.339   3.364  -2.805  0.00  0.00    +0.009 A 
ATOM     22  C   UNL     1      -2.511   4.027  -2.493  0.00  0.00    -0.023 A 
ATOM     23  C   UNL     1      -2.959   5.061  -3.296  0.00  0.00    +0.009 A 
ATOM     24  C   UNL     1      -2.229   5.440  -4.405  0.00  0.00    +0.046 A 
BRANCH  19  25
ATOM     25  O   UNL     1      -0.335   5.144  -5.815  0.00  0.00    -0.492 OA
BRANCH  25  26
ATOM     26  C   UNL     1      -0.852   6.223  -6.596  0.00  0.00    +0.229 C 
BRANCH  26  28
ATOM     27  C   UNL     1      -0.470   7.647  -8.613  0.00  0.00    +0.007 C 
ATOM     28  C   UNL     1       0.084   6.492  -7.777  0.00  0.00    +0.038 C 
ENDBRANCH  26  28
ENDBRANCH  25  26
ENDBRANCH  19  25
ENDBRANCH   1  22
BRANCH   5  29
ATOM     29  C   UNL     1      -4.928  -1.703  -2.858  0.00  0.00    -0.040 A 
ATOM     30  C   UNL     1      -6.064  -2.111  -2.183  0.00  0.00    +0.008 A 
ATOM     31  C   UNL     1      -6.614  -3.353  -2.438  0.00  0.00    +0.050 A 
ATOM     32  C   UNL     1      -6.027  -4.193  -3.371  0.00  0.00    +0.162 A 
ATOM     33  C   UNL     1      -4.884  -3.782  -4.050  0.00  0.00    +0.162 A 
ATOM     34  C   UNL     1      -4.341  -2.534  -3.794  0.00  0.00    +0.053 A 
BRANCH  33  35
ATOM     35  O   UNL     1      -4.305  -4.603  -4.967  0.00  0.00    -0.491 OA
ATOM     36  C   UNL     1      -3.134  -4.115  -5.625  0.00  0.00    +0.277 C 
ENDBRANCH  33  35
BRANCH  32  37
ATOM     37  O   UNL     1      -6.568  -5.415  -3.623  0.00  0.00    -0.489 OA
BRANCH  37  38
ATOM     38  C   UNL     1      -7.742  -5.769  -2.889  0.00  0.00    +0.226 C 
ATOM     39  C   UNL     1      -8.200  -7.168  -3.304  0.00  0.00    +0.048 C 
ENDBRANCH  37  38
ENDBRANCH  32  37
ENDBRANCH   5  29
TORSDOF 8
