REMARK  Name = ZINC11788742
REMARK  7 active torsions:
REMARK  status: ('A' for Active; 'I' for Inactive)
REMARK    1  A    between atoms: C_1  and  C_2
REMARK    2  A    between atoms: C_2  and  C_4
REMARK    3  A    between atoms: C_2  and  N_25
REMARK    4  A    between atoms: C_13  and  C_14
REMARK    5  A    between atoms: C_13  and  N_60
REMARK    6  A    between atoms: C_19  and  C_20
REMARK    7  A    between atoms: C_26  and  C_28
REMARK                            x       y       z     vdW  Elec       q    Type
REMARK                         _______ _______ _______ _____ _____    ______ ____
ROOT
ATOM      1  C   UNL     1       1.529   5.580  -2.755  0.00  0.00    +0.154 A 
ATOM      2  N   UNL     1       2.553   5.473  -3.560  0.00  0.00    -0.132 NA
ATOM      3  N   UNL     1       3.256   4.444  -3.235  0.00  0.00    -0.134 NA
ATOM      4  C   UNL     1       2.716   3.855  -2.209  0.00  0.00    +0.132 A 
ATOM      5  N   UNL     1       1.596   4.549  -1.887  0.00  0.00    -0.315 N 
ATOM      6  C   UNL     1       0.653   4.213  -0.820  0.00  0.00    +0.106 C 
ATOM      7  C   UNL     1       1.391   3.450   0.283  0.00  0.00    -0.056 C 
ATOM      8  C   UNL     1       2.032   1.679  -1.258  0.00  0.00    -0.071 C 
ATOM      9  C   UNL     1       3.210   2.632  -1.480  0.00  0.00    +0.058 C 
ATOM     10  N   UNL     1       1.372   1.991   0.029  0.00  0.00    +0.384 N 
ATOM     11  H   UNL     1       1.881   1.517   0.784  0.00  0.00    -0.081 HD
ENDROOT
BRANCH   1  13
ATOM     12  C   UNL     1      -0.479   6.396  -3.961  0.00  0.00    +0.036 C 
ATOM     13  C   UNL     1       0.471   6.654  -2.790  0.00  0.00    +0.138 C 
BRANCH  13  14
ATOM     14  N   UNL     1       1.109   7.962  -2.958  0.00  0.00    -0.302 N 
ATOM     15  C   UNL     1       0.484   9.076  -2.528  0.00  0.00    +0.247 C 
ATOM     16  O   UNL     1      -0.608   8.995  -2.001  0.00  0.00    -0.270 OA
ATOM     17  H   UNL     1       1.981   8.026  -3.378  0.00  0.00    +0.150 HD
BRANCH  15  18
ATOM     18  C   UNL     1       1.127  10.395  -2.697  0.00  0.00    +0.075 A 
ATOM     19  C   UNL     1       2.382  10.491  -3.302  0.00  0.00    +0.054 A 
ATOM     20  C   UNL     1       2.977  11.728  -3.457  0.00  0.00    +0.124 A 
ATOM     21  C   UNL     1       2.332  12.872  -3.014  0.00  0.00    +0.041 A 
ATOM     22  C   UNL     1       1.090  12.785  -2.414  0.00  0.00    +0.042 A 
ATOM     23  C   UNL     1       0.479  11.553  -2.258  0.00  0.00    +0.136 A 
ATOM     24  F   UNL     1      -0.738  11.470  -1.677  0.00  0.00    -0.205 F 
ATOM     25  F   UNL     1       4.191  11.822  -4.042  0.00  0.00    -0.205 F 
ENDBRANCH  15  18
ENDBRANCH  13  14
ENDBRANCH   1  13
BRANCH  10  26
ATOM     26  C   UNL     1      -0.018   1.503   0.010  0.00  0.00    -0.042 C 
BRANCH  26  27
ATOM     27  C   UNL     1       0.002  -0.004   0.002  0.00  0.00    -0.053 A 
ATOM     28  C   UNL     1      -0.213  -0.692  -1.175  0.00  0.00    +0.002 A 
ATOM     29  C   UNL     1      -0.190  -2.075  -1.185  0.00  0.00    +0.000 A 
ATOM     30  C   UNL     1       0.038  -2.778  -0.015  0.00  0.00    +0.001 A 
ATOM     31  C   UNL     1       0.249  -2.103   1.169  0.00  0.00    +0.012 A 
ATOM     32  C   UNL     1       0.233  -0.707   1.186  0.00  0.00    +0.019 A 
BRANCH  32  33
ATOM     33  C   UNL     1       0.458   0.023   2.450  0.00  0.00    +0.135 A 
ATOM     34  C   UNL     1      -0.176  -0.209   3.630  0.00  0.00    +0.050 A 
ATOM     35  C   UNL     1       0.345   0.712   4.560  0.00  0.00    +0.042 A 
ATOM     36  C   UNL     1       1.263   1.454   3.909  0.00  0.00    +0.196 A 
ATOM     37  O   UNL     1       1.333   1.031   2.636  0.00  0.00    -0.463 OA
ENDBRANCH  32  33
ENDBRANCH  26  27
ENDBRANCH  10  26
TORSDOF 6
