REMARK  Name = ZINC01069037
REMARK  4 active torsions:
REMARK  status: ('A' for Active; 'I' for Inactive)
REMARK    1  A    between atoms: C_6  and  C_7
REMARK    2  A    between atoms: C_10  and  C_22
REMARK    3  A    between atoms: C_15  and  C_17
REMARK    4  A    between atoms: N_19  and  N_20
REMARK                            x       y       z     vdW  Elec       q    Type
REMARK                         _______ _______ _______ _____ _____    ______ ____
ROOT
ATOM      1  C   UNL     1       1.150   3.592   0.010  0.00  0.00    +0.104 C 
ATOM      2  C   UNL     1       1.389   4.118  -1.410  0.00  0.00    +0.063 C 
ATOM      3  C   UNL     1       1.305   5.648  -1.421  0.00  0.00    +0.215 C 
ATOM      4  N   UNL     1       2.149   6.181  -0.347  0.00  0.00    -0.238 N 
ATOM      5  C   UNL     1       2.569   5.442   0.723  0.00  0.00    +0.119 A 
ATOM      6  C   UNL     1       3.325   6.235   1.508  0.00  0.00    +0.078 A 
ATOM      7  C   UNL     1       3.374   7.512   0.905  0.00  0.00    +0.150 A 
ATOM      8  N   UNL     1       2.664   7.469  -0.208  0.00  0.00    -0.164 NA
ATOM      9  N   UNL     1       2.222   4.099   0.889  0.00  0.00    -0.322 N 
ATOM     10  H   UNL     1       2.660   3.532   1.544  0.00  0.00    +0.148 HD
ENDROOT
BRANCH   1  16
ATOM     11  C   UNL     1      -0.017   1.378   0.010  0.00  0.00    +0.007 A 
ATOM     12  C   UNL     1       0.002  -0.004   0.002  0.00  0.00    +0.020 A 
ATOM     13  C   UNL     1       1.210  -0.679  -0.013  0.00  0.00    +0.041 A 
ATOM     14  C   UNL     1       2.398   0.030  -0.021  0.00  0.00    +0.020 A 
ATOM     15  C   UNL     1       2.378   1.412  -0.013  0.00  0.00    +0.007 A 
ATOM     16  C   UNL     1       1.171   2.086   0.002  0.00  0.00    -0.027 A 
ATOM     17 CL   UNL     1       1.234  -2.415  -0.022  0.00  0.00    -0.084 Cl
ENDBRANCH   1  16
BRANCH   7  18
ATOM     18  C   UNL     1       4.095   8.691   1.429  0.00  0.00    +0.278 C 
ATOM     19  O   UNL     1       4.718   8.609   2.469  0.00  0.00    -0.267 OA
ATOM     20  N   UNL     1       4.061   9.856   0.752  0.00  0.00    -0.248 N 
ATOM     21  H   UNL     1       3.564   9.921  -0.078  0.00  0.00    +0.169 HD
BRANCH  20  22
ATOM     22  N   UNL     1       4.728  10.946   1.236  0.00  0.00    -0.254 NA
ATOM     23  H   UNL     1       5.705  10.739   1.379  0.00  0.00    +0.140 HD
ATOM     24  H   UNL     1       4.612  11.741   0.626  0.00  0.00    +0.140 HD
ENDBRANCH  20  22
ENDBRANCH   7  18
BRANCH   3  25
ATOM     25  C   UNL     1       1.797   6.179  -2.769  0.00  0.00    +0.412 C 
ATOM     26  F   UNL     1       3.121   5.776  -2.975  0.00  0.00    -0.168 F 
ATOM     27  F   UNL     1       0.990   5.670  -3.793  0.00  0.00    -0.168 F 
ATOM     28  F   UNL     1       1.729   7.576  -2.773  0.00  0.00    -0.168 F 
ENDBRANCH   3  25
TORSDOF 4
