REMARK  Name = ZINC04184358
REMARK  4 active torsions:
REMARK  status: ('A' for Active; 'I' for Inactive)
REMARK    1  A    between atoms: C_8  and  C_11
REMARK    2  A    between atoms: N_13  and  C_14
REMARK    3  A    between atoms: C_14  and  N_16
REMARK    4  A    between atoms: N_16  and  C_17
REMARK                            x       y       z     vdW  Elec       q    Type
REMARK                         _______ _______ _______ _____ _____    ______ ____
ROOT
ATOM      1  C   UNL     1      -4.298   0.963   0.084  0.00  0.00    +0.225 C 
ATOM      2  O   UNL     1      -4.684   0.231  -0.802  0.00  0.00    -0.275 OA
ATOM      3  N   UNL     1      -5.133   1.309   1.084  0.00  0.00    -0.267 N 
ATOM      4  H   UNL     1      -4.824   1.894   1.793  0.00  0.00    +0.157 HD
ENDROOT
BRANCH   1  12
ATOM      5  C   UNL     1       0.007   1.021   0.082  0.00  0.00    +0.007 C 
ATOM      6  C   UNL     1      -0.722   1.560   1.315  0.00  0.00    -0.009 C 
ATOM      7  C   UNL     1      -0.745   3.089   1.265  0.00  0.00    +0.007 C 
ATOM      8  C   UNL     1      -1.474   3.547   0.000  0.00  0.00    -0.009 C 
ATOM      9  C   UNL     1      -0.745   3.008  -1.232  0.00  0.00    +0.007 C 
ATOM     10  C   UNL     1      -0.722   1.479  -1.183  0.00  0.00    -0.009 C 
ATOM     11  C   UNL     1      -2.156   0.948  -1.165  0.00  0.00    +0.019 C 
ATOM     12  C   UNL     1      -2.885   1.487   0.067  0.00  0.00    +0.048 C 
ATOM     13  C   UNL     1      -2.156   1.028   1.332  0.00  0.00    +0.019 C 
ATOM     14  C   UNL     1      -2.908   3.016   0.017  0.00  0.00    +0.019 C 
ENDBRANCH   1  12
BRANCH   3  15
ATOM     15  C   UNL     1      -6.397   0.841   1.099  0.00  0.00    +0.137 C 
ATOM     16  S   UNL     1      -6.942  -0.193  -0.152  0.00  0.00    -0.018 S 
BRANCH  15  17
ATOM     17  N   UNL     1      -7.231   1.186   2.099  0.00  0.00    -0.321 N 
ATOM     18  H   UNL     1      -6.902   1.709   2.847  0.00  0.00    +0.148 HD
BRANCH  17  19
ATOM     19  C   UNL     1      -8.636   0.772   2.057  0.00  0.00    +0.034 C 
ATOM     20  C   UNL     1      -9.375   1.350   3.266  0.00  0.00    +0.029 C 
ATOM     21  C   UNL     1     -10.842   0.917   3.222  0.00  0.00    -0.008 C 
ATOM     22  C   UNL     1     -10.924  -0.610   3.257  0.00  0.00    +0.007 C 
ATOM     23  C   UNL     1     -10.185  -1.188   2.049  0.00  0.00    -0.008 C 
ATOM     24  C   UNL     1      -8.718  -0.756   2.092  0.00  0.00    +0.029 C 
ATOM     25  C   UNL     1     -10.831  -0.672   0.761  0.00  0.00    +0.007 C 
ATOM     26  C   UNL     1     -10.749   0.855   0.726  0.00  0.00    -0.008 C 
ATOM     27  C   UNL     1     -11.487   1.433   1.934  0.00  0.00    +0.007 C 
ATOM     28  C   UNL     1      -9.282   1.288   0.770  0.00  0.00    +0.029 C 
ENDBRANCH  17  19
ENDBRANCH  15  17
ENDBRANCH   3  15
TORSDOF 4
