REMARK  Name = ZINC63061515
REMARK  5 active torsions:
REMARK  status: ('A' for Active; 'I' for Inactive)
REMARK    1  A    between atoms: C_1  and  C_2
REMARK    2  A    between atoms: C_7  and  O_8
REMARK    3  A    between atoms: O_8  and  C_9
REMARK    4  A    between atoms: C_12  and  N_16
REMARK    5  A    between atoms: C_14  and  N_15
REMARK                            x       y       z     vdW  Elec       q    Type
REMARK                         _______ _______ _______ _____ _____    ______ ____
ROOT
ATOM      1  C   UNL     1       0.054  -0.847   3.470  0.00  0.00    +0.149 A 
ATOM      2  C   UNL     1       0.136  -2.221   3.308  0.00  0.00    +0.050 A 
ATOM      3  C   UNL     1       0.165  -3.047   4.416  0.00  0.00    +0.036 A 
ATOM      4  C   UNL     1       0.112  -2.507   5.688  0.00  0.00    +0.128 A 
ATOM      5  C   UNL     1       0.030  -1.138   5.858  0.00  0.00    +0.059 A 
ATOM      6  C   UNL     1       0.007  -0.302   4.751  0.00  0.00    +0.070 A 
ENDROOT
BRANCH   6   7
ATOM      7  N   UNL     1      -0.070   1.085   4.921  0.00  0.00    -0.355 N 
ATOM      8  H   UNL     1      -0.090   1.668   4.146  0.00  0.00    +0.142 HD
ATOM      9  H   UNL     1      -0.102   1.464   5.813  0.00  0.00    +0.142 HD
ENDBRANCH   6   7
BRANCH   4  10
ATOM     10  N   UNL     1       0.142  -3.397   6.870  0.00  0.00    +0.056 N 
ATOM     11  O   UNL     1       0.214  -4.595   6.723  0.00  0.00    -0.126 OA
ATOM     12  O   UNL     1       0.096  -2.927   7.982  0.00  0.00    -0.126 OA
ENDBRANCH   4  10
BRANCH   1  13
ATOM     13  O   UNL     1       0.025  -0.033   2.381  0.00  0.00    -0.454 OA
BRANCH  13  20
ATOM     14  C   UNL     1      -0.086   1.825   0.256  0.00  0.00    +0.047 C 
ATOM     15  C   UNL     1       1.209   1.406   0.902  0.00  0.00    -0.007 A 
ATOM     16  C   UNL     1       2.405   1.939   0.462  0.00  0.00    +0.022 A 
ATOM     17  C   UNL     1       3.595   1.555   1.055  0.00  0.00    +0.018 A 
ATOM     18  C   UNL     1       3.589   0.636   2.089  0.00  0.00    +0.019 A 
ATOM     19  C   UNL     1       2.396   0.101   2.533  0.00  0.00    +0.047 A 
ATOM     20  C   UNL     1       1.201   0.488   1.943  0.00  0.00    +0.131 A 
ATOM     21 BR   UNL     1       5.230   2.285   0.450  0.00  0.00    -0.050 Br
ENDBRANCH  13  20
ENDBRANCH   1  13
TORSDOF 4
