REMARK  Name = ZINC18015928
REMARK  12 active torsions:
REMARK  status: ('A' for Active; 'I' for Inactive)
REMARK    1  A    between atoms: C_1  and  N_62
REMARK    2  A    between atoms: C_2  and  N_62
REMARK    3  A    between atoms: C_3  and  C_5
REMARK    4  A    between atoms: C_3  and  C_12
REMARK    5  A    between atoms: C_3  and  N_62
REMARK    6  A    between atoms: C_5  and  C_6
REMARK    7  A    between atoms: C_12  and  N_13
REMARK    8  A    between atoms: C_14  and  C_16
REMARK    9  A    between atoms: C_19  and  N_22
REMARK   10  A    between atoms: N_22  and  S_23
REMARK   11  A    between atoms: S_23  and  C_26
REMARK   12  A    between atoms: C_27  and  C_28
REMARK                            x       y       z     vdW  Elec       q    Type
REMARK                         _______ _______ _______ _____ _____    ______ ____
ROOT
ATOM      1  C   UNL     1      -4.951  -0.690   5.548  0.00  0.00    +0.037 A 
ATOM      2  C   UNL     1      -4.063  -0.151   6.484  0.00  0.00    +0.015 A 
ATOM      3  C   UNL     1      -4.331  -0.265   7.829  0.00  0.00    +0.025 A 
ATOM      4  C   UNL     1      -5.480  -0.925   8.258  0.00  0.00    +0.048 A 
ATOM      5  C   UNL     1      -6.362  -1.468   7.328  0.00  0.00    +0.025 A 
ATOM      6  C   UNL     1      -6.103  -1.352   5.982  0.00  0.00    +0.015 A 
ENDROOT
BRANCH   1   8
ATOM      7  N   UNL     1      -3.558   0.074   3.688  0.00  0.00    -0.313 N 
ATOM      8  C   UNL     1      -4.669  -0.565   4.105  0.00  0.00    +0.244 C 
ATOM      9  O   UNL     1      -5.439  -1.039   3.292  0.00  0.00    -0.270 OA
ATOM     10  H   UNL     1      -2.943   0.452   4.337  0.00  0.00    +0.149 HD
BRANCH   7  11
ATOM     11  C   UNL     1      -3.278   0.198   2.256  0.00  0.00    +0.089 C 
BRANCH  11  12
ATOM     12  C   UNL     1      -1.906   0.845   2.058  0.00  0.00    -0.048 C 
BRANCH  12  15
ATOM     13  C   UNL     1      -1.933  -0.117  -0.164  0.00  0.00    -0.096 C 
ATOM     14  C   UNL     1      -2.511   2.213   0.154  0.00  0.00    -0.096 C 
ATOM     15  N   UNL     1      -1.656   1.103   0.624  0.00  0.00    +0.379 N 
ATOM     16  H   UNL     1      -0.671   1.364   0.499  0.00  0.00    -0.082 HD
ENDBRANCH  12  15
BRANCH  12  17
ATOM     17  C   UNL     1      -0.819  -0.092   2.587  0.00  0.00    +0.021 C 
BRANCH  17  18
ATOM     18  C   UNL     1       0.520   0.595   2.505  0.00  0.00    -0.049 A 
ATOM     19  C   UNL     1       0.976   1.349   3.571  0.00  0.00    +0.003 A 
ATOM     20  C   UNL     1       2.207   1.974   3.498  0.00  0.00    +0.000 A 
ATOM     21  C   UNL     1       2.979   1.851   2.358  0.00  0.00    +0.000 A 
ATOM     22  C   UNL     1       2.521   1.101   1.291  0.00  0.00    +0.000 A 
ATOM     23  C   UNL     1       1.290   0.475   1.363  0.00  0.00    +0.003 A 
ENDBRANCH  17  18
ENDBRANCH  12  17
ENDBRANCH  11  12
ENDBRANCH   7  11
ENDBRANCH   1   8
BRANCH   4  24
ATOM     24  N   UNL     1      -5.745  -1.042   9.618  0.00  0.00    -0.217 N 
ATOM     25  H   UNL     1      -6.633  -0.850   9.957  0.00  0.00    +0.174 HD
BRANCH  24  26
ATOM     26  S   UNL     1      -4.545  -1.512  10.658  0.00  0.00    +0.066 S 
ATOM     27  O   UNL     1      -3.439  -0.654  10.415  0.00  0.00    -0.151 OA
ATOM     28  O   UNL     1      -5.145  -1.637  11.940  0.00  0.00    -0.151 OA
BRANCH  26  29
ATOM     29  C   UNL     1      -4.043  -3.131  10.177  0.00  0.00    +0.157 C 
ATOM     30  C   UNL     1      -2.815  -3.336   9.722  0.00  0.00    +0.028 C 
BRANCH  30  31
ATOM     31  C   UNL     1      -2.394  -4.694   9.319  0.00  0.00    -0.024 A 
ATOM     32  C   UNL     1      -3.284  -5.764   9.422  0.00  0.00    +0.008 A 
ATOM     33  C   UNL     1      -2.886  -7.028   9.038  0.00  0.00    +0.001 A 
ATOM     34  C   UNL     1      -1.604  -7.239   8.564  0.00  0.00    +0.000 A 
ATOM     35  C   UNL     1      -0.715  -6.184   8.465  0.00  0.00    +0.001 A 
ATOM     36  C   UNL     1      -1.102  -4.914   8.839  0.00  0.00    +0.008 A 
ENDBRANCH  30  31
ENDBRANCH  26  29
ENDBRANCH  24  26
ENDBRANCH   4  24
TORSDOF 10
