REMARK  Name = ZINC06517589
REMARK  8 active torsions:
REMARK  status: ('A' for Active; 'I' for Inactive)
REMARK    1  A    between atoms: C_1  and  C_2
REMARK    2  A    between atoms: C_2  and  N_3
REMARK    3  A    between atoms: N_3  and  C_4
REMARK    4  A    between atoms: N_3  and  C_6
REMARK    5  A    between atoms: C_4  and  C_5
REMARK    6  A    between atoms: C_11  and  C_17
REMARK    7  A    between atoms: N_19  and  C_20
REMARK    8  A    between atoms: C_21  and  C_29
REMARK                            x       y       z     vdW  Elec       q    Type
REMARK                         _______ _______ _______ _____ _____    ______ ____
ROOT
ATOM      1  C   UNL     1      -3.724  13.471  -3.588  0.00  0.00    +0.033 A 
ATOM      2  C   UNL     1      -3.406  13.217  -2.253  0.00  0.00    +0.024 A 
ATOM      3  C   UNL     1      -3.062  11.961  -1.854  0.00  0.00    +0.013 A 
ATOM      4  C   UNL     1      -3.027  10.912  -2.787  0.00  0.00    +0.018 A 
ATOM      5  C   UNL     1      -2.674   9.605  -2.371  0.00  0.00    +0.030 A 
ATOM      6  C   UNL     1      -2.643   8.591  -3.311  0.00  0.00    +0.097 A 
ATOM      7  C   UNL     1      -2.988   8.907  -4.708  0.00  0.00    +0.205 A 
ATOM      8  N   UNL     1      -2.971   7.966  -5.614  0.00  0.00    -0.369 N 
ATOM      9  O   UNL     1      -3.321  10.168  -5.051  0.00  0.00    -0.439 OA
ATOM     10  C   UNL     1      -3.348  11.162  -4.135  0.00  0.00    +0.139 A 
ATOM     11  C   UNL     1      -3.695  12.446  -4.525  0.00  0.00    +0.070 A 
ATOM     12  H   UNL     1      -3.229   8.203  -6.657  0.00  0.00    +0.159 HD
ATOM     13  H   UNL     1      -2.700   6.938  -5.334  0.00  0.00    +0.159 HD
ENDROOT
BRANCH   6  14
ATOM     14  C   UNL     1      -2.278   7.221  -2.922  0.00  0.00    +0.254 C 
ATOM     15  O   UNL     1      -2.259   6.336  -3.758  0.00  0.00    -0.270 OA
ATOM     16  N   UNL     1      -1.965   6.945  -1.641  0.00  0.00    -0.275 N 
ATOM     17  H   UNL     1      -1.982   7.745  -0.886  0.00  0.00    +0.156 HD
BRANCH  16  18
ATOM     18  C   UNL     1      -1.621   5.653  -1.274  0.00  0.00    +0.090 A 
ATOM     19  C   UNL     1      -1.271   5.177  -0.019  0.00  0.00    +0.084 A 
ATOM     20  C   UNL     1      -0.951   3.765   0.100  0.00  0.00    -0.018 A 
ATOM     21  C   UNL     1      -1.032   3.059  -1.049  0.00  0.00    -0.004 A 
ATOM     22  S   UNL     1      -1.524   4.240  -2.273  0.00  0.00    -0.077 S 
ATOM     23  C   UNL     1      -0.761   1.597  -1.232  0.00  0.00    +0.043 C 
ATOM     24  C   UNL     1      -0.013   1.086   0.008  0.00  0.00    +0.005 C 
ATOM     25  C   UNL     1      -0.735   1.583   1.264  0.00  0.00    +0.005 C 
ATOM     26  C   UNL     1      -0.551   3.094   1.407  0.00  0.00    +0.037 C 
BRANCH  19  27
ATOM     27  C   UNL     1      -1.226   6.047   1.118  0.00  0.00    +0.102 C 
ATOM     28  N   UNL     1      -1.190   6.737   2.020  0.00  0.00    -0.191 NA
ENDBRANCH  19  27
ENDBRANCH  16  18
ENDBRANCH   6  14
BRANCH   1  29
ATOM     29  N   UNL     1      -4.073  14.757  -3.983  0.00  0.00    -0.330 N 
BRANCH  29  31
ATOM     30  C   UNL     1      -2.731  16.511  -2.932  0.00  0.00    +0.024 C 
ATOM     31  C   UNL     1      -4.106  15.842  -2.998  0.00  0.00    +0.102 C 
ENDBRANCH  29  31
BRANCH  29  32
ATOM     32  C   UNL     1      -4.409  15.028  -5.383  0.00  0.00    +0.102 C 
ATOM     33  C   UNL     1      -5.912  14.831  -5.594  0.00  0.00    +0.024 C 
ENDBRANCH  29  32
ENDBRANCH   1  29
TORSDOF 6
