REMARK  Name = ZINC13833189
REMARK  11 active torsions:
REMARK  status: ('A' for Active; 'I' for Inactive)
REMARK    1  A    between atoms: C_1  and  C_2
REMARK    2  A    between atoms: C_3  and  C_8
REMARK    3  A    between atoms: C_8  and  C_10
REMARK    4  A    between atoms: C_8  and  N_12
REMARK    5  A    between atoms: C_18  and  CA_20
REMARK    6  A    between atoms: CA_20  and  C_22
REMARK    7  A    between atoms: CA_20  and  N_24
REMARK    8  A    between atoms: C_22  and  O_23
REMARK    9  A    between atoms: N_24  and  C_25
REMARK   10  A    between atoms: C_25  and  C_26
REMARK   11  A    between atoms: C_25  and  C_32
REMARK                            x       y       z     vdW  Elec       q    Type
REMARK                         _______ _______ _______ _____ _____    ______ ____
ROOT
ATOM      1  CA  UNL     1       1.845   3.074  -0.071  0.00  0.00    +0.043 C 
ENDROOT
BRANCH   1   8
ATOM      2  N   UNL     1       1.083   1.585  -4.791  0.00  0.00    -0.281 NA
ATOM      3  C   UNL     1      -0.142   2.272  -4.362  0.00  0.00    +0.105 C 
ATOM      4  C   UNL     1       0.230   3.501  -3.527  0.00  0.00    +0.123 C 
ATOM      5  N   UNL     1       1.118   3.074  -2.436  0.00  0.00    -0.300 N 
ATOM      6  C   UNL     1       2.301   2.268  -2.776  0.00  0.00    +0.123 C 
ATOM      7  C   UNL     1       1.843   1.082  -3.640  0.00  0.00    +0.105 C 
ATOM      8  C   UNL     1       0.859   3.416  -1.158  0.00  0.00    +0.204 C 
ATOM      9  O   UNL     1      -0.169   3.998  -0.883  0.00  0.00    -0.277 OA
BRANCH   2  10
ATOM     10  C   UNL     1       0.777   0.502  -5.735  0.00  0.00    +0.193 C 
BRANCH  10  13
ATOM     11  C   UNL     1      -0.997  -1.066  -7.392  0.00  0.00    +0.066 C 
ATOM     12  C   UNL     1      -0.637   0.339  -7.800  0.00  0.00    +0.044 A 
ATOM     13  C   UNL     1       0.211   1.085  -7.004  0.00  0.00    +0.005 A 
ATOM     14  C   UNL     1       0.540   2.375  -7.391  0.00  0.00    +0.009 A 
ATOM     15  C   UNL     1      -0.004   2.871  -8.566  0.00  0.00    +0.020 A 
ATOM     16  C   UNL     1      -0.849   2.068  -9.308  0.00  0.00    +0.111 A 
ATOM     17  N   UNL     1      -1.140   0.845  -8.909  0.00  0.00    -0.260 NA
ENDBRANCH  10  13
BRANCH  10  18
ATOM     18  C   UNL     1       2.009  -0.242  -6.044  0.00  0.00    +0.086 C 
ATOM     19  N   UNL     1       2.960  -0.817  -6.282  0.00  0.00    -0.195 NA
ENDBRANCH  10  18
ENDBRANCH   2  10
ENDBRANCH   1   8
BRANCH   1  20
ATOM     20  N   UNL     1       1.699   4.024   1.039  0.00  0.00    +0.395 N 
ATOM     21  H1  UNL     1       1.446   5.018   0.640  0.00  0.00    -0.083 HD
ATOM     22  H2  UNL     1       0.897   3.683   1.711  0.00  0.00    -0.083 HD
BRANCH  20  23
ATOM     23  C   UNL     1       2.946   4.130   1.809  0.00  0.00    -0.009 C 
BRANCH  23  24
ATOM     24  C   UNL     1       3.857   5.135   1.154  0.00  0.00    -0.057 A 
ATOM     25  C   UNL     1       3.335   6.300   0.624  0.00  0.00    +0.002 A 
ATOM     26  C   UNL     1       4.172   7.224   0.028  0.00  0.00    +0.000 A 
ATOM     27  C   UNL     1       5.530   6.978  -0.048  0.00  0.00    +0.000 A 
ATOM     28  C   UNL     1       6.052   5.811   0.477  0.00  0.00    +0.000 A 
ATOM     29  C   UNL     1       5.216   4.889   1.078  0.00  0.00    +0.002 A 
ENDBRANCH  23  24
BRANCH  23  30
ATOM     30  C   UNL     1       2.632   4.577   3.214  0.00  0.00    -0.057 A 
ATOM     31  C   UNL     1       1.671   5.546   3.432  0.00  0.00    +0.002 A 
ATOM     32  C   UNL     1       1.380   5.953   4.721  0.00  0.00    +0.000 A 
ATOM     33  C   UNL     1       2.057   5.397   5.791  0.00  0.00    +0.000 A 
ATOM     34  C   UNL     1       3.021   4.431   5.572  0.00  0.00    +0.000 A 
ATOM     35  C   UNL     1       3.308   4.021   4.284  0.00  0.00    +0.002 A 
ENDBRANCH  23  30
ENDBRANCH  20  23
ENDBRANCH   1  20
BRANCH   1  36
ATOM     36  C   UNL     1       1.576   1.655   0.433  0.00  0.00    +0.149 C 
BRANCH  36  37
ATOM     37  O   UNL     1       0.218   1.552   0.866  0.00  0.00    -0.396 OA
ATOM     38  H   UNL     1      -0.162   0.600   1.264  0.00  0.00    +0.209 HD
ENDBRANCH  36  37
ENDBRANCH   1  36
TORSDOF 10
