REMARK  Name = ZINC66273708
REMARK  3 active torsions:
REMARK  status: ('A' for Active; 'I' for Inactive)
REMARK    1  A    between atoms: C_9  and  N_12
REMARK    2  A    between atoms: C_13  and  C_15
REMARK    3  A    between atoms: C_17  and  N_25
REMARK                            x       y       z     vdW  Elec       q    Type
REMARK                         _______ _______ _______ _____ _____    ______ ____
ROOT
ATOM      1  N   UNL     1       4.872  -2.834   0.137  0.00  0.00    -0.308 N 
ATOM      2  C   UNL     1       5.845  -2.805   1.069  0.00  0.00    +0.248 C 
ATOM      3  O   UNL     1       5.673  -2.198   2.109  0.00  0.00    -0.270 OA
ATOM      4  H   UNL     1       5.009  -3.318  -0.692  0.00  0.00    +0.149 HD
ENDROOT
BRANCH   1  13
ATOM      5  C   UNL     1      -0.017   1.375   0.010  0.00  0.00    +0.000 A 
ATOM      6  C   UNL     1       1.174   2.078   0.002  0.00  0.00    +0.000 A 
ATOM      7  C   UNL     1       2.372   1.395  -0.016  0.00  0.00    +0.004 A 
ATOM      8  C   UNL     1       2.393   0.006  -0.025  0.00  0.00    -0.042 A 
ATOM      9  C   UNL     1       1.208  -0.694  -0.013  0.00  0.00    -0.044 A 
ATOM     10  C   UNL     1       0.002  -0.004   0.002  0.00  0.00    +0.004 A 
ATOM     11  C   UNL     1       1.155  -2.199  -0.005  0.00  0.00    +0.037 C 
ATOM     12  C   UNL     1       2.493  -2.786  -0.452  0.00  0.00    +0.027 C 
ATOM     13  C   UNL     1       3.607  -2.135   0.376  0.00  0.00    +0.078 C 
ATOM     14  C   UNL     1       3.736  -0.675  -0.053  0.00  0.00    +0.057 C 
ENDBRANCH   1  13
BRANCH   2  15
ATOM     15  C   UNL     1       7.119  -3.509   0.829  0.00  0.00    +0.084 A 
ATOM     16  C   UNL     1       7.322  -4.203  -0.368  0.00  0.00    +0.049 A 
ATOM     17  C   UNL     1       8.513  -4.859  -0.589  0.00  0.00    +0.131 A 
ATOM     18  C   UNL     1       9.512  -4.837   0.370  0.00  0.00    +0.082 A 
ATOM     19  C   UNL     1       9.326  -4.153   1.561  0.00  0.00    +0.165 A 
ATOM     20  C   UNL     1       8.132  -3.481   1.795  0.00  0.00    +0.174 A 
ATOM     21  O   UNL     1       7.934  -2.795   2.951  0.00  0.00    -0.484 OA
ATOM     22  C   UNL     1       8.813  -3.099   4.039  0.00  0.00    +0.270 C 
ATOM     23  C   UNL     1      10.249  -3.133   3.501  0.00  0.00    +0.270 C 
ATOM     24  O   UNL     1      10.321  -4.148   2.491  0.00  0.00    -0.485 OA
BRANCH  17  25
ATOM     25  N   UNL     1       8.726  -5.592  -1.857  0.00  0.00    +0.057 N 
ATOM     26  O   UNL     1       7.855  -5.614  -2.696  0.00  0.00    -0.126 OA
ATOM     27  O   UNL     1       9.770  -6.169  -2.054  0.00  0.00    -0.126 OA
ENDBRANCH  17  25
ENDBRANCH   2  15
TORSDOF 3
