REMARK  Name = ZINC66356801
REMARK  8 active torsions:
REMARK  status: ('A' for Active; 'I' for Inactive)
REMARK    1  A    between atoms: C_1  and  C_2
REMARK    2  A    between atoms: C_5  and  C_12
REMARK    3  A    between atoms: C_8  and  C_10
REMARK    4  A    between atoms: C_8  and  C_11
REMARK    5  A    between atoms: C_12  and  C_13
REMARK    6  A    between atoms: N_15  and  C_16
REMARK    7  A    between atoms: C_21  and  N_22
REMARK    8  A    between atoms: C_25  and  C_28
REMARK                            x       y       z     vdW  Elec       q    Type
REMARK                         _______ _______ _______ _____ _____    ______ ____
ROOT
ATOM      1  C   UNL     1      -5.496  -2.100  -2.617  0.00  0.00    +0.055 A 
ATOM      2  C   UNL     1      -5.098  -0.926  -3.238  0.00  0.00    +0.025 A 
ATOM      3  C   UNL     1      -5.766  -0.478  -4.362  0.00  0.00    +0.002 A 
ATOM      4  C   UNL     1      -6.833  -1.197  -4.870  0.00  0.00    +0.002 A 
ATOM      5  C   UNL     1      -7.236  -2.368  -4.258  0.00  0.00    +0.025 A 
ATOM      6  C   UNL     1      -6.568  -2.829  -3.133  0.00  0.00    +0.051 A 
ENDROOT
BRANCH   6   7
ATOM      7  N   UNL     1      -6.971  -4.017  -2.514  0.00  0.00    -0.328 N 
ATOM      8  C   UNL     1      -7.988  -4.001  -1.454  0.00  0.00    +0.106 C 
ATOM      9  C   UNL     1      -7.427  -4.718  -0.222  0.00  0.00    +0.031 C 
ATOM     10  C   UNL     1      -6.958  -6.119  -0.622  0.00  0.00    +0.078 C 
ATOM     11  C   UNL     1      -5.843  -6.007  -1.665  0.00  0.00    +0.031 C 
ATOM     12  C   UNL     1      -6.390  -5.305  -2.917  0.00  0.00    +0.106 C 
BRANCH  10  13
ATOM     13  C   UNL     1      -6.436  -6.840   0.595  0.00  0.00    +0.214 C 
ATOM     14  O   UNL     1      -6.440  -6.288   1.675  0.00  0.00    -0.276 OA
ATOM     15  N   UNL     1      -5.966  -8.098   0.482  0.00  0.00    -0.329 N 
ATOM     16  H   UNL     1      -5.963  -8.539  -0.382  0.00  0.00    +0.145 HD
ATOM     17  H   UNL     1      -5.631  -8.562   1.265  0.00  0.00    +0.145 HD
ENDBRANCH  10  13
ENDBRANCH   6   7
BRANCH   1  20
ATOM     18  C   UNL     1      -3.541  -2.194  -1.262  0.00  0.00    +0.218 C 
ATOM     19  O   UNL     1      -2.942  -1.556  -2.102  0.00  0.00    -0.275 OA
ATOM     20  N   UNL     1      -4.821  -2.557  -1.477  0.00  0.00    -0.284 N 
ATOM     21  H   UNL     1      -5.274  -3.133  -0.842  0.00  0.00    +0.155 HD
BRANCH  18  22
ATOM     22  C   UNL     1      -2.853  -2.580   0.022  0.00  0.00    +0.099 C 
BRANCH  22  26
ATOM     23  C   UNL     1      -0.029   1.542  -0.002  0.00  0.00    +0.007 C 
ATOM     24  C   UNL     1      -0.006   0.012   0.001  0.00  0.00    -0.013 C 
ATOM     25  C   UNL     1      -1.441  -0.519   0.010  0.00  0.00    +0.007 C 
ATOM     26  C   UNL     1      -1.418  -2.049   0.013  0.00  0.00    -0.002 C 
ATOM     27  C   UNL     1      -0.682  -2.546   1.259  0.00  0.00    +0.010 C 
ATOM     28  C   UNL     1       0.752  -2.014   1.249  0.00  0.00    -0.034 C 
ATOM     29  C   UNL     1       0.730  -0.485   1.246  0.00  0.00    +0.009 C 
ATOM     30  C   UNL     1       1.489  -2.511   2.495  0.00  0.00    +0.011 C 
ATOM     31  C   UNL     1       1.474  -2.516  -0.004  0.00  0.00    +0.011 C 
ENDBRANCH  22  26
ENDBRANCH  18  22
ENDBRANCH   1  20
TORSDOF 5
