REMARK  Name = ZINC02365752
REMARK  8 active torsions:
REMARK  status: ('A' for Active; 'I' for Inactive)
REMARK    1  A    between atoms: C_1  and  C_2
REMARK    2  A    between atoms: C_5  and  C_8
REMARK    3  A    between atoms: C_8  and  O_9
REMARK    4  A    between atoms: O_9  and  C_10
REMARK    5  A    between atoms: C_13  and  C_17
REMARK    6  A    between atoms: C_14  and  O_16
REMARK    7  A    between atoms: C_18  and  C_25
REMARK    8  A    between atoms: C_19  and  C_24
REMARK                            x       y       z     vdW  Elec       q    Type
REMARK                         _______ _______ _______ _____ _____    ______ ____
ROOT
ATOM      1  C   UNL     1       1.665  -4.877  -0.475  0.00  0.00    +0.124 A 
ATOM      2  C   UNL     1       2.797  -4.071  -0.455  0.00  0.00    +0.046 A 
ATOM      3  C   UNL     1       2.672  -2.704  -0.340  0.00  0.00    +0.017 A 
ATOM      4  C   UNL     1       1.405  -2.125  -0.244  0.00  0.00    +0.043 A 
ATOM      5  C   UNL     1       0.266  -2.939  -0.258  0.00  0.00    +0.129 A 
ATOM      6  C   UNL     1       0.402  -4.311  -0.380  0.00  0.00    +0.091 A 
ENDROOT
BRANCH   4   7
ATOM      7  C   UNL     1       1.268  -0.658  -0.120  0.00  0.00    +0.087 A 
ATOM      8  C   UNL     1       2.010   0.054   0.844  0.00  0.00    +0.029 A 
ATOM      9  C   UNL     1       1.841   1.436   0.917  0.00  0.00    +0.052 A 
ATOM     10  N   UNL     1       0.998   2.027   0.087  0.00  0.00    -0.219 NA
ATOM     11  C   UNL     1       0.315   1.328  -0.809  0.00  0.00    +0.213 A 
ATOM     12  N   UNL     1       0.440   0.015  -0.917  0.00  0.00    -0.214 NA
ATOM     13  N   UNL     1      -0.551   1.992  -1.659  0.00  0.00    -0.327 N 
ATOM     14  C   UNL     1       2.610   2.247   1.929  0.00  0.00    +0.066 C 
ATOM     15  H   UNL     1      -1.055   1.495  -2.323  0.00  0.00    +0.145 HD
ATOM     16  H   UNL     1      -0.654   2.954  -1.592  0.00  0.00    +0.145 HD
BRANCH   8  17
ATOM     17  C   UNL     1       2.945  -0.648   1.755  0.00  0.00    -0.014 A 
ATOM     18  C   UNL     1       2.452  -1.518   2.727  0.00  0.00    +0.010 A 
ATOM     19  C   UNL     1       3.327  -2.173   3.570  0.00  0.00    +0.020 A 
ATOM     20  C   UNL     1       4.690  -1.959   3.459  0.00  0.00    +0.041 A 
ATOM     21  C   UNL     1       5.184  -1.091   2.499  0.00  0.00    +0.020 A 
ATOM     22  C   UNL     1       4.318  -0.436   1.648  0.00  0.00    +0.010 A 
ATOM     23 CL   UNL     1       5.785  -2.781   4.527  0.00  0.00    -0.084 Cl
ENDBRANCH   8  17
ENDBRANCH   4   7
BRANCH   5  24
ATOM     24  O   UNL     1      -0.969  -2.383  -0.159  0.00  0.00    -0.506 OA
ATOM     25  H   UNL     1      -1.366  -2.152  -1.010  0.00  0.00    +0.292 HD
ENDBRANCH   5  24
BRANCH   1  26
ATOM     26  O   UNL     1       1.795  -6.224  -0.589  0.00  0.00    -0.487 OA
BRANCH  26  27
ATOM     27  C   UNL     1       3.124  -6.742  -0.683  0.00  0.00    +0.264 C 
BRANCH  27  32
ATOM     28  C   UNL     1       2.923 -12.499  -1.140  0.00  0.00    +0.044 C 
ATOM     29  C   UNL     1       2.976 -10.997  -1.021  0.00  0.00    -0.050 A 
ATOM     30  C   UNL     1       2.952 -10.213  -2.159  0.00  0.00    +0.004 A 
ATOM     31  C   UNL     1       3.000  -8.835  -2.049  0.00  0.00    +0.007 A 
ATOM     32  C   UNL     1       3.071  -8.243  -0.802  0.00  0.00    -0.010 A 
ATOM     33  C   UNL     1       3.100  -9.028   0.335  0.00  0.00    +0.007 A 
ATOM     34  C   UNL     1       3.048 -10.405   0.226  0.00  0.00    +0.004 A 
ENDBRANCH  27  32
ENDBRANCH  26  27
ENDBRANCH   1  26
TORSDOF 6
