REMARK  Name = ZINC19520889
REMARK  11 active torsions:
REMARK  status: ('A' for Active; 'I' for Inactive)
REMARK    1  A    between atoms: C_1  and  C_2
REMARK    2  A    between atoms: C_2  and  C_3
REMARK    3  A    between atoms: C_6  and  C_30
REMARK    4  A    between atoms: C_10  and  C_13
REMARK    5  A    between atoms: N_15  and  C_16
REMARK    6  A    between atoms: C_16  and  C_17
REMARK    7  A    between atoms: C_17  and  C_19
REMARK    8  A    between atoms: C_17  and  N_26
REMARK    9  A    between atoms: C_22  and  C_25
REMARK   10  A    between atoms: N_26  and  C_27
REMARK   11  A    between atoms: N_26  and  C_28
REMARK                            x       y       z     vdW  Elec       q    Type
REMARK                         _______ _______ _______ _____ _____    ______ ____
ROOT
ATOM      1  C   UNL     1       0.126  -1.166  -4.083  0.00  0.00    +0.249 C 
ATOM      2  O   UNL     1       0.811  -2.169  -4.152  0.00  0.00    -0.270 OA
ATOM      3  N   UNL     1      -0.168  -0.633  -2.880  0.00  0.00    -0.312 N 
ATOM      4  H   UNL     1      -0.788   0.274  -2.818  0.00  0.00    +0.149 HD
ENDROOT
BRANCH   1  10
ATOM      5  C   UNL     1       0.921  -1.949  -8.445  0.00  0.00    +0.074 C 
ATOM      6  C   UNL     1      -0.334  -1.626  -9.262  0.00  0.00    +0.058 C 
ATOM      7  C   UNL     1      -0.816  -0.215  -8.893  0.00  0.00    +0.214 C 
ATOM      8  N   UNL     1      -0.804  -0.106  -7.429  0.00  0.00    -0.238 N 
ATOM      9  C   UNL     1      -0.158  -0.965  -6.610  0.00  0.00    +0.130 A 
ATOM     10  C   UNL     1      -0.381  -0.537  -5.308  0.00  0.00    +0.096 A 
ATOM     11  C   UNL     1      -1.185   0.626  -5.389  0.00  0.00    +0.149 A 
ATOM     12  N   UNL     1      -1.427   0.868  -6.648  0.00  0.00    -0.177 NA
ATOM     13  N   UNL     1       0.566  -2.064  -7.022  0.00  0.00    -0.326 N 
ATOM     14  H   UNL     1       0.881  -2.947  -6.447  0.00  0.00    +0.148 HD
BRANCH   7  15
ATOM     15  C   UNL     1      -2.238  -0.000  -9.418  0.00  0.00    +0.412 C 
ATOM     16  F   UNL     1      -2.684   1.272  -9.045  0.00  0.00    -0.168 F 
ATOM     17  F   UNL     1      -2.241  -0.106 -10.812  0.00  0.00    -0.168 F 
ATOM     18  F   UNL     1      -3.087  -0.970  -8.874  0.00  0.00    -0.168 F 
ENDBRANCH   7  15
BRANCH   5  20
ATOM     19  C   UNL     1       2.839  -3.532  -8.201  0.00  0.00    +0.006 C 
ATOM     20  C   UNL     1       1.519  -3.271  -8.930  0.00  0.00    +0.019 C 
ENDBRANCH   5  20
ENDBRANCH   1  10
BRANCH   3  21
ATOM     21  C   UNL     1       0.337  -1.260  -1.657  0.00  0.00    +0.094 C 
BRANCH  21  22
ATOM     22  C   UNL     1      -0.002  -0.379  -0.454  0.00  0.00    -0.021 C 
BRANCH  22  23
ATOM     23  C   UNL     1       0.419  -1.076   0.815  0.00  0.00    -0.059 A 
ATOM     24  C   UNL     1       1.740  -1.039   1.218  0.00  0.00    +0.002 A 
ATOM     25  C   UNL     1       2.126  -1.674   2.384  0.00  0.00    +0.003 A 
ATOM     26  C   UNL     1       1.191  -2.355   3.140  0.00  0.00    -0.050 A 
ATOM     27  C   UNL     1      -0.130  -2.397   2.734  0.00  0.00    +0.003 A 
ATOM     28  C   UNL     1      -0.516  -1.757   1.571  0.00  0.00    +0.002 A 
ATOM     29  C   UNL     1       1.612  -3.053   4.408  0.00  0.00    +0.044 C 
ENDBRANCH  22  23
BRANCH  22  30
ATOM     30  N   UNL     1       0.710   0.901  -0.568  0.00  0.00    +0.382 N 
ATOM     31  C   UNL     1       1.937   0.752  -1.363  0.00  0.00    -0.096 C 
ATOM     32  C   UNL     1      -0.161   1.940  -1.135  0.00  0.00    -0.096 C 
ATOM     33  H   UNL     1       1.000   1.219   0.445  0.00  0.00    -0.082 HD
ENDBRANCH  22  30
ENDBRANCH  21  22
ENDBRANCH   3  21
TORSDOF 7
