REMARK  Name = ZINC15074567
REMARK  12 active torsions:
REMARK  status: ('A' for Active; 'I' for Inactive)
REMARK    1  A    between atoms: C_2  and  C_3
REMARK    2  A    between atoms: C_3  and  C_4
REMARK    3  A    between atoms: C_4  and  C_26
REMARK    4  A    between atoms: C_8  and  C_9
REMARK    5  A    between atoms: C_8  and  N_64
REMARK    6  A    between atoms: C_14  and  O_15
REMARK    7  A    between atoms: O_15  and  C_16
REMARK    8  A    between atoms: C_16  and  C_17
REMARK    9  A    between atoms: C_17  and  C_19
REMARK   10  A    between atoms: C_17  and  O_25
REMARK   11  A    between atoms: C_19  and  N_66
REMARK   12  A    between atoms: C_26  and  C_27
REMARK                            x       y       z     vdW  Elec       q    Type
REMARK                         _______ _______ _______ _____ _____    ______ ____
ROOT
ATOM      1  C   UNL     1       1.457   1.366  -0.967  0.00  0.00    -0.022 A 
ATOM      2  C   UNL     1       2.806   1.377  -1.264  0.00  0.00    +0.005 A 
ATOM      3  C   UNL     1       3.399   2.530  -1.746  0.00  0.00    +0.000 A 
ATOM      4  C   UNL     1       2.645   3.674  -1.930  0.00  0.00    +0.004 A 
ATOM      5  C   UNL     1       1.296   3.668  -1.634  0.00  0.00    +0.046 A 
ATOM      6  C   UNL     1       0.697   2.511  -1.156  0.00  0.00    +0.122 A 
ENDROOT
BRANCH   1   7
ATOM      7  C   UNL     1       0.811   0.110  -0.443  0.00  0.00    -0.039 C 
BRANCH   7  12
ATOM      8  C   UNL     1      -0.368  -1.912  -1.097  0.00  0.00    -0.058 C 
ATOM      9  C   UNL     1      -1.640  -2.178  -1.923  0.00  0.00    -0.013 C 
ATOM     10  C   UNL     1      -1.787  -0.947  -2.846  0.00  0.00    -0.020 C 
ATOM     11  C   UNL     1      -0.967   0.141  -2.106  0.00  0.00    -0.078 C 
ATOM     12  N   UNL     1       0.162  -0.627  -1.569  0.00  0.00    +0.387 N 
ATOM     13  H   UNL     1       0.855  -0.789  -2.309  0.00  0.00    -0.081 HD
BRANCH   8  14
ATOM     14  C   UNL     1       0.651  -3.028  -1.336  0.00  0.00    +0.015 C 
BRANCH  14  16
ATOM     15  C   UNL     1       0.011  -5.324  -1.861  0.00  0.00    +0.004 C 
ATOM     16  C   UNL     1       0.035  -4.356  -0.979  0.00  0.00    -0.036 C 
ENDBRANCH  14  16
ENDBRANCH   8  14
BRANCH   8  17
ATOM     17  C   UNL     1      -0.719  -1.832   0.390  0.00  0.00    +0.015 C 
BRANCH  17  18
ATOM     18  C   UNL     1      -1.830  -0.834   0.591  0.00  0.00    -0.036 C 
ATOM     19  C   UNL     1      -2.949  -1.206   1.163  0.00  0.00    +0.004 C 
ENDBRANCH  17  18
ENDBRANCH   8  17
ENDBRANCH   7  12
ENDBRANCH   1   7
BRANCH   6  20
ATOM     20  O   UNL     1      -0.632   2.501  -0.869  0.00  0.00    -0.489 OA
BRANCH  20  21
ATOM     21  C   UNL     1      -1.373   3.680  -1.187  0.00  0.00    +0.258 C 
BRANCH  21  22
ATOM     22  C   UNL     1      -2.813   3.527  -0.692  0.00  0.00    +0.135 C 
BRANCH  22  23
ATOM     23  O   UNL     1      -2.819   3.435   0.734  0.00  0.00    -0.390 OA
ATOM     24  H   UNL     1      -2.445   4.207   1.179  0.00  0.00    +0.210 HD
ENDBRANCH  22  23
BRANCH  22  25
ATOM     25  C   UNL     1      -3.634   4.741  -1.129  0.00  0.00    -0.044 C 
BRANCH  25  31
ATOM     26  C   UNL     1      -5.665   3.438  -1.277  0.00  0.00    -0.068 C 
ATOM     27  C   UNL     1      -6.896   3.029  -0.459  0.00  0.00    +0.050 C 
ATOM     28  S   UNL     1      -8.067   4.421  -0.453  0.00  0.00    -0.164 S 
ATOM     29  C   UNL     1      -7.021   5.824   0.046  0.00  0.00    +0.050 C 
ATOM     30  C   UNL     1      -5.772   5.834  -0.844  0.00  0.00    -0.068 C 
ATOM     31  N   UNL     1      -5.007   4.588  -0.615  0.00  0.00    +0.382 N 
ATOM     32  H   UNL     1      -4.965   4.408   0.395  0.00  0.00    -0.082 HD
ENDBRANCH  25  31
ENDBRANCH  22  25
ENDBRANCH  21  22
ENDBRANCH  20  21
ENDBRANCH   6  20
TORSDOF 12
