REMARK  Name = ZINC08597561
REMARK  9 active torsions:
REMARK  status: ('A' for Active; 'I' for Inactive)
REMARK    1  A    between atoms: C_1  and  C_2
REMARK    2  A    between atoms: C_5  and  N_8
REMARK    3  A    between atoms: C_9  and  C_27
REMARK    4  A    between atoms: C_10  and  C_13
REMARK    5  A    between atoms: C_33  and  O_35
REMARK    6  A    between atoms: O_35  and  C_36
REMARK    7  A    between atoms: C_36  and  C_37
REMARK    8  A    between atoms: C_36  and  C_38
REMARK    9  A    between atoms: C_36  and  C_39
REMARK                            x       y       z     vdW  Elec       q    Type
REMARK                         _______ _______ _______ _____ _____    ______ ____
ROOT
ATOM      1  N   UNL     1      -0.003  -4.255   0.287  0.00  0.00    -0.236 N 
ATOM      2  C   UNL     1       0.758  -5.226   0.822  0.00  0.00    +0.060 A 
ATOM      3  C   UNL     1       0.464  -6.397   0.152  0.00  0.00    +0.078 A 
ATOM      4  C   UNL     1      -0.516  -6.088  -0.818  0.00  0.00    +0.148 A 
ATOM      5  N   UNL     1      -0.790  -4.816  -0.726  0.00  0.00    -0.174 NA
ENDROOT
BRANCH   3   6
ATOM      6  C   UNL     1       1.061  -7.722   0.402  0.00  0.00    +0.250 C 
ATOM      7  O   UNL     1       0.867  -8.286   1.462  0.00  0.00    -0.270 OA
ATOM      8  N   UNL     1       1.821  -8.308  -0.544  0.00  0.00    -0.294 N 
ATOM      9  C   UNL     1       1.986  -7.684  -1.864  0.00  0.00    +0.127 C 
ATOM     10  C   UNL     1       3.484  -7.509  -2.139  0.00  0.00    +0.125 C 
ATOM     11  N   UNL     1       4.163  -8.784  -1.870  0.00  0.00    -0.314 N 
ATOM     12  C   UNL     1       3.998  -9.409  -0.550  0.00  0.00    +0.125 C 
ATOM     13  C   UNL     1       2.504  -9.581  -0.272  0.00  0.00    +0.127 C 
ATOM     14  C   UNL     1       4.947  -9.389  -2.846  0.00  0.00    +0.099 A 
ATOM     15  C   UNL     1       5.205  -8.717  -4.036  0.00  0.00    +0.042 A 
ATOM     16  C   UNL     1       5.987  -9.330  -4.999  0.00  0.00    +0.005 A 
ATOM     17  C   UNL     1       6.485 -10.600  -4.737  0.00  0.00    +0.018 A 
ATOM     18  C   UNL     1       6.189 -11.208  -3.534  0.00  0.00    +0.084 A 
ATOM     19  N   UNL     1       5.445 -10.597  -2.632  0.00  0.00    -0.350 N 
ATOM     20  H   UNL     1       5.255 -11.045  -1.792  0.00  0.00    +0.166 HD
ENDBRANCH   3   6
BRANCH   2  21
ATOM     21  C   UNL     1       1.750  -5.066   1.945  0.00  0.00    +0.042 C 
ATOM     22  C   UNL     1       3.104  -5.636   1.515  0.00  0.00    +0.029 C 
ATOM     23  C   UNL     1       4.119  -5.440   2.646  0.00  0.00    +0.112 C 
ATOM     24  N   UNL     1       3.576  -6.034   3.876  0.00  0.00    -0.267 N 
ATOM     25  C   UNL     1       2.241  -5.623   4.330  0.00  0.00    +0.112 C 
ATOM     26  C   UNL     1       1.248  -5.817   3.180  0.00  0.00    +0.029 C 
ATOM     27  C   UNL     1       4.290  -6.940   4.574  0.00  0.00    +0.403 C 
ATOM     28  O   UNL     1       5.393  -7.272   4.187  0.00  0.00    -0.226 OA
BRANCH  27  29
ATOM     29  O   UNL     1       3.781  -7.476   5.699  0.00  0.00    -0.445 OA
BRANCH  29  30
ATOM     30  C   UNL     1       4.593  -8.429   6.388  0.00  0.00    +0.107 C 
ATOM     31  C   UNL     1       5.910  -7.771   6.805  0.00  0.00    +0.055 C 
ATOM     32  C   UNL     1       3.853  -8.924   7.633  0.00  0.00    +0.055 C 
ATOM     33  C   UNL     1       4.885  -9.613   5.464  0.00  0.00    +0.055 C 
ENDBRANCH  29  30
ENDBRANCH  27  29
ENDBRANCH   2  21
BRANCH   1  38
ATOM     34  C   UNL     1      -0.036   1.192   1.879  0.00  0.00    +0.044 C 
ATOM     35  C   UNL     1      -0.028  -0.254   1.456  0.00  0.00    -0.050 A 
ATOM     36  C   UNL     1       1.175  -0.916   1.285  0.00  0.00    +0.005 A 
ATOM     37  C   UNL     1       1.186  -2.241   0.897  0.00  0.00    +0.028 A 
ATOM     38  C   UNL     1      -0.011  -2.910   0.680  0.00  0.00    +0.066 A 
ATOM     39  C   UNL     1      -1.217  -2.243   0.854  0.00  0.00    +0.028 A 
ATOM     40  C   UNL     1      -1.222  -0.919   1.246  0.00  0.00    +0.005 A 
ENDBRANCH   1  38
TORSDOF 5
