REMARK  Name = ZINC39711249
REMARK  10 active torsions:
REMARK  status: ('A' for Active; 'I' for Inactive)
REMARK    1  A    between atoms: C_1  and  C_2
REMARK    2  A    between atoms: C_6  and  C_15
REMARK    3  A    between atoms: C_13  and  C_14
REMARK    4  A    between atoms: C_15  and  C_17
REMARK    5  A    between atoms: C_15  and  N_28
REMARK    6  A    between atoms: N_22  and  C_23
REMARK    7  A    between atoms: N_28  and  C_29
REMARK    8  A    between atoms: N_28  and  C_36
REMARK    9  A    between atoms: C_29  and  C_30
REMARK   10  A    between atoms: C_36  and  C_37
REMARK                            x       y       z     vdW  Elec       q    Type
REMARK                         _______ _______ _______ _____ _____    ______ ____
ROOT
ATOM      1  C   UNL     1       2.052  -6.316  -1.673  0.00  0.00    -0.009 C 
ENDROOT
BRANCH   1   7
ATOM      2  C   UNL     1      -4.842  -4.638  -0.860  0.00  0.00    +0.044 C 
ATOM      3  C   UNL     1      -3.397  -4.636  -0.433  0.00  0.00    -0.047 A 
ATOM      4  C   UNL     1      -2.562  -5.597  -0.906  0.00  0.00    +0.013 A 
ATOM      5  C   UNL     1      -1.161  -5.585  -0.485  0.00  0.00    -0.007 A 
ATOM      6  C   UNL     1      -0.287  -6.530  -0.935  0.00  0.00    -0.006 C 
ATOM      7  C   UNL     1       1.145  -6.440  -0.447  0.00  0.00    +0.088 C 
ATOM      8  C   UNL     1       1.488  -5.310   0.498  0.00  0.00    +0.223 C 
ATOM      9  O   UNL     1       2.623  -5.190   0.920  0.00  0.00    -0.275 OA
ATOM     10  N   UNL     1       0.550  -4.453   0.863  0.00  0.00    -0.285 N 
ATOM     11  C   UNL     1      -0.711  -4.528   0.437  0.00  0.00    +0.041 A 
ATOM     12  C   UNL     1      -1.656  -3.579   0.867  0.00  0.00    +0.027 A 
ATOM     13  C   UNL     1      -2.943  -3.643   0.435  0.00  0.00    -0.046 A 
ATOM     14  C   UNL     1      -3.920  -2.602   0.918  0.00  0.00    +0.044 C 
ATOM     15  H   UNL     1       0.791  -3.735   1.470  0.00  0.00    +0.155 HD
ENDBRANCH   1   7
BRANCH   1  16
ATOM     16  C   UNL     1       3.125  -5.258  -1.410  0.00  0.00    +0.205 C 
ATOM     17  N   UNL     1       2.521  -4.046  -0.840  0.00  0.00    -0.152 NA
ATOM     18  N   UNL     1       2.726  -3.101  -1.605  0.00  0.00    -0.070 NA
ATOM     19  N   UNL     1       3.446  -3.469  -2.741  0.00  0.00    -0.179 N 
ATOM     20  N   UNL     1       3.732  -4.811  -2.681  0.00  0.00    -0.185 NA
ATOM     21  H   UNL     1       3.706  -2.871  -3.459  0.00  0.00    +0.191 HD
BRANCH  20  22
ATOM     22  C   UNL     1       3.147  -5.526  -3.824  0.00  0.00    +0.080 C 
ATOM     23  C   UNL     1       4.146  -5.553  -4.998  0.00  0.00    +0.021 C 
ATOM     24  C   UNL     1       3.258  -5.394  -6.257  0.00  0.00    +0.002 C 
ATOM     25  C   UNL     1       2.182  -4.383  -5.790  0.00  0.00    +0.002 C 
ATOM     26  C   UNL     1       1.897  -4.782  -4.327  0.00  0.00    +0.021 C 
ENDBRANCH  20  22
ENDBRANCH   1  16
BRANCH   1  27
ATOM     27  N   UNL     1       2.695  -7.610  -1.939  0.00  0.00    +0.390 N 
ATOM     28  H   UNL     1       3.350  -7.510  -2.700  0.00  0.00    -0.080 HD
BRANCH  27  29
ATOM     29  C   UNL     1       3.407  -8.060  -0.735  0.00  0.00    -0.042 C 
BRANCH  29  30
ATOM     30  C   UNL     1       4.167  -9.324  -1.044  0.00  0.00    -0.064 A 
ATOM     31  C   UNL     1       3.561 -10.554  -0.870  0.00  0.00    +0.002 A 
ATOM     32  C   UNL     1       4.258 -11.714  -1.153  0.00  0.00    +0.000 A 
ATOM     33  C   UNL     1       5.561 -11.643  -1.610  0.00  0.00    +0.000 A 
ATOM     34  C   UNL     1       6.167 -10.413  -1.784  0.00  0.00    +0.000 A 
ATOM     35  C   UNL     1       5.468  -9.253  -1.506  0.00  0.00    +0.002 A 
ENDBRANCH  29  30
ENDBRANCH  27  29
BRANCH  27  36
ATOM     36  C   UNL     1       1.672  -8.600  -2.301  0.00  0.00    -0.040 C 
BRANCH  36  37
ATOM     37  C   UNL     1       1.455  -8.576  -3.792  0.00  0.00    -0.046 A 
ATOM     38  C   UNL     1       0.481  -7.759  -4.346  0.00  0.00    +0.005 A 
ATOM     39  C   UNL     1       0.317  -7.769  -5.723  0.00  0.00    +0.020 A 
ATOM     40  C   UNL     1       1.123  -8.588  -6.492  0.00  0.00    +0.111 A 
ATOM     41  N   UNL     1       2.038  -9.352  -5.930  0.00  0.00    -0.263 NA
ATOM     42  C   UNL     1       2.227  -9.364  -4.625  0.00  0.00    +0.112 A 
ENDBRANCH  36  37
ENDBRANCH  27  36
ENDBRANCH   1  27
TORSDOF 8
