REMARK  Name = ZINC66679319
REMARK  6 active torsions:
REMARK  status: ('A' for Active; 'I' for Inactive)
REMARK    1  A    between atoms: C_1  and  C_2
REMARK    2  A    between atoms: C_2  and  C_4
REMARK    3  A    between atoms: C_2  and  N_11
REMARK    4  A    between atoms: N_11  and  C_12
REMARK    5  A    between atoms: N_15  and  C_16
REMARK    6  A    between atoms: C_20  and  C_22
REMARK                            x       y       z     vdW  Elec       q    Type
REMARK                         _______ _______ _______ _____ _____    ______ ____
ROOT
ATOM      1  N   UNL     1       1.047  -0.641   1.371  0.00  0.00    -0.282 N 
ATOM      2  C   UNL     1       2.199   0.160   1.794  0.00  0.00    +0.134 C 
ATOM      3  C   UNL     1       0.560  -1.602   2.180  0.00  0.00    +0.307 C 
ATOM      4  O   UNL     1      -0.395  -2.266   1.829  0.00  0.00    -0.252 OA
ATOM      5  N   UNL     1       1.133  -1.826   3.380  0.00  0.00    -0.269 N 
ATOM      6  H   UNL     1       1.938  -1.347   3.630  0.00  0.00    +0.156 HD
ENDROOT
BRANCH   5   7
ATOM      7  C   UNL     1       0.565  -2.751   4.264  0.00  0.00    +0.035 A 
ATOM      8  C   UNL     1       1.380  -3.496   5.107  0.00  0.00    +0.023 A 
ATOM      9  C   UNL     1       0.824  -4.411   5.981  0.00  0.00    +0.002 A 
ATOM     10  C   UNL     1      -0.545  -4.590   6.021  0.00  0.00    +0.010 A 
ATOM     11  C   UNL     1      -1.370  -3.846   5.179  0.00  0.00    +0.004 A 
ATOM     12  C   UNL     1      -0.810  -2.920   4.302  0.00  0.00    +0.033 A 
BRANCH  11  13
ATOM     13  C   UNL     1      -2.841  -4.037   5.220  0.00  0.00    +0.091 A 
ATOM     14  C   UNL     1      -3.405  -4.971   6.120  0.00  0.00    +0.035 A 
ATOM     15  C   UNL     1      -4.761  -5.119   6.130  0.00  0.00    +0.073 A 
ATOM     16  C   UNL     1      -5.519  -4.329   5.239  0.00  0.00    +0.265 A 
ATOM     17  O   UNL     1      -6.735  -4.427   5.213  0.00  0.00    -0.266 OA
ATOM     18  N   UNL     1      -4.891  -3.466   4.419  0.00  0.00    -0.243 N 
ATOM     19  H   UNL     1      -5.417  -2.925   3.809  0.00  0.00    +0.192 HD
ATOM     20  N   UNL     1      -3.613  -3.335   4.425  0.00  0.00    -0.171 NA
ENDBRANCH  11  13
ENDBRANCH   5   7
BRANCH   1  22
ATOM     21  C   UNL     1       0.004   1.071  -0.031  0.00  0.00    +0.033 C 
ATOM     22  C   UNL     1       0.425  -0.397   0.067  0.00  0.00    +0.107 C 
BRANCH  22  23
ATOM     23  C   UNL     1       1.413  -0.710  -1.028  0.00  0.00    +0.008 A 
ATOM     24  C   UNL     1       2.030   0.317  -1.716  0.00  0.00    +0.008 A 
ATOM     25  C   UNL     1       2.936   0.030  -2.720  0.00  0.00    +0.000 A 
ATOM     26  C   UNL     1       3.226  -1.285  -3.036  0.00  0.00    +0.003 A 
ATOM     27  C   UNL     1       2.610  -2.313  -2.349  0.00  0.00    +0.039 A 
ATOM     28  C   UNL     1       1.706  -2.027  -1.339  0.00  0.00    +0.128 A 
ATOM     29  F   UNL     1       1.107  -3.031  -0.663  0.00  0.00    -0.205 F 
ENDBRANCH  22  23
ENDBRANCH   1  22
TORSDOF 4
