REMARK  Name = ZINC34748219
REMARK  6 active torsions:
REMARK  status: ('A' for Active; 'I' for Inactive)
REMARK    1  A    between atoms: C_1  and  C_2
REMARK    2  A    between atoms: C_2  and  C_4
REMARK    3  A    between atoms: C_4  and  N_5
REMARK    4  A    between atoms: N_18  and  C_21
REMARK    5  A    between atoms: C_21  and  C_22
REMARK    6  A    between atoms: N_24  and  C_25
REMARK                            x       y       z     vdW  Elec       q    Type
REMARK                         _______ _______ _______ _____ _____    ______ ____
ROOT
ATOM      1  N   UNL     1      -2.189  -0.151  -1.313  0.00  0.00    -0.276 N 
ATOM      2  C   UNL     1      -3.062  -1.092  -0.906  0.00  0.00    +0.264 A 
ATOM      3  O   UNL     1      -3.227  -1.312   0.282  0.00  0.00    -0.267 OA
ATOM      4  C   UNL     1      -3.794  -1.829  -1.889  0.00  0.00    +0.076 A 
ATOM      5  C   UNL     1      -4.789  -2.892  -1.671  0.00  0.00    -0.023 A 
ATOM      6  C   UNL     1      -5.344  -3.439  -2.764  0.00  0.00    -0.004 A 
ATOM      7  S   UNL     1      -4.595  -2.589  -4.135  0.00  0.00    -0.073 S 
ATOM      8  C   UNL     1      -3.531  -1.498  -3.226  0.00  0.00    +0.117 A 
ATOM      9  N   UNL     1      -2.655  -0.558  -3.562  0.00  0.00    -0.208 NA
ATOM     10  C   UNL     1      -1.998   0.111  -2.637  0.00  0.00    +0.202 A 
ATOM     11  N   UNL     1      -1.103   1.082  -3.012  0.00  0.00    -0.304 N 
ATOM     12  C   UNL     1       0.253   1.121  -2.443  0.00  0.00    +0.089 C 
ATOM     13  C   UNL     1       1.260   1.224  -3.594  0.00  0.00    -0.059 C 
ATOM     14  N   UNL     1       0.922   2.379  -4.436  0.00  0.00    +0.387 N 
ATOM     15  C   UNL     1      -0.384   2.169  -5.072  0.00  0.00    -0.059 C 
ATOM     16  C   UNL     1      -1.471   2.109  -3.999  0.00  0.00    +0.089 C 
ATOM     17  C   UNL     1      -6.339  -4.514  -2.420  0.00  0.00    +0.043 C 
ATOM     18  C   UNL     1      -6.025  -4.877  -0.951  0.00  0.00    +0.010 C 
ATOM     19  C   UNL     1      -5.389  -3.571  -0.436  0.00  0.00    +0.037 C 
ATOM     20  H   UNL     1       0.888   3.211  -3.866  0.00  0.00    -0.081 HD
ENDROOT
BRANCH   1  21
ATOM     21  C   UNL     1      -1.436   0.610  -0.314  0.00  0.00    +0.158 C 
BRANCH  21  23
ATOM     22  C   UNL     1      -2.233   3.075  -0.633  0.00  0.00    +0.040 C 
ATOM     23  C   UNL     1      -2.258   1.786   0.147  0.00  0.00    -0.060 C 
ATOM     24  C   UNL     1      -2.994   1.688   1.226  0.00  0.00    +0.009 C 
ENDBRANCH  21  23
ENDBRANCH   1  21
BRANCH  14  25
ATOM     25  C   UNL     1       1.950   2.543  -5.473  0.00  0.00    +0.019 C 
BRANCH  25  26
ATOM     26  C   UNL     1       1.672   3.797  -6.261  0.00  0.00    +0.197 C 
ATOM     27  O   UNL     1       0.713   4.487  -5.985  0.00  0.00    -0.278 OA
ATOM     28  N   UNL     1       2.490   4.152  -7.272  0.00  0.00    -0.314 N 
ATOM     29  H   UNL     1       3.256   3.601  -7.492  0.00  0.00    +0.149 HD
BRANCH  28  30
ATOM     30  C   UNL     1       2.220   5.372  -8.038  0.00  0.00    +0.073 C 
ATOM     31  C   UNL     1       1.217   5.063  -9.152  0.00  0.00    +0.022 C 
ATOM     32  C   UNL     1       0.936   6.337  -9.951  0.00  0.00    +0.002 C 
ATOM     33  C   UNL     1       2.239   6.852 -10.566  0.00  0.00    +0.000 C 
ATOM     34  C   UNL     1       3.241   7.160  -9.452  0.00  0.00    +0.002 C 
ATOM     35  C   UNL     1       3.523   5.887  -8.652  0.00  0.00    +0.022 C 
ENDBRANCH  28  30
ENDBRANCH  25  26
ENDBRANCH  14  25
TORSDOF 5
