REMARK  Name = ZINC36658049
REMARK  5 active torsions:
REMARK  status: ('A' for Active; 'I' for Inactive)
REMARK    1  A    between atoms: C_1  and  C_2
REMARK    2  A    between atoms: C_2  and  C_3
REMARK    3  A    between atoms: C_6  and  C_9
REMARK    4  A    between atoms: C_9  and  C_10
REMARK    5  A    between atoms: C_16  and  C_18
REMARK                            x       y       z     vdW  Elec       q    Type
REMARK                         _______ _______ _______ _____ _____    ______ ____
ROOT
ATOM      1  C   UNL     1      -6.383  -0.846   0.053  0.00  0.00    +0.223 A 
ATOM      2  N   UNL     1      -6.888  -0.257  -0.992  0.00  0.00    -0.111 NA
ATOM      3  N   UNL     1      -7.671   0.691  -0.615  0.00  0.00    -0.092 NA
ATOM      4  C   UNL     1      -7.693   0.739   0.695  0.00  0.00    +0.314 A 
ATOM      5  O   UNL     1      -6.883  -0.236   1.144  0.00  0.00    -0.409 OA
ATOM      6  N   UNL     1      -8.420   1.627   1.472  0.00  0.00    -0.234 N 
ATOM      7  C   UNL     1      -9.200   2.555   0.883  0.00  0.00    +0.259 C 
ATOM      8  O   UNL     1      -9.267   2.614  -0.330  0.00  0.00    -0.269 OA
ATOM      9  H   UNL     1      -8.368   1.581   2.439  0.00  0.00    +0.160 HD
ENDROOT
BRANCH   7  10
ATOM     10  C   UNL     1      -9.972   3.498   1.708  0.00  0.00    +0.122 A 
ATOM     11  C   UNL     1     -10.793   4.466   1.131  0.00  0.00    +0.032 A 
ATOM     12  C   UNL     1     -11.475   5.351   1.989  0.00  0.00    +0.026 A 
ATOM     13  C   UNL     1     -12.515   6.244   1.473  0.00  0.00    -0.007 A 
ATOM     14  C   UNL     1     -12.855   6.267   0.118  0.00  0.00    +0.009 A 
ATOM     15  C   UNL     1     -13.831   7.115  -0.319  0.00  0.00    +0.001 A 
ATOM     16  C   UNL     1     -14.493   7.958   0.568  0.00  0.00    +0.001 A 
ATOM     17  C   UNL     1     -14.185   7.959   1.896  0.00  0.00    +0.008 A 
ATOM     18  C   UNL     1     -13.187   7.099   2.379  0.00  0.00    -0.017 A 
ATOM     19  C   UNL     1     -12.843   7.072   3.745  0.00  0.00    +0.012 A 
ATOM     20  C   UNL     1     -11.870   6.247   4.208  0.00  0.00    +0.047 A 
ATOM     21  C   UNL     1     -11.170   5.387   3.357  0.00  0.00    +0.140 A 
ATOM     22  O   UNL     1     -10.181   4.604   3.849  0.00  0.00    -0.422 OA
ATOM     23  C   UNL     1      -9.916   3.456   3.179  0.00  0.00    +0.350 A 
ATOM     24  O   UNL     1      -9.639   2.428   3.770  0.00  0.00    -0.244 OA
ENDBRANCH   7  10
BRANCH   1  25
ATOM     25  C   UNL     1      -5.419  -2.005   0.043  0.00  0.00    +0.132 C 
BRANCH  25  29
ATOM     26  C   UNL     1      -1.412  -0.526   0.013  0.00  0.00    -0.048 A 
ATOM     27  C   UNL     1      -2.051  -0.766   1.215  0.00  0.00    +0.004 A 
ATOM     28  C   UNL     1      -3.348  -1.244   1.225  0.00  0.00    +0.004 A 
ATOM     29  C   UNL     1      -4.006  -1.482   0.032  0.00  0.00    -0.038 A 
ATOM     30  C   UNL     1      -3.367  -1.241  -1.170  0.00  0.00    +0.004 A 
ATOM     31  C   UNL     1      -2.072  -0.758  -1.179  0.00  0.00    +0.004 A 
BRANCH  26  33
ATOM     32  C   UNL     1      -0.019   1.526   0.010  0.00  0.00    +0.009 C 
ATOM     33  C   UNL     1       0.002  -0.004   0.002  0.00  0.00    +0.032 C 
ENDBRANCH  26  33
ENDBRANCH  25  29
ENDBRANCH   1  25
TORSDOF 4
