REMARK  Name = ZINC08788482
REMARK  13 active torsions:
REMARK  status: ('A' for Active; 'I' for Inactive)
REMARK    1  A    between atoms: C_1  and  C_2
REMARK    2  A    between atoms: C_2  and  C_3
REMARK    3  A    between atoms: C_2  and  C_4
REMARK    4  A    between atoms: C_9  and  O_10
REMARK    5  A    between atoms: O_10  and  C_11
REMARK    6  A    between atoms: C_17  and  O_33
REMARK    7  A    between atoms: C_18  and  C_26
REMARK    8  A    between atoms: C_21  and  C_22
REMARK    9  A    between atoms: C_26  and  N_60
REMARK   10  A    between atoms: C_27  and  C_28
REMARK   11  A    between atoms: C_27  and  N_60
REMARK   12  A    between atoms: C_30  and  C_31
REMARK   13  A    between atoms: C_30  and  N_60
REMARK                            x       y       z     vdW  Elec       q    Type
REMARK                         _______ _______ _______ _____ _____    ______ ____
ROOT
ATOM      1  C   UNL     1      -2.957   3.812  -0.155  0.00  0.00    +0.222 A 
ATOM      2  C   UNL     1      -1.715   4.482   0.035  0.00  0.00    +0.235 A 
ATOM      3  O   UNL     1      -1.652   5.699   0.096  0.00  0.00    -0.283 OA
ATOM      4  C   UNL     1      -0.509   3.645   0.155  0.00  0.00    +0.068 A 
ATOM      5  C   UNL     1       0.753   4.210   0.343  0.00  0.00    +0.019 A 
ATOM      6  C   UNL     1       1.849   3.401   0.450  0.00  0.00    +0.046 A 
ATOM      7  C   UNL     1       1.712   2.016   0.373  0.00  0.00    +0.122 A 
ATOM      8  C   UNL     1       0.467   1.440   0.187  0.00  0.00    +0.020 A 
ATOM      9  C   UNL     1      -0.655   2.249   0.070  0.00  0.00    +0.144 A 
ATOM     10  O   UNL     1      -1.880   1.714  -0.106  0.00  0.00    -0.447 OA
ATOM     11  C   UNL     1      -2.983   2.465  -0.216  0.00  0.00    +0.254 A 
ENDROOT
BRANCH  11  12
ATOM     12  C   UNL     1      -4.309   1.778  -0.417  0.00  0.00    +0.454 C 
ATOM     13  F   UNL     1      -4.550   1.621  -1.786  0.00  0.00    -0.163 F 
ATOM     14  F   UNL     1      -4.280   0.521   0.199  0.00  0.00    -0.163 F 
ATOM     15  F   UNL     1      -5.326   2.552   0.151  0.00  0.00    -0.163 F 
ENDBRANCH  11  12
BRANCH   7  16
ATOM     16  O   UNL     1       2.810   1.225   0.482  0.00  0.00    -0.506 OA
ATOM     17  H   UNL     1       3.242   1.033  -0.362  0.00  0.00    +0.292 HD
ENDBRANCH   7  16
BRANCH   1  18
ATOM     18  O   UNL     1      -4.110   4.526  -0.273  0.00  0.00    -0.448 OA
BRANCH  18  24
ATOM     19  C   UNL     1      -5.665   5.641  -1.686  0.00  0.00    -0.003 A 
ATOM     20  C   UNL     1      -6.055   6.032  -2.952  0.00  0.00    +0.007 A 
ATOM     21  C   UNL     1      -5.284   5.698  -4.049  0.00  0.00    +0.001 A 
ATOM     22  C   UNL     1      -4.119   4.972  -3.883  0.00  0.00    +0.004 A 
ATOM     23  C   UNL     1      -3.721   4.582  -2.619  0.00  0.00    +0.046 A 
ATOM     24  C   UNL     1      -4.496   4.912  -1.516  0.00  0.00    +0.132 A 
BRANCH  19  26
ATOM     25  C   UNL     1      -6.615   7.528  -0.388  0.00  0.00    +0.012 C 
ATOM     26  C   UNL     1      -6.506   6.006  -0.490  0.00  0.00    +0.016 C 
ATOM     27  C   UNL     1      -7.904   5.404  -0.648  0.00  0.00    +0.012 C 
ENDBRANCH  19  26
ENDBRANCH  18  24
ENDBRANCH   1  18
BRANCH   8  28
ATOM     28  C   UNL     1       0.332  -0.058   0.104  0.00  0.00    -0.035 C 
BRANCH  28  29
ATOM     29  N   UNL     1       0.131  -0.595   1.467  0.00  0.00    +0.387 N 
ATOM     30  H   UNL     1       0.868  -0.230   2.081  0.00  0.00    -0.080 HD
BRANCH  29  31
ATOM     31  C   UNL     1      -1.184  -0.166   1.989  0.00  0.00    -0.051 C 
BRANCH  31  32
ATOM     32  C   UNL     1      -2.299  -0.790   1.190  0.00  0.00    -0.053 C 
ATOM     33  C   UNL     1      -3.226  -1.490   1.796  0.00  0.00    +0.002 C 
ENDBRANCH  31  32
ENDBRANCH  29  31
BRANCH  29  34
ATOM     34  C   UNL     1       0.209  -2.070   1.445  0.00  0.00    -0.051 C 
BRANCH  34  35
ATOM     35  C   UNL     1       0.162  -2.581   2.862  0.00  0.00    -0.053 C 
ATOM     36  C   UNL     1      -0.730  -3.476   3.207  0.00  0.00    +0.002 C 
ENDBRANCH  34  35
ENDBRANCH  29  34
ENDBRANCH  28  29
ENDBRANCH   8  28
TORSDOF 11
