REMARK  Name = ZINC00646957
REMARK  5 active torsions:
REMARK  status: ('A' for Active; 'I' for Inactive)
REMARK    1  A    between atoms: C_3  and  C_6
REMARK    2  A    between atoms: C_9  and  C_32
REMARK    3  A    between atoms: C_14  and  C_16
REMARK    4  A    between atoms: N_18  and  C_19
REMARK    5  A    between atoms: C_20  and  C_28
REMARK                            x       y       z     vdW  Elec       q    Type
REMARK                         _______ _______ _______ _____ _____    ______ ____
ROOT
ATOM      1  C   UNL     1      -1.208  -0.902   0.008  0.00  0.00    +0.140 C 
ATOM      2  C   UNL     1      -1.781  -0.996  -1.409  0.00  0.00    +0.066 C 
ATOM      3  C   UNL     1      -1.995   0.423  -1.956  0.00  0.00    +0.215 C 
ATOM      4  N   UNL     1      -2.672   1.206  -0.915  0.00  0.00    -0.237 N 
ATOM      5  C   UNL     1      -2.761   0.827   0.392  0.00  0.00    +0.133 A 
ATOM      6  C   UNL     1      -3.450   1.787   1.054  0.00  0.00    +0.089 A 
ATOM      7  C   UNL     1      -3.796   2.789   0.121  0.00  0.00    +0.163 A 
ATOM      8  N   UNL     1      -3.323   2.432  -1.060  0.00  0.00    -0.163 NA
ATOM      9 BR   UNL     1      -3.874   1.785   2.897  0.00  0.00    -0.044 Br
ATOM     10  N   UNL     1      -2.224  -0.348   0.916  0.00  0.00    -0.318 N 
ATOM     11  H   UNL     1      -2.949  -1.024   1.104  0.00  0.00    +0.148 HD
ENDROOT
BRANCH   1  14
ATOM     12  C   UNL     1       2.084   0.754  -0.014  0.00  0.00    +0.041 A 
ATOM     13  C   UNL     1       1.284  -0.412  -0.012  0.00  0.00    +0.046 A 
ATOM     14  C   UNL     1       0.002  -0.004   0.002  0.00  0.00    +0.125 A 
ATOM     15  O   UNL     1      -0.016   1.339   0.009  0.00  0.00    -0.466 OA
ATOM     16  C   UNL     1       1.244   1.804  -0.000  0.00  0.00    +0.195 A 
ENDBRANCH   1  14
BRANCH   7  17
ATOM     17  C   UNL     1      -4.552   4.023   0.414  0.00  0.00    +0.270 C 
ATOM     18  O   UNL     1      -4.937   4.245   1.546  0.00  0.00    -0.268 OA
ATOM     19  N   UNL     1      -4.816   4.902  -0.572  0.00  0.00    -0.274 N 
ATOM     20  H   UNL     1      -4.509   4.725  -1.475  0.00  0.00    +0.156 HD
BRANCH  19  21
ATOM     21  C   UNL     1      -5.527   6.061  -0.297  0.00  0.00    +0.090 A 
ATOM     22  C   UNL     1      -5.893   7.075  -1.169  0.00  0.00    +0.084 A 
ATOM     23  C   UNL     1      -6.643   8.193  -0.623  0.00  0.00    -0.018 A 
ATOM     24  C   UNL     1      -6.906   8.117   0.701  0.00  0.00    -0.004 A 
ATOM     25  S   UNL     1      -6.180   6.588   1.219  0.00  0.00    -0.077 S 
ATOM     26  C   UNL     1      -7.653   9.114   1.532  0.00  0.00    +0.043 C 
ATOM     27  C   UNL     1      -7.759  10.424   0.736  0.00  0.00    +0.005 C 
ATOM     28  C   UNL     1      -8.229  10.101  -0.685  0.00  0.00    +0.005 C 
ATOM     29  C   UNL     1      -7.117   9.381  -1.450  0.00  0.00    +0.037 C 
BRANCH  22  30
ATOM     30  C   UNL     1      -5.544   7.023  -2.557  0.00  0.00    +0.102 C 
ATOM     31  N   UNL     1      -5.267   6.981  -3.658  0.00  0.00    -0.191 NA
ENDBRANCH  22  30
ENDBRANCH  19  21
ENDBRANCH   7  17
BRANCH   3  32
ATOM     32  C   UNL     1      -2.867   0.368  -3.212  0.00  0.00    +0.412 C 
ATOM     33  F   UNL     1      -4.106  -0.198  -2.895  0.00  0.00    -0.168 F 
ATOM     34  F   UNL     1      -3.058   1.664  -3.704  0.00  0.00    -0.168 F 
ATOM     35  F   UNL     1      -2.233  -0.411  -4.186  0.00  0.00    -0.168 F 
ENDBRANCH   3  32
TORSDOF 5
