REMARK  Name = ZINC66402851
REMARK  4 active torsions:
REMARK  status: ('A' for Active; 'I' for Inactive)
REMARK    1  A    between atoms: C_8  and  C_12
REMARK    2  A    between atoms: C_12  and  N_13
REMARK    3  A    between atoms: N_16  and  C_17
REMARK    4  A    between atoms: C_19  and  C_25
REMARK                            x       y       z     vdW  Elec       q    Type
REMARK                         _______ _______ _______ _____ _____    ______ ____
ROOT
ATOM      1  N   UNL     1       3.803  -4.806  -0.861  0.00  0.00    -0.299 N 
ATOM      2  C   UNL     1       4.108  -6.113  -0.735  0.00  0.00    +0.304 C 
ATOM      3  O   UNL     1       3.279  -6.892  -0.306  0.00  0.00    -0.253 OA
ATOM      4  N   UNL     1       5.332  -6.556  -1.085  0.00  0.00    -0.265 N 
ATOM      5  H   UNL     1       4.465  -4.184  -1.203  0.00  0.00    +0.150 HD
ATOM      6  H   UNL     1       5.968  -5.950  -1.495  0.00  0.00    +0.157 HD
ENDROOT
BRANCH   4   7
ATOM      7  C   UNL     1       5.686  -7.893  -0.855  0.00  0.00    +0.100 A 
ATOM      8  C   UNL     1       6.069  -8.696  -1.893  0.00  0.00    +0.042 A 
ATOM      9  C   UNL     1       6.418 -10.030  -1.635  0.00  0.00    +0.073 A 
ATOM     10  C   UNL     1       6.374 -10.508  -0.371  0.00  0.00    +0.098 A 
ATOM     11  N   UNL     1       5.993  -9.712   0.662  0.00  0.00    -0.327 N 
ATOM     12  H   UNL     1       5.968 -10.074   1.562  0.00  0.00    +0.168 HD
ATOM     13  C   UNL     1       5.657  -8.425   0.453  0.00  0.00    +0.270 A 
ATOM     14  O   UNL     1       5.322  -7.720   1.392  0.00  0.00    -0.266 OA
BRANCH   9  15
ATOM     15  C   UNL     1       6.842 -10.929  -2.768  0.00  0.00    +0.419 C 
ATOM     16  F   UNL     1       7.139 -12.201  -2.266  0.00  0.00    -0.166 F 
ATOM     17  F   UNL     1       5.804 -11.026  -3.701  0.00  0.00    -0.166 F 
ATOM     18  F   UNL     1       7.978 -10.396  -3.387  0.00  0.00    -0.166 F 
ENDBRANCH   9  15
ENDBRANCH   4   7
BRANCH   1  19
ATOM     19  C   UNL     1       2.473  -4.324  -0.480  0.00  0.00    +0.113 C 
BRANCH  19  27
ATOM     20  C   UNL     1      -0.322   1.214  -0.462  0.00  0.00    +0.000 A 
ATOM     21  C   UNL     1       0.836   1.946  -0.277  0.00  0.00    +0.004 A 
ATOM     22  C   UNL     1       2.048   1.297  -0.150  0.00  0.00    +0.046 A 
ATOM     23  C   UNL     1       2.108  -0.092  -0.206  0.00  0.00    +0.124 A 
ATOM     24  C   UNL     1       0.946  -0.821  -0.388  0.00  0.00    -0.005 A 
ATOM     25  C   UNL     1      -0.267  -0.165  -0.517  0.00  0.00    +0.007 A 
ATOM     26  C   UNL     1       0.965  -2.328  -0.443  0.00  0.00    +0.047 C 
ATOM     27  C   UNL     1       2.389  -2.816  -0.720  0.00  0.00    +0.048 C 
ATOM     28  C   UNL     1       3.343  -2.086   0.235  0.00  0.00    +0.234 C 
ATOM     29  O   UNL     1       3.319  -0.694  -0.082  0.00  0.00    -0.491 OA
ENDBRANCH  19  27
ENDBRANCH   1  19
TORSDOF 4
