REMARK  Name = ZINC64055299
REMARK  8 active torsions:
REMARK  status: ('A' for Active; 'I' for Inactive)
REMARK    1  A    between atoms: C_7  and  C_10
REMARK    2  A    between atoms: C_10  and  C_11
REMARK    3  A    between atoms: C_11  and  C_13
REMARK    4  A    between atoms: C_11  and  N_27
REMARK    5  A    between atoms: C_13  and  O_15
REMARK    6  A    between atoms: O_15  and  C_16
REMARK    7  A    between atoms: C_16  and  C_17
REMARK    8  A    between atoms: C_28  and  C_30
REMARK                            x       y       z     vdW  Elec       q    Type
REMARK                         _______ _______ _______ _____ _____    ______ ____
ROOT
ATOM      1  C   UNL     1       0.457  -3.654  -1.469  0.00  0.00    +0.186 C 
ENDROOT
BRANCH   1   2
ATOM      2  N   UNL     1      -0.237  -2.605  -2.219  0.00  0.00    -0.298 N 
ATOM      3  C   UNL     1      -1.450  -2.178  -1.815  0.00  0.00    +0.251 C 
ATOM      4  O   UNL     1      -1.968  -2.664  -0.827  0.00  0.00    -0.270 OA
ATOM      5  H   UNL     1       0.176  -2.217  -3.007  0.00  0.00    +0.150 HD
BRANCH   3   6
ATOM      6  C   UNL     1      -2.144  -1.127  -2.566  0.00  0.00    +0.074 A 
ATOM      7  C   UNL     1      -3.380  -0.549  -2.319  0.00  0.00    +0.021 A 
ATOM      8  C   UNL     1      -3.772   0.423  -3.208  0.00  0.00    +0.008 A 
ATOM      9  C   UNL     1      -2.951   0.745  -4.238  0.00  0.00    +0.046 A 
ATOM     10  S   UNL     1      -1.618  -0.256  -4.029  0.00  0.00    -0.092 S 
ENDBRANCH   3   6
ENDBRANCH   1   2
BRANCH   1  11
ATOM     11  C   UNL     1      -0.384  -4.904  -1.459  0.00  0.00    +0.328 C 
ATOM     12  O   UNL     1      -1.569  -4.837  -1.685  0.00  0.00    -0.249 OA
BRANCH  11  13
ATOM     13  O   UNL     1       0.183  -6.093  -1.198  0.00  0.00    -0.454 OA
BRANCH  13  14
ATOM     14  C   UNL     1      -0.674  -7.236  -1.205  0.00  0.00    +0.328 C 
BRANCH  14  15
ATOM     15  C   UNL     1       0.132  -8.471  -0.894  0.00  0.00    +0.256 C 
ATOM     16  O   UNL     1       1.324  -8.380  -0.688  0.00  0.00    -0.272 OA
ATOM     17  N   UNL     1      -0.471  -9.675  -0.846  0.00  0.00    -0.268 N 
ATOM     18  C   UNL     1       0.291 -10.829  -0.664  0.00  0.00    +0.125 A 
ATOM     19  C   UNL     1      -0.324 -12.075  -0.721  0.00  0.00    +0.045 A 
ATOM     20  C   UNL     1       0.443 -13.212  -0.538  0.00  0.00    +0.025 A 
ATOM     21  C   UNL     1       1.804 -13.063  -0.304  0.00  0.00    +0.059 A 
ATOM     22  C   UNL     1       2.348 -11.794  -0.261  0.00  0.00    +0.132 A 
ATOM     23  N   UNL     1       1.592 -10.728  -0.444  0.00  0.00    -0.239 NA
ATOM     24 CL   UNL     1       2.812 -14.457  -0.068  0.00  0.00    -0.082 Cl
ATOM     25  H   UNL     1      -1.434  -9.739  -0.938  0.00  0.00    +0.156 HD
ENDBRANCH  14  15
ENDBRANCH  13  14
ENDBRANCH  11  13
ENDBRANCH   1  11
BRANCH   1  26
ATOM     26  C   UNL     1       0.691  -3.185  -0.032  0.00  0.00    +0.067 C 
BRANCH  26  33
ATOM     27  C   UNL     1      -0.015   1.349  -0.005  0.00  0.00    +0.001 A 
ATOM     28  C   UNL     1       1.167   2.102  -0.013  0.00  0.00    +0.002 A 
ATOM     29  C   UNL     1       2.392   1.536  -0.026  0.00  0.00    +0.026 A 
ATOM     30  C   UNL     1       2.530   0.120  -0.034  0.00  0.00    +0.043 A 
ATOM     31  N   UNL     1       3.587  -0.654  -0.048  0.00  0.00    -0.380 N 
ATOM     32  C   UNL     1       3.144  -2.052  -0.050  0.00  0.00    +0.144 C 
ATOM     33  C   UNL     1       1.632  -2.008  -0.035  0.00  0.00    -0.039 C 
ATOM     34  C   UNL     1       1.296  -0.698  -0.026  0.00  0.00    -0.001 A 
ATOM     35  C   UNL     1       0.003  -0.003  -0.011  0.00  0.00    +0.010 A 
ATOM     36  H   UNL     1       4.510  -0.352  -0.056  0.00  0.00    +0.160 HD
ENDBRANCH  26  33
ENDBRANCH   1  26
TORSDOF 8
