REMARK  Name = ZINC66792460
REMARK  6 active torsions:
REMARK  status: ('A' for Active; 'I' for Inactive)
REMARK    1  A    between atoms: C_1  and  C_2
REMARK    2  A    between atoms: N_5  and  C_11
REMARK    3  A    between atoms: C_6  and  C_10
REMARK    4  A    between atoms: C_11  and  N_12
REMARK    5  A    between atoms: C_15  and  C_19
REMARK    6  A    between atoms: C_15  and  C_20
REMARK                            x       y       z     vdW  Elec       q    Type
REMARK                         _______ _______ _______ _____ _____    ______ ____
ROOT
ATOM      1  N   UNL     1       0.263  -2.767  -3.382  0.00  0.00    -0.210 N 
ATOM      2  C   UNL     1      -0.482  -3.885  -3.490  0.00  0.00    +0.252 C 
ATOM      3  O   UNL     1      -0.401  -4.888  -2.814  0.00  0.00    -0.272 OA
ATOM      4  C   UNL     1      -1.444  -3.627  -4.633  0.00  0.00    +0.141 C 
ATOM      5  N   UNL     1      -1.096  -2.266  -5.077  0.00  0.00    -0.281 N 
ATOM      6  C   UNL     1      -0.094  -1.847  -4.285  0.00  0.00    +0.311 C 
ATOM      7  O   UNL     1       0.431  -0.755  -4.380  0.00  0.00    -0.252 OA
ATOM      8  C   UNL     1      -1.221  -4.635  -5.762  0.00  0.00    +0.047 C 
ATOM      9  H   UNL     1      -1.511  -1.768  -5.799  0.00  0.00    +0.152 HD
ENDROOT
BRANCH   4  10
ATOM     10  C   UNL     1      -2.870  -3.678  -4.148  0.00  0.00    +0.023 A 
ATOM     11  C   UNL     1      -3.955  -3.018  -4.619  0.00  0.00    +0.015 A 
ATOM     12  C   UNL     1      -5.180  -3.221  -4.010  0.00  0.00    +0.028 A 
ATOM     13  C   UNL     1      -5.258  -4.076  -2.960  0.00  0.00    +0.078 A 
ATOM     14  S   UNL     1      -3.568  -4.630  -2.809  0.00  0.00    -0.079 S 
ATOM     15 CL   UNL     1      -6.644  -4.521  -2.013  0.00  0.00    -0.076 Cl
ENDBRANCH   4  10
BRANCH   1  16
ATOM     16  C   UNL     1       1.328  -2.581  -2.393  0.00  0.00    +0.205 C 
BRANCH  16  20
ATOM     17  C   UNL     1       0.035   1.556  -0.061  0.00  0.00    +0.039 C 
ATOM     18  C   UNL     1       0.042   0.027   0.001  0.00  0.00    +0.129 C 
ATOM     19  C   UNL     1       0.690  -0.533  -1.268  0.00  0.00    +0.117 C 
ATOM     20  N   UNL     1       0.763  -1.998  -1.169  0.00  0.00    -0.279 NA
ATOM     21  C   UNL     1       1.539  -2.402   0.013  0.00  0.00    +0.081 C 
ATOM     22  C   UNL     1       0.883  -1.823   1.270  0.00  0.00    +0.178 C 
ATOM     23  O   UNL     1       0.790  -0.402   1.142  0.00  0.00    -0.374 OA
ATOM     24  C   UNL     1       1.568  -3.929   0.108  0.00  0.00    +0.026 C 
ENDBRANCH  16  20
ENDBRANCH   1  16
TORSDOF 3
