REMARK  Name = ZINC36806225
REMARK  7 active torsions:
REMARK  status: ('A' for Active; 'I' for Inactive)
REMARK    1  A    between atoms: C_1  and  C_2
REMARK    2  A    between atoms: C_2  and  C_3
REMARK    3  A    between atoms: C_8  and  N_9
REMARK    4  A    between atoms: C_12  and  C_17
REMARK    5  A    between atoms: C_17  and  S_18
REMARK    6  A    between atoms: S_18  and  C_19
REMARK    7  A    between atoms: N_21  and  C_25
REMARK                            x       y       z     vdW  Elec       q    Type
REMARK                         _______ _______ _______ _____ _____    ______ ____
ROOT
ATOM      1  N   UNL     1       4.630  -0.739  -1.479  0.00  0.00    -0.283 N 
ATOM      2  C   UNL     1       5.923  -1.017  -1.079  0.00  0.00    +0.224 A 
ATOM      3  N   UNL     1       6.326  -0.693   0.148  0.00  0.00    -0.198 NA
ATOM      4  C   UNL     1       7.562  -0.959   0.531  0.00  0.00    +0.146 A 
ATOM      5  N   UNL     1       8.403  -1.547  -0.301  0.00  0.00    -0.199 NA
ATOM      6  C   UNL     1       8.008  -1.875  -1.529  0.00  0.00    +0.217 A 
ATOM      7  N   UNL     1       6.764  -1.614  -1.916  0.00  0.00    -0.181 NA
ATOM      8  N   UNL     1       8.888  -2.489  -2.397  0.00  0.00    -0.327 N 
ATOM      9  H   UNL     1       3.990  -0.389  -0.840  0.00  0.00    +0.155 HD
ATOM     10  H   UNL     1       9.794  -2.683  -2.112  0.00  0.00    +0.145 HD
ATOM     11  H   UNL     1       8.599  -2.728  -3.291  0.00  0.00    +0.145 HD
ENDROOT
BRANCH   1  17
ATOM     12  C   UNL     1       2.910  -1.185  -3.113  0.00  0.00    -0.026 A 
ATOM     13  C   UNL     1       2.532  -1.400  -4.424  0.00  0.00    +0.005 A 
ATOM     14  C   UNL     1       3.482  -1.398  -5.428  0.00  0.00    +0.000 A 
ATOM     15  C   UNL     1       4.814  -1.181  -5.124  0.00  0.00    +0.002 A 
ATOM     16  C   UNL     1       5.198  -0.967  -3.815  0.00  0.00    +0.023 A 
ATOM     17  C   UNL     1       4.245  -0.962  -2.804  0.00  0.00    +0.037 A 
BRANCH  12  19
ATOM     18  C   UNL     1       1.418   0.248  -1.745  0.00  0.00    +0.009 C 
ATOM     19  C   UNL     1       1.873  -1.187  -2.019  0.00  0.00    +0.033 C 
ENDBRANCH  12  19
ENDBRANCH   1  17
BRANCH   4  20
ATOM     20  C   UNL     1       8.013  -0.589   1.921  0.00  0.00    +0.152 C 
BRANCH  20  21
ATOM     21  S   UNL     1       7.688  -1.972   3.050  0.00  0.00    -0.089 S 
BRANCH  21  22
ATOM     22  C   UNL     1       8.264  -1.392   4.611  0.00  0.00    +0.158 A 
ATOM     23  N   UNL     1       8.799  -0.236   4.914  0.00  0.00    -0.151 NA
ATOM     24  N   UNL     1       9.190   0.034   6.205  0.00  0.00    -0.217 N 
ATOM     25  C   UNL     1       9.009  -0.920   7.153  0.00  0.00    +0.150 A 
ATOM     26  S   UNL     1       9.389  -0.880   8.822  0.00  0.00    -0.023 S 
ATOM     27  S   UNL     1       8.261  -2.225   6.190  0.00  0.00    -0.034 S 
BRANCH  24  28
ATOM     28  C   UNL     1       9.762   1.268   6.534  0.00  0.00    +0.067 A 
ATOM     29  C   UNL     1      10.974   1.314   7.212  0.00  0.00    +0.028 A 
ATOM     30  C   UNL     1      11.537   2.533   7.534  0.00  0.00    +0.002 A 
ATOM     31  C   UNL     1      10.895   3.707   7.184  0.00  0.00    +0.000 A 
ATOM     32  C   UNL     1       9.688   3.664   6.510  0.00  0.00    +0.002 A 
ATOM     33  C   UNL     1       9.123   2.449   6.179  0.00  0.00    +0.028 A 
ENDBRANCH  24  28
ENDBRANCH  21  22
ENDBRANCH  20  21
ENDBRANCH   4  20
TORSDOF 6
