REMARK  Name = ZINC19973189
REMARK  14 active torsions:
REMARK  status: ('A' for Active; 'I' for Inactive)
REMARK    1  A    between atoms: C_1  and  C_2
REMARK    2  A    between atoms: C_2  and  C_3
REMARK    3  A    between atoms: C_3  and  C_4
REMARK    4  A    between atoms: C_3  and  C_5
REMARK    5  A    between atoms: C_3  and  N_6
REMARK    6  A    between atoms: C_7  and  C_11
REMARK    7  A    between atoms: C_11  and  C_13
REMARK    8  A    between atoms: C_11  and  N_27
REMARK    9  A    between atoms: C_16  and  C_26
REMARK   10  A    between atoms: C_19  and  C_25
REMARK   11  A    between atoms: N_27  and  C_28
REMARK   12  A    between atoms: N_27  and  C_35
REMARK   13  A    between atoms: C_28  and  C_29
REMARK   14  A    between atoms: C_35  and  C_36
REMARK                            x       y       z     vdW  Elec       q    Type
REMARK                         _______ _______ _______ _____ _____    ______ ____
ROOT
ATOM      1  C   UNL     1      -0.355   0.658  -0.604  0.00  0.00    +0.163 C 
ENDROOT
BRANCH   1   2
ATOM      2  C   UNL     1       0.946   1.230  -1.104  0.00  0.00    +0.042 A 
ATOM      3  C   UNL     1       1.310   1.051  -2.398  0.00  0.00    +0.021 A 
ATOM      4  C   UNL     1       2.578   1.624  -2.854  0.00  0.00    +0.002 A 
ATOM      5  C   UNL     1       3.005   1.476  -4.178  0.00  0.00    -0.041 A 
ATOM      6  C   UNL     1       4.195   2.018  -4.570  0.00  0.00    +0.004 A 
ATOM      7  C   UNL     1       4.986   2.716  -3.667  0.00  0.00    +0.005 A 
ATOM      8  C   UNL     1       4.586   2.873  -2.358  0.00  0.00    -0.026 A 
ATOM      9  C   UNL     1       3.377   2.330  -1.935  0.00  0.00    +0.052 A 
ATOM     10  N   UNL     1       2.952   2.473  -0.631  0.00  0.00    -0.322 N 
ATOM     11  H   UNL     1       3.572   3.023   0.092  0.00  0.00    +0.169 HD
ATOM     12  C   UNL     1       1.784   1.947  -0.223  0.00  0.00    +0.254 A 
ATOM     13  O   UNL     1       1.440   2.093   0.937  0.00  0.00    -0.268 OA
ATOM     14  C   UNL     1       5.454   3.632  -1.387  0.00  0.00    +0.046 C 
ATOM     15  C   UNL     1       2.155   0.720  -5.167  0.00  0.00    +0.044 C 
ENDBRANCH   1   2
BRANCH   1  17
ATOM     16  N   UNL     1      -1.541  -1.159  -1.945  0.00  0.00    -0.222 N 
ATOM     17  C   UNL     1      -1.145   0.115  -1.767  0.00  0.00    +0.174 A 
ATOM     18  N   UNL     1      -1.586   0.793  -2.798  0.00  0.00    -0.111 NA
ATOM     19  N   UNL     1      -2.212  -0.023  -3.573  0.00  0.00    -0.023 NA
ATOM     20  N   UNL     1      -2.189  -1.203  -3.059  0.00  0.00    -0.043 NA
BRANCH  16  21
ATOM     21  C   UNL     1      -1.283  -2.285  -1.043  0.00  0.00    +0.062 C 
ATOM     22  C   UNL     1       0.226  -2.517  -0.936  0.00  0.00    +0.036 C 
ATOM     23  C   UNL     1      -1.850  -1.968   0.342  0.00  0.00    +0.036 C 
BRANCH  21  25
ATOM     24  C   UNL     1      -1.685  -4.719  -0.652  0.00  0.00    +0.006 C 
ATOM     25  C   UNL     1      -1.954  -3.544  -1.594  0.00  0.00    +0.026 C 
ENDBRANCH  21  25
ENDBRANCH  16  21
ENDBRANCH   1  17
BRANCH   1  26
ATOM     26  N   UNL     1      -1.129   1.712   0.065  0.00  0.00    -0.280 NA
BRANCH  26  27
ATOM     27  C   UNL     1      -2.221   1.137   0.863  0.00  0.00    +0.121 C 
BRANCH  27  28
ATOM     28  C   UNL     1      -2.872   2.224   1.679  0.00  0.00    -0.033 A 
ATOM     29  C   UNL     1      -2.332   2.590   2.898  0.00  0.00    +0.005 A 
ATOM     30  C   UNL     1      -2.926   3.591   3.644  0.00  0.00    +0.000 A 
ATOM     31  C   UNL     1      -4.066   4.217   3.177  0.00  0.00    +0.000 A 
ATOM     32  C   UNL     1      -4.609   3.847   1.961  0.00  0.00    +0.000 A 
ATOM     33  C   UNL     1      -4.012   2.851   1.212  0.00  0.00    +0.005 A 
ENDBRANCH  27  28
ENDBRANCH  26  27
BRANCH  26  34
ATOM     34  C   UNL     1      -1.644   2.685  -0.908  0.00  0.00    +0.128 C 
BRANCH  34  35
ATOM     35  C   UNL     1      -0.534   3.617  -1.321  0.00  0.00    +0.004 A 
ATOM     36  C   UNL     1       0.234   3.589  -2.437  0.00  0.00    +0.012 A 
ATOM     37  C   UNL     1       1.204   4.559  -2.608  0.00  0.00    +0.008 A 
ATOM     38  C   UNL     1       1.358   5.510  -1.655  0.00  0.00    +0.045 A 
ATOM     39  S   UNL     1       0.105   5.050  -0.469  0.00  0.00    -0.100 S 
ENDBRANCH  34  35
ENDBRANCH  26  34
ENDBRANCH   1  26
TORSDOF 9
