REMARK  Name = ZINC12439256
REMARK  8 active torsions:
REMARK  status: ('A' for Active; 'I' for Inactive)
REMARK    1  A    between atoms: C_1  and  C_2
REMARK    2  A    between atoms: C_4  and  C_10
REMARK    3  A    between atoms: C_7  and  O_8
REMARK    4  A    between atoms: O_8  and  C_9
REMARK    5  A    between atoms: C_24  and  C_25
REMARK    6  A    between atoms: C_24  and  N_59
REMARK    7  A    between atoms: C_28  and  N_30
REMARK    8  A    between atoms: C_31  and  C_33
REMARK                            x       y       z     vdW  Elec       q    Type
REMARK                         _______ _______ _______ _____ _____    ______ ____
ROOT
ATOM      1  C   UNL     1      -2.011   0.881  -1.359  0.00  0.00    +0.011 C 
ATOM      2  C   UNL     1      -2.779   0.961  -0.061  0.00  0.00    +0.011 A 
ATOM      3  C   UNL     1      -2.201   1.278   1.119  0.00  0.00    -0.022 A 
ATOM      4  C   UNL     1      -3.241   1.257   2.124  0.00  0.00    +0.003 A 
ATOM      5  C   UNL     1      -3.238   1.500   3.501  0.00  0.00    +0.010 A 
ATOM      6  C   UNL     1      -4.441   1.386   4.154  0.00  0.00    +0.001 A 
ATOM      7  C   UNL     1      -5.609   1.046   3.492  0.00  0.00    +0.002 A 
ATOM      8  C   UNL     1      -5.641   0.799   2.131  0.00  0.00    +0.026 A 
ATOM      9  C   UNL     1      -4.435   0.908   1.441  0.00  0.00    +0.047 A 
ATOM     10  N   UNL     1      -4.117   0.737   0.124  0.00  0.00    -0.359 N 
ATOM     11  H   UNL     1      -4.744   0.494  -0.575  0.00  0.00    +0.166 HD
ATOM     12  C   UNL     1      -0.731   1.581   1.271  0.00  0.00    +0.019 C 
ATOM     13  C   UNL     1      -0.013   1.086   0.008  0.00  0.00    -0.072 C 
ATOM     14  N   UNL     1      -0.729   1.603  -1.179  0.00  0.00    +0.391 N 
ATOM     15  H   UNL     1      -0.926   2.601  -1.040  0.00  0.00    -0.080 HD
ENDROOT
BRANCH   1  19
ATOM     16  C   UNL     1      -5.023   0.561  -5.342  0.00  0.00    +0.047 C 
ATOM     17  C   UNL     1      -4.240   1.396  -4.361  0.00  0.00    -0.009 A 
ATOM     18  C   UNL     1      -3.513   0.785  -3.358  0.00  0.00    +0.009 A 
ATOM     19  C   UNL     1      -2.799   1.551  -2.456  0.00  0.00    -0.055 A 
ATOM     20  C   UNL     1      -2.801   2.930  -2.561  0.00  0.00    +0.006 A 
ATOM     21  C   UNL     1      -3.522   3.545  -3.566  0.00  0.00    +0.046 A 
ATOM     22  C   UNL     1      -4.244   2.779  -4.469  0.00  0.00    +0.123 A 
BRANCH  22  23
ATOM     23  O   UNL     1      -4.955   3.383  -5.458  0.00  0.00    -0.495 OA
ATOM     24  C   UNL     1      -4.913   4.810  -5.508  0.00  0.00    +0.277 C 
ENDBRANCH  22  23
ENDBRANCH   1  19
BRANCH  14  25
ATOM     25  C   UNL     1       0.112   1.445  -2.384  0.00  0.00    -0.034 C 
BRANCH  25  26
ATOM     26  C   UNL     1       0.347  -0.014  -2.679  0.00  0.00    -0.025 A 
ATOM     27  C   UNL     1      -0.388  -0.859  -3.441  0.00  0.00    +0.011 A 
ATOM     28  C   UNL     1       0.024  -2.172  -3.577  0.00  0.00    +0.031 A 
ATOM     29  C   UNL     1       1.151  -2.577  -2.929  0.00  0.00    +0.072 A 
ATOM     30  S   UNL     1       1.663  -1.077  -2.107  0.00  0.00    -0.080 S 
BRANCH  29  31
ATOM     31  N   UNL     1       1.751  -3.839  -2.911  0.00  0.00    -0.280 N 
ATOM     32  C   UNL     1       2.878  -4.040  -2.199  0.00  0.00    +0.214 C 
ATOM     33  O   UNL     1       3.371  -3.125  -1.573  0.00  0.00    -0.276 OA
ATOM     34  C   UNL     1       3.525  -5.401  -2.180  0.00  0.00    +0.109 C 
ATOM     35  H   UNL     1       1.357  -4.571  -3.412  0.00  0.00    +0.155 HD
ENDBRANCH  29  31
ENDBRANCH  25  26
ENDBRANCH  14  25
TORSDOF 5
