REMARK  Name = ZINC30879574
REMARK  6 active torsions:
REMARK  status: ('A' for Active; 'I' for Inactive)
REMARK    1  A    between atoms: C_1  and  N_2
REMARK    2  A    between atoms: C_4  and  N_20
REMARK    3  A    between atoms: C_7  and  C_9
REMARK    4  A    between atoms: C_11  and  C_14
REMARK    5  A    between atoms: N_20  and  S_21
REMARK    6  A    between atoms: S_21  and  C_24
REMARK                            x       y       z     vdW  Elec       q    Type
REMARK                         _______ _______ _______ _____ _____    ______ ____
ROOT
ATOM      1  C   UNL     1      -2.383   3.824   5.056  0.00  0.00    -0.095 C 
ATOM      2  N   UNL     1      -2.777   2.462   4.674  0.00  0.00    +0.387 N 
ATOM      3  C   UNL     1      -2.264   2.119   3.336  0.00  0.00    -0.058 C 
ATOM      4  C   UNL     1      -3.477   1.723   2.468  0.00  0.00    +0.059 C 
ATOM      5  C   UNL     1      -4.545   1.318   3.517  0.00  0.00    +0.012 C 
ATOM      6  C   UNL     1      -4.249   2.319   4.665  0.00  0.00    +0.023 C 
ATOM      7  H   UNL     1      -2.341   1.783   5.422  0.00  0.00    -0.081 HD
ENDROOT
BRANCH   6   8
ATOM      8  C   UNL     1      -4.731   1.768   5.981  0.00  0.00    +0.214 A 
ATOM      9  N   UNL     1      -5.768   2.183   6.666  0.00  0.00    -0.193 NA
ATOM     10  C   UNL     1      -5.813   1.400   7.768  0.00  0.00    +0.202 A 
ATOM     11  N   UNL     1      -4.811   0.564   7.688  0.00  0.00    -0.056 NA
ATOM     12  O   UNL     1      -4.186   0.758   6.667  0.00  0.00    -0.339 OA
BRANCH  10  13
ATOM     13  C   UNL     1      -6.812   1.476   8.862  0.00  0.00    +0.022 A 
ATOM     14  C   UNL     1      -7.828   2.429   8.816  0.00  0.00    +0.012 A 
ATOM     15  C   UNL     1      -8.758   2.492   9.835  0.00  0.00    +0.001 A 
ATOM     16  C   UNL     1      -8.676   1.619  10.905  0.00  0.00    +0.000 A 
ATOM     17  C   UNL     1      -7.666   0.675  10.958  0.00  0.00    +0.001 A 
ATOM     18  C   UNL     1      -6.735   0.600   9.942  0.00  0.00    +0.012 A 
ENDBRANCH  10  13
ENDBRANCH   6   8
BRANCH   4  19
ATOM     19  N   UNL     1      -3.146   0.589   1.601  0.00  0.00    -0.189 NA
ATOM     20  H   UNL     1      -3.011  -0.413   2.035  0.00  0.00    +0.148 HD
BRANCH  19  21
ATOM     21  S   UNL     1      -2.733   0.848   0.019  0.00  0.00    +0.059 S 
ATOM     22  O   UNL     1      -3.722   1.713  -0.522  0.00  0.00    -0.153 OA
ATOM     23  O   UNL     1      -2.446  -0.426  -0.540  0.00  0.00    -0.153 OA
BRANCH  21  24
ATOM     24  C   UNL     1      -1.219   1.750   0.017  0.00  0.00    +0.105 A 
ATOM     25  C   UNL     1      -0.013   1.076   0.008  0.00  0.00    +0.030 A 
ATOM     26  C   UNL     1       1.175   1.783   0.000  0.00  0.00    +0.022 A 
ATOM     27  C   UNL     1       1.156   3.166   0.008  0.00  0.00    +0.041 A 
ATOM     28  C   UNL     1      -0.052   3.841   0.023  0.00  0.00    +0.022 A 
ATOM     29  C   UNL     1      -1.239   3.133   0.031  0.00  0.00    +0.030 A 
ATOM     30 CL   UNL     1       2.647   4.055  -0.002  0.00  0.00    -0.084 Cl
ENDBRANCH  21  24
ENDBRANCH  19  21
ENDBRANCH   4  19
TORSDOF 5
