REMARK  Name = ZINC39923120
REMARK  8 active torsions:
REMARK  status: ('A' for Active; 'I' for Inactive)
REMARK    1  A    between atoms: C_1  and  C_2
REMARK    2  A    between atoms: C_5  and  C_8
REMARK    3  A    between atoms: C_8  and  O_9
REMARK    4  A    between atoms: O_9  and  C_10
REMARK    5  A    between atoms: C_15  and  C_16
REMARK    6  A    between atoms: C_18  and  C_22
REMARK    7  A    between atoms: N_24  and  N_25
REMARK    8  A    between atoms: C_26  and  C_27
REMARK                            x       y       z     vdW  Elec       q    Type
REMARK                         _______ _______ _______ _____ _____    ______ ____
ROOT
ATOM      1  C   UNL     1       3.605  -5.702   0.309  0.00  0.00    +0.095 C 
ATOM      2  C   UNL     1       3.591  -4.356   0.274  0.00  0.00    +0.041 C 
ATOM      3  C   UNL     1       5.055  -3.980   0.136  0.00  0.00    +0.240 C 
ATOM      4  N   UNL     1       5.736  -5.286   0.111  0.00  0.00    -0.170 NA
ATOM      5  N   UNL     1       4.879  -6.166   0.215  0.00  0.00    -0.153 NA
ENDROOT
BRANCH   1  11
ATOM      6  C   UNL     1       1.132  -5.976   0.527  0.00  0.00    +0.130 A 
ATOM      7  C   UNL     1       0.011  -6.784   0.642  0.00  0.00    +0.046 A 
ATOM      8  C   UNL     1       0.149  -8.158   0.672  0.00  0.00    +0.004 A 
ATOM      9  C   UNL     1       1.403  -8.737   0.589  0.00  0.00    +0.001 A 
ATOM     10  C   UNL     1       2.528  -7.945   0.474  0.00  0.00    +0.014 A 
ATOM     11  C   UNL     1       2.400  -6.558   0.438  0.00  0.00    +0.044 A 
BRANCH   6  12
ATOM     12  O   UNL     1       0.998  -4.625   0.497  0.00  0.00    -0.487 OA
BRANCH  12  13
ATOM     13  C   UNL     1      -0.328  -4.102   0.594  0.00  0.00    +0.264 C 
BRANCH  13  18
ATOM     14  C   UNL     1      -0.145   1.671   0.400  0.00  0.00    +0.044 C 
ATOM     15  C   UNL     1      -0.193   0.165   0.451  0.00  0.00    -0.050 A 
ATOM     16  C   UNL     1      -0.315  -0.562  -0.719  0.00  0.00    +0.004 A 
ATOM     17  C   UNL     1      -0.359  -1.943  -0.672  0.00  0.00    +0.007 A 
ATOM     18  C   UNL     1      -0.280  -2.596   0.543  0.00  0.00    -0.010 A 
ATOM     19  C   UNL     1      -0.157  -1.869   1.712  0.00  0.00    +0.007 A 
ATOM     20  C   UNL     1      -0.108  -0.488   1.666  0.00  0.00    +0.004 A 
ENDBRANCH  13  18
ENDBRANCH  12  13
ENDBRANCH   6  12
ENDBRANCH   1  11
BRANCH   3  21
ATOM     21  C   UNL     1       5.509  -3.162   1.317  0.00  0.00    +0.263 C 
ATOM     22  O   UNL     1       6.127  -3.688   2.217  0.00  0.00    -0.271 OA
ATOM     23  N   UNL     1       5.227  -1.845   1.373  0.00  0.00    -0.205 N 
ATOM     24  H   UNL     1       4.732  -1.424   0.653  0.00  0.00    +0.177 HD
BRANCH  23  25
ATOM     25  N   UNL     1       5.648  -1.085   2.471  0.00  0.00    -0.188 NA
ATOM     26  C   UNL     1       5.473   0.213   2.475  0.00  0.00    +0.136 C 
BRANCH  26  27
ATOM     27  C   UNL     1       4.812   0.834   1.406  0.00  0.00    +0.000 C 
ATOM     28  C   UNL     1       4.558   2.195   1.249  0.00  0.00    +0.004 A 
ATOM     29  C   UNL     1       4.856   3.320   2.049  0.00  0.00    +0.010 A 
ATOM     30  C   UNL     1       4.478   4.556   1.639  0.00  0.00    +0.001 A 
ATOM     31  C   UNL     1       3.797   4.752   0.434  0.00  0.00    +0.002 A 
ATOM     32  C   UNL     1       3.478   3.721  -0.384  0.00  0.00    +0.026 A 
ATOM     33  C   UNL     1       3.840   2.395  -0.022  0.00  0.00    +0.043 A 
ATOM     34  N   UNL     1       3.650   1.244  -0.630  0.00  0.00    -0.380 N 
ATOM     35  C   UNL     1       4.232   0.168   0.178  0.00  0.00    +0.150 C 
ATOM     36  H   UNL     1       3.200   1.126  -1.482  0.00  0.00    +0.160 HD
ENDBRANCH  26  27
ENDBRANCH  23  25
ENDBRANCH   3  21
TORSDOF 7
