REMARK  Name = ZINC28528498
REMARK  7 active torsions:
REMARK  status: ('A' for Active; 'I' for Inactive)
REMARK    1  A    between atoms: C_3  and  N_30
REMARK    2  A    between atoms: C_4  and  C_8
REMARK    3  A    between atoms: C_8  and  C_9
REMARK    4  A    between atoms: C_17  and  N_18
REMARK    5  A    between atoms: N_18  and  C_19
REMARK    6  A    between atoms: C_19  and  C_20
REMARK    7  A    between atoms: C_20  and  C_21
REMARK                            x       y       z     vdW  Elec       q    Type
REMARK                         _______ _______ _______ _____ _____    ______ ____
ROOT
ATOM      1  C   UNL     1       2.882  -2.077  -0.037  0.00  0.00    +0.201 A 
ATOM      2  N   UNL     1       1.585  -2.000  -0.024  0.00  0.00    -0.210 NA
ATOM      3  C   UNL     1       1.224  -0.690  -0.013  0.00  0.00    +0.149 A 
ATOM      4  C   UNL     1       2.416   0.052  -0.021  0.00  0.00    +0.160 A 
ATOM      5  O   UNL     1       3.420  -0.845  -0.035  0.00  0.00    -0.439 OA
ATOM      6  C   UNL     1       2.336   1.441  -0.012  0.00  0.00    +0.068 A 
ATOM      7  C   UNL     1       1.095   2.038   0.003  0.00  0.00    +0.116 A 
ATOM      8  N   UNL     1      -0.016   1.319   0.009  0.00  0.00    -0.238 NA
ATOM      9  C   UNL     1       0.002  -0.004   0.002  0.00  0.00    +0.148 A 
ENDROOT
BRANCH   9  10
ATOM     10  N   UNL     1      -1.191  -0.714   0.010  0.00  0.00    -0.322 N 
ATOM     11  H   UNL     1      -1.177  -1.814   0.004  0.00  0.00    +0.148 HD
BRANCH  10  12
ATOM     12  C   UNL     1      -2.469   0.002   0.027  0.00  0.00    +0.176 C 
BRANCH  12  13
ATOM     13  C   UNL     1      -3.619  -1.007   0.033  0.00  0.00    +0.252 C 
ATOM     14  F   UNL     1      -3.546  -1.804  -1.115  0.00  0.00    -0.206 F 
ATOM     15  F   UNL     1      -3.524  -1.816   1.170  0.00  0.00    -0.206 F 
BRANCH  13  16
ATOM     16  C   UNL     1      -4.954  -0.259   0.050  0.00  0.00    +0.000 C 
ATOM     17  C   UNL     1      -6.104  -1.269   0.057  0.00  0.00    -0.010 C 
ATOM     18  C   UNL     1      -7.438  -0.516   0.054  0.00  0.00    -0.003 C 
ATOM     19  C   UNL     1      -7.496   0.398  -1.173  0.00  0.00    -0.019 C 
ATOM     20  C   UNL     1      -6.306   1.359  -1.145  0.00  0.00    -0.082 C 
ATOM     21  N   UNL     1      -5.054   0.590  -1.144  0.00  0.00    +0.385 N 
ATOM     22  H   UNL     1      -4.210   1.295  -1.164  0.00  0.00    -0.085 HD
ATOM     23  H   UNL     1      -5.029  -0.039  -2.045  0.00  0.00    -0.085 HD
ENDBRANCH  13  16
ENDBRANCH  12  13
ENDBRANCH  10  12
ENDBRANCH   9  10
BRANCH   1  24
ATOM     24  C   UNL     1       3.669  -3.362  -0.051  0.00  0.00    +0.133 C 
BRANCH  24  28
ATOM     25  C   UNL     1       4.375  -4.555  -4.096  0.00  0.00    +0.022 A 
ATOM     26  C   UNL     1       5.228  -3.656  -3.487  0.00  0.00    +0.029 A 
ATOM     27  C   UNL     1       5.002  -3.266  -2.174  0.00  0.00    +0.071 A 
ATOM     28  C   UNL     1       3.918  -3.782  -1.476  0.00  0.00    -0.012 A 
ATOM     29  C   UNL     1       3.071  -4.686  -2.088  0.00  0.00    +0.026 A 
ATOM     30  C   UNL     1       3.296  -5.068  -3.399  0.00  0.00    +0.041 A 
ATOM     31 CL   UNL     1       2.225  -6.198  -4.168  0.00  0.00    -0.084 Cl
BRANCH  27  32
ATOM     32  N   UNL     1       5.866  -2.353  -1.554  0.00  0.00    -0.220 N 
ATOM     33  C   UNL     1       6.955  -1.774  -2.096  0.00  0.00    +0.225 A 
ATOM     34  N   UNL     1       7.485  -0.986  -1.197  0.00  0.00    -0.222 NA
ATOM     35  C   UNL     1       6.773  -1.040  -0.071  0.00  0.00    +0.245 A 
ATOM     36  N   UNL     1       5.772  -1.864  -0.240  0.00  0.00    -0.154 NA
ENDBRANCH  27  32
ENDBRANCH  24  28
ENDBRANCH   1  24
TORSDOF 7
