REMARK  Name = ZINC09270347
REMARK  3 active torsions:
REMARK  status: ('A' for Active; 'I' for Inactive)
REMARK    1  A    between atoms: C_1  and  N_41
REMARK    2  A    between atoms: C_9  and  O_24
REMARK    3  A    between atoms: C_11  and  C_14
REMARK                            x       y       z     vdW  Elec       q    Type
REMARK                         _______ _______ _______ _____ _____    ______ ____
ROOT
ATOM      1  C   UNL     1      -3.339   5.208  -8.277  0.00  0.00    -0.096 C 
ATOM      2  C   UNL     1      -2.210   5.854  -6.233  0.00  0.00    -0.074 C 
ATOM      3  C   UNL     1      -2.453   6.186  -4.758  0.00  0.00    +0.018 C 
ATOM      4  C   UNL     1      -2.949   4.925  -4.061  0.00  0.00    -0.027 A 
ATOM      5  C   UNL     1      -3.437   3.895  -4.794  0.00  0.00    -0.021 A 
ATOM      6  S   UNL     1      -3.888   2.663  -3.603  0.00  0.00    -0.080 S 
ATOM      7  C   UNL     1      -3.444   3.497  -2.176  0.00  0.00    +0.080 A 
ATOM      8  C   UNL     1      -2.941   4.725  -2.624  0.00  0.00    +0.067 A 
ATOM      9  C   UNL     1      -2.457   5.679  -1.593  0.00  0.00    +0.220 C 
ATOM     10  N   UNL     1      -2.343   5.245  -0.369  0.00  0.00    -0.223 NA
ATOM     11  C   UNL     1      -2.560   3.865   0.048  0.00  0.00    +0.225 C 
ATOM     12  N   UNL     1      -3.507   3.169  -0.843  0.00  0.00    -0.313 N 
ATOM     13  C   UNL     1      -3.558   3.841  -6.284  0.00  0.00    -0.036 C 
ATOM     14  H   UNL     1      -4.140   2.516  -0.507  0.00  0.00    +0.149 HD
ATOM     15  N   UNL     1      -3.421   5.225  -6.800  0.00  0.00    +0.381 N 
ATOM     16  H   UNL     1      -4.244   5.770  -6.518  0.00  0.00    -0.082 HD
ENDROOT
BRANCH  11  17
ATOM     17  C   UNL     1      -1.242   3.134   0.031  0.00  0.00    +0.012 A 
ATOM     18  C   UNL     1      -0.236   3.543  -0.825  0.00  0.00    +0.058 A 
ATOM     19  C   UNL     1       0.975   2.873  -0.843  0.00  0.00    +0.167 A 
ATOM     20  C   UNL     1       1.178   1.786   0.005  0.00  0.00    +0.167 A 
ATOM     21  C   UNL     1       0.167   1.381   0.860  0.00  0.00    +0.065 A 
ATOM     22  C   UNL     1      -1.043   2.051   0.868  0.00  0.00    +0.028 A 
ATOM     23 BR   UNL     1      -2.425   1.491   2.032  0.00  0.00    -0.050 Br
ATOM     24  O   UNL     1       2.438   1.302  -0.200  0.00  0.00    -0.453 OA
ATOM     25  C   UNL     1       2.857   1.845  -1.466  0.00  0.00    +0.466 C 
ATOM     26  O   UNL     1       2.108   3.070  -1.578  0.00  0.00    -0.453 OA
ENDBRANCH  11  17
BRANCH   9  27
ATOM     27  O   UNL     1      -2.145   6.956  -1.914  0.00  0.00    -0.492 OA
ATOM     28  H   UNL     1      -1.841   7.487  -1.164  0.00  0.00    +0.294 HD
ENDBRANCH   9  27
TORSDOF 2
