REMARK  Name = ZINC13019387
REMARK  9 active torsions:
REMARK  status: ('A' for Active; 'I' for Inactive)
REMARK    1  A    between atoms: C_1  and  C_2
REMARK    2  A    between atoms: C_2  and  N_3
REMARK    3  A    between atoms: C_9  and  C_29
REMARK    4  A    between atoms: C_13  and  S_14
REMARK    5  A    between atoms: S_14  and  C_15
REMARK    6  A    between atoms: C_15  and  C_17
REMARK    7  A    between atoms: C_15  and  C_18
REMARK    8  A    between atoms: N_20  and  C_21
REMARK    9  A    between atoms: C_24  and  C_28
REMARK                            x       y       z     vdW  Elec       q    Type
REMARK                         _______ _______ _______ _____ _____    ______ ____
ROOT
ATOM      1  N   UNL     1      -0.069   4.142  -0.017  0.00  0.00    -0.288 N 
ATOM      2  C   UNL     1       1.150   3.556  -0.041  0.00  0.00    +0.262 A 
ATOM      3  O   UNL     1       2.169   4.221  -0.053  0.00  0.00    -0.267 OA
ATOM      4  C   UNL     1       1.199   2.085  -0.052  0.00  0.00    +0.065 A 
ATOM      5  C   UNL     1       2.409   1.393  -0.076  0.00  0.00    +0.016 A 
ATOM      6  C   UNL     1       2.412   0.027  -0.086  0.00  0.00    +0.016 A 
ATOM      7  C   UNL     1       1.208  -0.689  -0.070  0.00  0.00    +0.065 A 
ATOM      8  C   UNL     1      -0.009  -0.019  -0.046  0.00  0.00    +0.043 A 
ATOM      9  C   UNL     1      -0.025   1.378  -0.036  0.00  0.00    +0.080 A 
ATOM     10  N   UNL     1      -1.187   2.072  -0.006  0.00  0.00    -0.223 NA
ATOM     11  C   UNL     1      -1.204   3.382  -0.003  0.00  0.00    +0.173 A 
ENDROOT
BRANCH   7  12
ATOM     12  C   UNL     1       1.232  -2.168  -0.081  0.00  0.00    +0.387 C 
ATOM     13  O   UNL     1       0.191  -2.793  -0.068  0.00  0.00    -0.241 OA
ATOM     14  O   UNL     1       2.409  -2.822  -0.105  0.00  0.00    -0.241 OA
ENDBRANCH   7  12
BRANCH   1  16
ATOM     15  C   UNL     1      -0.233   6.121  -1.444  0.00  0.00    +0.027 C 
ATOM     16  C   UNL     1      -0.173   5.603  -0.006  0.00  0.00    +0.124 C 
ENDBRANCH   1  16
BRANCH  11  17
ATOM     17  S   UNL     1      -2.763   4.202   0.030  0.00  0.00    -0.075 S 
BRANCH  17  18
ATOM     18  C   UNL     1      -3.871   2.771   0.039  0.00  0.00    +0.137 C 
ATOM     19  C   UNL     1      -3.724   2.003  -1.276  0.00  0.00    +0.029 C 
BRANCH  18  20
ATOM     20  C   UNL     1      -5.295   3.239   0.191  0.00  0.00    +0.230 C 
ATOM     21  O   UNL     1      -5.607   4.357  -0.161  0.00  0.00    -0.274 OA
ATOM     22  N   UNL     1      -6.223   2.415   0.718  0.00  0.00    -0.284 N 
ATOM     23  H   UNL     1      -5.989   1.500   0.938  0.00  0.00    +0.155 HD
BRANCH  22  24
ATOM     24  C   UNL     1      -7.523   2.880   0.946  0.00  0.00    +0.047 A 
ATOM     25  C   UNL     1      -8.095   3.800   0.077  0.00  0.00    +0.024 A 
ATOM     26  C   UNL     1      -9.379   4.257   0.305  0.00  0.00    +0.005 A 
ATOM     27  C   UNL     1     -10.094   3.799   1.397  0.00  0.00    -0.049 A 
ATOM     28  C   UNL     1      -9.528   2.883   2.263  0.00  0.00    +0.020 A 
ATOM     29  C   UNL     1      -8.246   2.418   2.038  0.00  0.00    +0.039 A 
ATOM     30 BR   UNL     1      -7.475   1.159   3.220  0.00  0.00    -0.048 Br
ATOM     31  C   UNL     1     -11.494   4.301   1.641  0.00  0.00    +0.044 C 
ENDBRANCH  22  24
ENDBRANCH  18  20
ENDBRANCH  17  18
ENDBRANCH  11  17
TORSDOF 6
