REMARK  Name = ZINC65276642
REMARK  6 active torsions:
REMARK  status: ('A' for Active; 'I' for Inactive)
REMARK    1  A    between atoms: C_1  and  C_2
REMARK    2  A    between atoms: C_2  and  C_3
REMARK    3  A    between atoms: C_2  and  N_4
REMARK    4  A    between atoms: C_5  and  N_9
REMARK    5  A    between atoms: N_12  and  C_13
REMARK    6  A    between atoms: C_13  and  C_17
REMARK                            x       y       z     vdW  Elec       q    Type
REMARK                         _______ _______ _______ _____ _____    ______ ____
ROOT
ATOM      1  N   UNL     1      -1.133  -1.779   2.183  0.00  0.00    -0.254 N 
ATOM      2  C   UNL     1      -1.508  -2.558   3.217  0.00  0.00    +0.306 C 
ATOM      3  O   UNL     1      -0.725  -2.792   4.117  0.00  0.00    -0.252 OA
ATOM      4  N   UNL     1      -2.752  -3.077   3.253  0.00  0.00    -0.290 N 
ATOM      5  H   UNL     1      -1.758  -1.593   1.465  0.00  0.00    +0.158 HD
ATOM      6  H   UNL     1      -3.400  -2.830   2.576  0.00  0.00    +0.151 HD
ENDROOT
BRANCH   1   8
ATOM      7  N   UNL     1       0.660  -0.449   1.174  0.00  0.00    -0.248 N 
ATOM      8  C   UNL     1       0.154  -1.242   2.145  0.00  0.00    +0.125 A 
ATOM      9  C   UNL     1       1.127  -1.420   3.080  0.00  0.00    +0.065 A 
ATOM     10  C   UNL     1       2.257  -0.713   2.660  0.00  0.00    +0.136 A 
ATOM     11  N   UNL     1       1.982  -0.136   1.519  0.00  0.00    -0.178 NA
BRANCH   7  13
ATOM     12  C   UNL     1      -0.103   1.527  -0.048  0.00  0.00    +0.032 C 
ATOM     13  C   UNL     1      -0.045  -0.001  -0.029  0.00  0.00    +0.103 C 
ATOM     14  C   UNL     1       0.697  -0.499  -1.271  0.00  0.00    +0.032 C 
ENDBRANCH   7  13
ENDBRANCH   1   8
BRANCH   4  15
ATOM     15  C   UNL     1      -3.123  -4.014   4.316  0.00  0.00    +0.061 C 
ATOM     16  C   UNL     1      -4.642  -4.152   4.513  0.00  0.00    +0.031 C 
ATOM     17  C   UNL     1      -4.540  -2.983   5.506  0.00  0.00    +0.005 C 
ATOM     18  C   UNL     1      -3.076  -3.399   5.725  0.00  0.00    +0.031 C 
BRANCH  15  19
ATOM     19  C   UNL     1      -2.404  -5.334   4.210  0.00  0.00    -0.024 A 
ATOM     20  C   UNL     1      -2.408  -6.211   5.279  0.00  0.00    +0.007 A 
ATOM     21  C   UNL     1      -1.748  -7.422   5.182  0.00  0.00    +0.020 A 
ATOM     22  C   UNL     1      -1.085  -7.757   4.015  0.00  0.00    +0.041 A 
ATOM     23  C   UNL     1      -1.083  -6.879   2.945  0.00  0.00    +0.020 A 
ATOM     24  C   UNL     1      -1.747  -5.671   3.042  0.00  0.00    +0.007 A 
ATOM     25 CL   UNL     1      -0.257  -9.277   3.893  0.00  0.00    -0.084 Cl
ENDBRANCH  15  19
ENDBRANCH   4  15
TORSDOF 4
