REMARK  Name = ZINC09613613
REMARK  5 active torsions:
REMARK  status: ('A' for Active; 'I' for Inactive)
REMARK    1  A    between atoms: C_1  and  C_2
REMARK    2  A    between atoms: C_2  and  C_19
REMARK    3  A    between atoms: N_5  and  C_9
REMARK    4  A    between atoms: C_9  and  C_10
REMARK    5  A    between atoms: C_14  and  N_16
REMARK                            x       y       z     vdW  Elec       q    Type
REMARK                         _______ _______ _______ _____ _____    ______ ____
ROOT
ATOM      1  C   UNL     1      -3.073   4.070  -1.379  0.00  0.00    +0.047 C 
ATOM      2  C   UNL     1      -2.569   3.842   0.047  0.00  0.00    +0.135 C 
ATOM      3  C   UNL     1      -3.580   3.053   0.854  0.00  0.00    +0.251 C 
ATOM      4  O   UNL     1      -3.981   1.931   0.630  0.00  0.00    -0.272 OA
ATOM      5  N   UNL     1      -3.943   3.858   1.872  0.00  0.00    -0.220 N 
ATOM      6  C   UNL     1      -3.307   5.035   1.821  0.00  0.00    +0.310 C 
ATOM      7  O   UNL     1      -3.469   5.926   2.631  0.00  0.00    -0.252 OA
ATOM      8  N   UNL     1      -2.469   5.121   0.772  0.00  0.00    -0.281 N 
ATOM      9  H   UNL     1      -1.909   5.877   0.538  0.00  0.00    +0.152 HD
ENDROOT
BRANCH   2  10
ATOM     10  C   UNL     1      -1.237   3.137   0.031  0.00  0.00    -0.015 A 
ATOM     11  C   UNL     1      -1.198   1.744   0.017  0.00  0.00    +0.007 A 
ATOM     12  C   UNL     1      -0.013   1.076   0.008  0.00  0.00    +0.009 A 
ATOM     13  C   UNL     1       1.193   1.799   0.000  0.00  0.00    -0.018 A 
ATOM     14  C   UNL     1       2.436   1.144  -0.015  0.00  0.00    +0.008 A 
ATOM     15  C   UNL     1       3.583   1.877  -0.022  0.00  0.00    +0.001 A 
ATOM     16  C   UNL     1       3.544   3.270  -0.015  0.00  0.00    +0.001 A 
ATOM     17  C   UNL     1       2.358   3.938   0.000  0.00  0.00    +0.008 A 
ATOM     18  C   UNL     1       1.153   3.215   0.008  0.00  0.00    -0.018 A 
ATOM     19  C   UNL     1      -0.090   3.870   0.023  0.00  0.00    +0.014 A 
ENDBRANCH   2  10
BRANCH   5  20
ATOM     20  C   UNL     1      -4.912   3.491   2.907  0.00  0.00    +0.153 C 
BRANCH  20  21
ATOM     21  C   UNL     1      -6.295   3.898   2.467  0.00  0.00    -0.027 A 
ATOM     22  C   UNL     1      -7.078   3.015   1.747  0.00  0.00    +0.005 A 
ATOM     23  C   UNL     1      -8.347   3.388   1.344  0.00  0.00    +0.003 A 
ATOM     24  C   UNL     1      -8.832   4.643   1.661  0.00  0.00    +0.033 A 
ATOM     25  C   UNL     1      -8.049   5.525   2.382  0.00  0.00    +0.127 A 
ATOM     26  C   UNL     1      -6.782   5.150   2.789  0.00  0.00    +0.038 A 
BRANCH  25  27
ATOM     27  N   UNL     1      -8.569   6.869   2.722  0.00  0.00    +0.056 N 
ATOM     28  O   UNL     1      -9.687   7.197   2.367  0.00  0.00    -0.126 OA
ATOM     29  O   UNL     1      -7.878   7.646   3.357  0.00  0.00    -0.126 OA
ENDBRANCH  25  27
ENDBRANCH  20  21
ENDBRANCH   5  20
TORSDOF 4
