REMARK  Name = ZINC08704942
REMARK  2 active torsions:
REMARK  status: ('A' for Active; 'I' for Inactive)
REMARK    1  A    between atoms: N_9  and  C_21
REMARK    2  A    between atoms: C_21  and  C_22
REMARK                            x       y       z     vdW  Elec       q    Type
REMARK                         _______ _______ _______ _____ _____    ______ ____
ROOT
ATOM      1  C   UNL     1       2.992   6.997  -5.315  0.00  0.00    +0.001 A 
ATOM      2  C   UNL     1       4.037   6.240  -5.821  0.00  0.00    +0.002 A 
ATOM      3  C   UNL     1       4.570   5.199  -5.085  0.00  0.00    +0.024 A 
ATOM      4  C   UNL     1       4.052   4.908  -3.834  0.00  0.00    +0.041 A 
ATOM      5  C   UNL     1       2.979   5.661  -3.326  0.00  0.00    +0.058 A 
ATOM      6  C   UNL     1       2.461   6.717  -4.073  0.00  0.00    +0.015 A 
ATOM      7  C   UNL     1       2.441   5.320  -1.997  0.00  0.00    +0.251 C 
ATOM      8  O   UNL     1       1.628   6.047  -1.460  0.00  0.00    -0.270 OA
ATOM      9  N   UNL     1       2.858   4.194  -1.383  0.00  0.00    -0.260 N 
ATOM     10  C   UNL     1       3.712   3.230  -2.071  0.00  0.00    +0.208 C 
ATOM     11  N   UNL     1       4.579   3.892  -3.045  0.00  0.00    -0.312 N 
ATOM     12  C   UNL     1       2.895   2.164  -2.732  0.00  0.00    +0.024 A 
ATOM     13  C   UNL     1       1.946   2.228  -3.729  0.00  0.00    +0.010 A 
ATOM     14  C   UNL     1       1.362   1.029  -4.122  0.00  0.00    +0.001 A 
ATOM     15  C   UNL     1       1.720  -0.170  -3.538  0.00  0.00    +0.002 A 
ATOM     16  C   UNL     1       2.674  -0.242  -2.535  0.00  0.00    +0.024 A 
ATOM     17  C   UNL     1       3.267   0.955  -2.132  0.00  0.00    +0.041 A 
ATOM     18  N   UNL     1       4.235   1.174  -1.168  0.00  0.00    -0.282 N 
ATOM     19  C   UNL     1       4.558   2.479  -1.062  0.00  0.00    +0.264 C 
ATOM     20  O   UNL     1       5.372   2.961  -0.303  0.00  0.00    -0.271 OA
ATOM     21  H   UNL     1       5.507   3.627  -3.136  0.00  0.00    +0.149 HD
ATOM     22  H   UNL     1       4.635   0.471  -0.631  0.00  0.00    +0.155 HD
ENDROOT
BRANCH   9  23
ATOM     23  C   UNL     1       2.451   3.936   0.001  0.00  0.00    +0.146 C 
BRANCH  23  24
ATOM     24  C   UNL     1       1.156   3.166   0.009  0.00  0.00    -0.030 A 
ATOM     25  C   UNL     1       1.175   1.783   0.000  0.00  0.00    +0.006 A 
ATOM     26  C   UNL     1      -0.013   1.076   0.008  0.00  0.00    +0.020 A 
ATOM     27  C   UNL     1      -1.220   1.751   0.017  0.00  0.00    +0.041 A 
ATOM     28  C   UNL     1      -1.238   3.135   0.031  0.00  0.00    +0.020 A 
ATOM     29  C   UNL     1      -0.050   3.841   0.024  0.00  0.00    +0.006 A 
ATOM     30 CL   UNL     1      -2.712   0.864   0.019  0.00  0.00    -0.084 Cl
ENDBRANCH  23  24
ENDBRANCH   9  23
TORSDOF 2
