REMARK  Name = ZINC36572381
REMARK  14 active torsions:
REMARK  status: ('A' for Active; 'I' for Inactive)
REMARK    1  A    between atoms: C_1  and  C_2
REMARK    2  A    between atoms: C_2  and  C_3
REMARK    3  A    between atoms: C_3  and  N_4
REMARK    4  A    between atoms: N_4  and  C_5
REMARK    5  A    between atoms: C_5  and  C_7
REMARK    6  A    between atoms: C_5  and  C_16
REMARK    7  A    between atoms: C_8  and  O_15
REMARK    8  A    between atoms: C_10  and  O_14
REMARK    9  A    between atoms: C_12  and  O_13
REMARK   10  A    between atoms: N_18  and  C_19
REMARK   11  A    between atoms: C_25  and  C_27
REMARK   12  A    between atoms: C_27  and  C_28
REMARK   13  A    between atoms: C_28  and  C_30
REMARK   14  A    between atoms: C_28  and  C_31
REMARK                            x       y       z     vdW  Elec       q    Type
REMARK                         _______ _______ _______ _____ _____    ______ ____
ROOT
ATOM      1  C   UNL     1      -0.156  -2.678  -2.000  0.00  0.00    +0.199 C 
ENDROOT
BRANCH   1   2
ATOM      2  C   UNL     1      -0.046  -2.593  -3.500  0.00  0.00    +0.065 A 
ATOM      3  C   UNL     1       0.043  -3.753  -4.256  0.00  0.00    +0.129 A 
ATOM      4  C   UNL     1       0.144  -3.675  -5.637  0.00  0.00    +0.091 A 
ATOM      5  C   UNL     1       0.156  -2.437  -6.262  0.00  0.00    +0.124 A 
ATOM      6  C   UNL     1       0.066  -1.278  -5.506  0.00  0.00    +0.091 A 
ATOM      7  C   UNL     1      -0.040  -1.356  -4.126  0.00  0.00    +0.129 A 
BRANCH   7   8
ATOM      8  O   UNL     1      -0.133  -0.220  -3.386  0.00  0.00    -0.506 OA
ATOM      9  H   UNL     1       0.721   0.138  -3.106  0.00  0.00    +0.292 HD
ENDBRANCH   7   8
BRANCH   5  10
ATOM     10  O   UNL     1       0.255  -2.360  -7.615  0.00  0.00    -0.507 OA
ATOM     11  H   UNL     1      -0.596  -2.363  -8.073  0.00  0.00    +0.292 HD
ENDBRANCH   5  10
BRANCH   3  12
ATOM     12  O   UNL     1       0.032  -4.966  -3.643  0.00  0.00    -0.506 OA
ATOM     13  H   UNL     1      -0.842  -5.377  -3.601  0.00  0.00    +0.292 HD
ENDBRANCH   3  12
ENDBRANCH   1   2
BRANCH   1  14
ATOM     14  C   UNL     1      -1.582  -2.424  -1.585  0.00  0.00    +0.239 C 
ATOM     15  O   UNL     1      -1.835  -1.543  -0.792  0.00  0.00    -0.273 OA
ATOM     16  N   UNL     1      -2.577  -3.177  -2.096  0.00  0.00    -0.311 N 
ATOM     17  H   UNL     1      -2.374  -3.882  -2.730  0.00  0.00    +0.149 HD
BRANCH  16  18
ATOM     18  C   UNL     1      -3.963  -2.930  -1.693  0.00  0.00    +0.073 C 
ATOM     19  C   UNL     1      -4.259  -3.683  -0.394  0.00  0.00    +0.022 C 
ATOM     20  C   UNL     1      -5.707  -3.425   0.027  0.00  0.00    +0.002 C 
ATOM     21  C   UNL     1      -6.652  -3.914  -1.073  0.00  0.00    +0.000 C 
ATOM     22  C   UNL     1      -6.357  -3.161  -2.371  0.00  0.00    +0.002 C 
ATOM     23  C   UNL     1      -4.909  -3.419  -2.792  0.00  0.00    +0.022 C 
ENDBRANCH  16  18
ENDBRANCH   1  14
BRANCH   1  24
ATOM     24  N   UNL     1       0.717  -1.673  -1.388  0.00  0.00    -0.286 N 
ATOM     25  C   UNL     1       2.042  -1.901  -1.290  0.00  0.00    +0.217 C 
ATOM     26  O   UNL     1       2.511  -2.938  -1.708  0.00  0.00    -0.276 OA
BRANCH  24  27
ATOM     27  C   UNL     1       0.149  -0.420  -0.884  0.00  0.00    +0.108 C 
BRANCH  27  29
ATOM     28  C   UNL     1      -0.892   0.678   1.103  0.00  0.00    +0.005 C 
ATOM     29  C   UNL     1      -0.121  -0.550   0.616  0.00  0.00    +0.016 C 
ENDBRANCH  27  29
ENDBRANCH  24  27
BRANCH  25  30
ATOM     30  C   UNL     1       2.939  -0.866  -0.661  0.00  0.00    +0.104 C 
BRANCH  30  31
ATOM     31  C   UNL     1       4.384  -1.369  -0.674  0.00  0.00    +0.025 C 
ATOM     32  C   UNL     1       4.866  -1.498  -2.121  0.00  0.00    +0.013 C 
BRANCH  31  33
ATOM     33  C   UNL     1       5.263  -0.392   0.063  0.00  0.00    -0.044 A 
ATOM     34  C   UNL     1       5.356   0.918  -0.371  0.00  0.00    +0.004 A 
ATOM     35  C   UNL     1       6.162   1.814   0.305  0.00  0.00    +0.000 A 
ATOM     36  C   UNL     1       6.875   1.402   1.415  0.00  0.00    +0.000 A 
ATOM     37  C   UNL     1       6.781   0.093   1.850  0.00  0.00    +0.000 A 
ATOM     38  C   UNL     1       5.971  -0.803   1.176  0.00  0.00    +0.004 A 
ENDBRANCH  31  33
ENDBRANCH  30  31
ENDBRANCH  25  30
ENDBRANCH   1  24
TORSDOF 12
