REMARK  Name = ZINC64677632
REMARK  12 active torsions:
REMARK  status: ('A' for Active; 'I' for Inactive)
REMARK    1  A    between atoms: C_1  and  C_2
REMARK    2  A    between atoms: C_2  and  C_3
REMARK    3  A    between atoms: C_3  and  C_4
REMARK    4  A    between atoms: C_6  and  S_11
REMARK    5  A    between atoms: S_11  and  C_12
REMARK    6  A    between atoms: C_12  and  C_13
REMARK    7  A    between atoms: N_15  and  C_16
REMARK    8  A    between atoms: N_15  and  C_17
REMARK    9  A    between atoms: C_17  and  C_18
REMARK   10  A    between atoms: N_20  and  C_21
REMARK   11  A    between atoms: C_26  and  C_27
REMARK   12  A    between atoms: C_27  and  C_28
REMARK                            x       y       z     vdW  Elec       q    Type
REMARK                         _______ _______ _______ _____ _____    ______ ____
ROOT
ATOM      1  C   UNL     1       2.282  -7.345  -0.034  0.00  0.00    +0.226 C 
ATOM      2  O   UNL     1       3.344  -6.759  -0.028  0.00  0.00    -0.275 OA
ATOM      3  N   UNL     1       2.257  -8.693  -0.051  0.00  0.00    -0.295 N 
ATOM      4  C   UNL     1       0.974  -9.401  -0.058  0.00  0.00    +0.132 C 
ENDROOT
BRANCH   1   5
ATOM      5  C   UNL     1       0.991  -6.567  -0.024  0.00  0.00    +0.173 C 
BRANCH   5   6
ATOM      6  S   UNL     1       1.356  -4.790  -0.002  0.00  0.00    -0.079 S 
BRANCH   6   9
ATOM      7  C   UNL     1      -1.396  -2.022   0.033  0.00  0.00    +0.030 C 
ATOM      8  N   UNL     1      -0.278  -2.681   0.025  0.00  0.00    -0.233 NA
ATOM      9  C   UNL     1      -0.233  -4.029   0.008  0.00  0.00    +0.181 C 
ATOM     10  N   UNL     1      -1.288  -4.820  -0.001  0.00  0.00    -0.155 NA
ATOM     11  C   UNL     1      -2.531  -4.334   0.005  0.00  0.00    +0.244 C 
ATOM     12  O   UNL     1      -3.499  -5.069  -0.003  0.00  0.00    -0.273 OA
ATOM     13  C   UNL     1      -2.684  -2.824   0.030  0.00  0.00    +0.148 C 
BRANCH   7  14
ATOM     14  C   UNL     1      -1.415  -0.516   0.051  0.00  0.00    +0.051 C 
BRANCH  14  16
ATOM     15  C   UNL     1       0.002   1.542   0.069  0.00  0.00    +0.004 C 
ATOM     16  C   UNL     1       0.021   0.012   0.050  0.00  0.00    +0.002 C 
ENDBRANCH  14  16
ENDBRANCH   7  14
ENDBRANCH   6   9
ENDBRANCH   5   6
ENDBRANCH   1   5
BRANCH   3  17
ATOM     17  C   UNL     1       3.511  -9.449  -0.061  0.00  0.00    +0.203 C 
BRANCH  17  18
ATOM     18  C   UNL     1       3.943  -9.725   1.357  0.00  0.00    +0.235 C 
ATOM     19  O   UNL     1       3.268  -9.330   2.284  0.00  0.00    -0.274 OA
ATOM     20  N   UNL     1       5.078 -10.412   1.594  0.00  0.00    -0.284 N 
ATOM     21  H   UNL     1       5.575 -10.797   0.855  0.00  0.00    +0.155 HD
BRANCH  20  22
ATOM     22  C   UNL     1       5.539 -10.570   2.905  0.00  0.00    +0.037 A 
ATOM     23  C   UNL     1       5.183  -9.650   3.884  0.00  0.00    +0.023 A 
ATOM     24  C   UNL     1       5.640  -9.809   5.177  0.00  0.00    +0.002 A 
ATOM     25  C   UNL     1       6.452 -10.880   5.499  0.00  0.00    +0.000 A 
ATOM     26  C   UNL     1       6.809 -11.797   4.527  0.00  0.00    +0.005 A 
ATOM     27  C   UNL     1       6.350 -11.648   3.233  0.00  0.00    -0.026 A 
BRANCH  27  28
ATOM     28  C   UNL     1       6.734 -12.652   2.176  0.00  0.00    +0.033 C 
ATOM     29  C   UNL     1       7.962 -12.147   1.416  0.00  0.00    +0.009 C 
ENDBRANCH  27  28
ENDBRANCH  20  22
ENDBRANCH  17  18
ENDBRANCH   3  17
TORSDOF 9
