REMARK  Name = ZINC03312124
REMARK  9 active torsions:
REMARK  status: ('A' for Active; 'I' for Inactive)
REMARK    1  A    between atoms: C_1  and  C_2
REMARK    2  A    between atoms: C_2  and  C_3
REMARK    3  A    between atoms: C_4  and  C_31
REMARK    4  A    between atoms: C_15  and  C_17
REMARK    5  A    between atoms: C_17  and  C_19
REMARK    6  A    between atoms: C_17  and  N_20
REMARK    7  A    between atoms: C_31  and  O_33
REMARK    8  A    between atoms: O_33  and  C_34
REMARK    9  A    between atoms: C_34  and  C_35
REMARK                            x       y       z     vdW  Elec       q    Type
REMARK                         _______ _______ _______ _____ _____    ______ ____
ROOT
ATOM      1  C   UNL     1      -2.462   1.213  -0.090  0.00  0.00    +0.025 C 
ATOM      2  C   UNL     1      -1.301   1.925   0.104  0.00  0.00    +0.116 C 
ATOM      3  C   UNL     1      -1.312   3.384   0.225  0.00  0.00    +0.141 C 
ATOM      4  N   UNL     1      -2.042   4.196  -0.460  0.00  0.00    -0.230 NA
ATOM      5  C   UNL     1      -2.933   3.873  -1.442  0.00  0.00    +0.087 A 
ATOM      6  C   UNL     1      -3.012   4.678  -2.580  0.00  0.00    +0.030 A 
ATOM      7  C   UNL     1      -3.934   4.394  -3.569  0.00  0.00    +0.002 A 
ATOM      8  C   UNL     1      -4.785   3.314  -3.437  0.00  0.00    +0.002 A 
ATOM      9  C   UNL     1      -4.705   2.498  -2.321  0.00  0.00    +0.025 A 
ATOM     10  C   UNL     1      -3.772   2.761  -1.333  0.00  0.00    +0.057 A 
ATOM     11  N   UNL     1      -3.643   1.866  -0.254  0.00  0.00    -0.315 N 
ATOM     12  N   UNL     1      -0.460   3.942   1.159  0.00  0.00    -0.268 N 
ATOM     13  C   UNL     1      -0.421   5.280   1.321  0.00  0.00    +0.239 C 
ATOM     14  O   UNL     1      -1.133   5.993   0.647  0.00  0.00    -0.273 OA
ATOM     15  H   UNL     1      -4.382   1.719   0.358  0.00  0.00    +0.152 HD
ATOM     16  H   UNL     1       0.109   3.372   1.699  0.00  0.00    +0.156 HD
ENDROOT
BRANCH   1  18
ATOM     17  C   UNL     1      -2.779  -0.835   1.271  0.00  0.00    +0.010 C 
ATOM     18  C   UNL     1      -2.426  -0.293  -0.116  0.00  0.00    +0.048 C 
ENDBRANCH   1  18
BRANCH  13  19
ATOM     19  C   UNL     1       0.508   5.889   2.340  0.00  0.00    +0.168 C 
ATOM     20  C   UNL     1       1.952   5.515   2.001  0.00  0.00    +0.038 C 
BRANCH  19  21
ATOM     21  N   UNL     1       0.364   7.346   2.322  0.00  0.00    -0.222 N 
ATOM     22  C   UNL     1       0.603   8.122   1.250  0.00  0.00    +0.254 C 
ATOM     23  O   UNL     1       0.967   7.731   0.159  0.00  0.00    -0.270 OA
ATOM     24  C   UNL     1       0.347   9.530   1.620  0.00  0.00    +0.049 A 
ATOM     25  C   UNL     1       0.421  10.737   0.944  0.00  0.00    +0.014 A 
ATOM     26  C   UNL     1       0.109  11.915   1.604  0.00  0.00    +0.001 A 
ATOM     27  C   UNL     1      -0.276  11.893   2.931  0.00  0.00    +0.001 A 
ATOM     28  C   UNL     1      -0.355  10.693   3.620  0.00  0.00    +0.014 A 
ATOM     29  C   UNL     1      -0.046   9.508   2.973  0.00  0.00    +0.049 A 
ATOM     30  C   UNL     1      -0.020   8.086   3.378  0.00  0.00    +0.254 C 
ATOM     31  O   UNL     1      -0.298   7.658   4.480  0.00  0.00    -0.270 OA
ENDBRANCH  19  21
ENDBRANCH  13  19
BRANCH   2  32
ATOM     32  C   UNL     1      -0.028   1.209   0.184  0.00  0.00    +0.344 C 
ATOM     33  O   UNL     1       0.717   1.182  -0.778  0.00  0.00    -0.245 OA
BRANCH  32  34
ATOM     34  O   UNL     1       0.324   0.584   1.327  0.00  0.00    -0.461 OA
BRANCH  34  35
ATOM     35  C   UNL     1       1.583  -0.090   1.337  0.00  0.00    +0.229 C 
ATOM     36  C   UNL     1       1.807  -0.734   2.707  0.00  0.00    +0.048 C 
ENDBRANCH  34  35
ENDBRANCH  32  34
ENDBRANCH   2  32
TORSDOF 6
