REMARK  Name = ZINC29336799
REMARK  7 active torsions:
REMARK  status: ('A' for Active; 'I' for Inactive)
REMARK    1  A    between atoms: C_1  and  C_2
REMARK    2  A    between atoms: C_2  and  N_3
REMARK    3  A    between atoms: C_4  and  C_6
REMARK    4  A    between atoms: C_6  and  C_8
REMARK    5  A    between atoms: C_6  and  N_9
REMARK    6  A    between atoms: N_12  and  N_13
REMARK    7  A    between atoms: C_14  and  C_16
REMARK                            x       y       z     vdW  Elec       q    Type
REMARK                         _______ _______ _______ _____ _____    ______ ____
ROOT
ATOM      1  N   UNL     1      -3.608   1.789   0.029  0.00  0.00    -0.287 N 
ATOM      2  C   UNL     1      -4.805   1.410  -0.461  0.00  0.00    +0.317 C 
ATOM      3  O   UNL     1      -4.950   0.290  -0.911  0.00  0.00    -0.251 OA
ATOM      4  N   UNL     1      -5.841   2.272  -0.451  0.00  0.00    -0.218 N 
ATOM      5  H   UNL     1      -3.477   2.803   0.436  0.00  0.00    +0.151 HD
ATOM      6  H   UNL     1      -6.818   1.962  -0.851  0.00  0.00    +0.174 HD
ENDROOT
BRANCH   4   7
ATOM      7  N   UNL     1      -5.674   3.562   0.068  0.00  0.00    -0.228 N 
ATOM      8  C   UNL     1      -6.711   4.424   0.077  0.00  0.00    +0.276 C 
ATOM      9  O   UNL     1      -7.791   4.081  -0.365  0.00  0.00    -0.267 OA
ATOM     10  H   UNL     1      -4.698   3.872   0.468  0.00  0.00    +0.173 HD
BRANCH   8  11
ATOM     11  C   UNL     1      -6.536   5.775   0.621  0.00  0.00    +0.104 A 
ATOM     12  C   UNL     1      -7.501   6.757   0.688  0.00  0.00    +0.047 A 
ATOM     13  C   UNL     1      -6.907   7.878   1.278  0.00  0.00    +0.036 A 
ATOM     14  C   UNL     1      -5.614   7.570   1.545  0.00  0.00    +0.098 A 
ATOM     15  N   UNL     1      -5.377   6.295   1.150  0.00  0.00    -0.356 N 
ATOM     16  H   UNL     1      -4.466   5.678   1.193  0.00  0.00    +0.166 HD
ATOM     17 BR   UNL     1      -7.754   9.531   1.632  0.00  0.00    -0.049 Br
ENDBRANCH   8  11
ENDBRANCH   4   7
BRANCH   1  18
ATOM     18  C   UNL     1      -2.482   0.853   0.018  0.00  0.00    +0.157 C 
ATOM     19  C   UNL     1      -2.545  -0.035   1.263  0.00  0.00    +0.038 C 
BRANCH  18  21
ATOM     20  N   UNL     1      -0.011   0.966   0.007  0.00  0.00    -0.314 N 
ATOM     21  C   UNL     1      -1.187   1.624   0.017  0.00  0.00    +0.233 C 
ATOM     22  O   UNL     1      -1.204   2.837   0.023  0.00  0.00    -0.274 OA
ATOM     23  H   UNL     1       0.004  -0.134   0.006  0.00  0.00    +0.149 HD
BRANCH  20  25
ATOM     24  C   UNL     1       2.424   0.737  -0.017  0.00  0.00    +0.024 C 
ATOM     25  C   UNL     1       1.248   1.716  -0.001  0.00  0.00    +0.101 C 
ENDBRANCH  20  25
ENDBRANCH  18  21
ENDBRANCH   1  18
TORSDOF 5
