REMARK  Name = ZINC12788581
REMARK  3 active torsions:
REMARK  status: ('A' for Active; 'I' for Inactive)
REMARK    1  A    between atoms: C_3  and  C_6
REMARK    2  A    between atoms: C_14  and  C_16
REMARK    3  A    between atoms: C_14  and  C_23
REMARK                            x       y       z     vdW  Elec       q    Type
REMARK                         _______ _______ _______ _____ _____    ______ ____
ROOT
ATOM      1  C   UNL     1      -0.691  -2.519   2.940  0.00  0.00    +0.189 A 
ATOM      2  N   UNL     1       0.106  -1.460   3.184  0.00  0.00    -0.200 NA
ATOM      3  C   UNL     1      -0.452  -0.383   2.714  0.00  0.00    +0.199 A 
ATOM      4  N   UNL     1      -1.648  -0.732   2.136  0.00  0.00    -0.157 N 
ATOM      5  N   UNL     1      -1.772  -2.112   2.304  0.00  0.00    -0.140 NA
ATOM      6  C   UNL     1      -2.471   0.142   1.541  0.00  0.00    +0.339 C 
ATOM      7  O   UNL     1      -3.596  -0.218   1.256  0.00  0.00    -0.248 OA
ATOM      8  N   UNL     1      -2.106   1.395   1.247  0.00  0.00    -0.270 N 
ATOM      9  C   UNL     1      -0.733   1.888   1.268  0.00  0.00    +0.211 C 
ATOM     10  S   UNL     1       0.123   1.285   2.751  0.00  0.00    -0.046 S 
ATOM     11  H   UNL     1      -2.806   2.021   1.001  0.00  0.00    +0.152 HD
ENDROOT
BRANCH   9  12
ATOM     12  C   UNL     1      -0.746   3.395   1.278  0.00  0.00    -0.005 A 
ATOM     13  C   UNL     1       0.286   4.091   1.877  0.00  0.00    +0.010 A 
ATOM     14  C   UNL     1       0.278   5.473   1.882  0.00  0.00    +0.039 A 
ATOM     15  C   UNL     1      -0.771   6.160   1.295  0.00  0.00    +0.123 A 
ATOM     16  C   UNL     1      -1.808   5.462   0.699  0.00  0.00    +0.039 A 
ATOM     17  C   UNL     1      -1.794   4.080   0.691  0.00  0.00    +0.010 A 
ATOM     18  F   UNL     1      -0.783   7.511   1.303  0.00  0.00    -0.205 F 
ENDBRANCH   9  12
BRANCH   1  21
ATOM     19  C   UNL     1       0.743  -5.774   4.235  0.00  0.00    +0.008 A 
ATOM     20  C   UNL     1       0.690  -4.421   3.982  0.00  0.00    +0.019 A 
ATOM     21  C   UNL     1      -0.400  -3.916   3.325  0.00  0.00    +0.058 A 
ATOM     22  S   UNL     1      -1.382  -5.383   3.061  0.00  0.00    -0.093 S 
ATOM     23  C   UNL     1      -0.284  -6.564   3.827  0.00  0.00    +0.046 A 
ENDBRANCH   1  21
BRANCH   9  24
ATOM     24  C   UNL     1       0.003   1.395   0.021  0.00  0.00    +0.425 C 
ATOM     25  F   UNL     1       0.022  -0.004   0.014  0.00  0.00    -0.167 F 
ATOM     26  F   UNL     1       1.316   1.879   0.032  0.00  0.00    -0.167 F 
ATOM     27  F   UNL     1      -0.655   1.859  -1.123  0.00  0.00    -0.167 F 
ENDBRANCH   9  24
TORSDOF 3
