REMARK  Name = ZINC06813486
REMARK  4 active torsions:
REMARK  status: ('A' for Active; 'I' for Inactive)
REMARK    1  A    between atoms: C_3  and  C_9
REMARK    2  A    between atoms: N_10  and  N_11
REMARK    3  A    between atoms: C_12  and  C_14
REMARK    4  A    between atoms: C_16  and  C_20
REMARK                            x       y       z     vdW  Elec       q    Type
REMARK                         _______ _______ _______ _____ _____    ______ ____
ROOT
ATOM      1  C   UNL     1       8.430   2.330  -0.067  0.00  0.00    +0.122 A 
ATOM      2  C   UNL     1       9.710   1.801  -0.088  0.00  0.00    +0.058 A 
ATOM      3  C   UNL     1      10.566   2.905  -0.088  0.00  0.00    +0.070 A 
ATOM      4  N   UNL     1       9.828   3.985  -0.069  0.00  0.00    -0.178 NA
ATOM      5  N   UNL     1       8.578   3.688  -0.062  0.00  0.00    -0.272 N 
ATOM      6  H   UNL     1       7.851   4.329  -0.052  0.00  0.00    +0.189 HD
ENDROOT
BRANCH   3   7
ATOM      7  C   UNL     1      12.072   2.859  -0.107  0.00  0.00    +0.015 C 
ATOM      8  C   UNL     1      12.538   1.834  -1.142  0.00  0.00    +0.016 C 
ATOM      9  C   UNL     1      14.067   1.788  -1.162  0.00  0.00    -0.010 C 
ATOM     10  C   UNL     1      14.615   3.168  -1.529  0.00  0.00    +0.007 C 
ATOM     11  C   UNL     1      14.149   4.194  -0.493  0.00  0.00    -0.010 C 
ATOM     12  C   UNL     1      12.619   4.240  -0.474  0.00  0.00    +0.016 C 
ATOM     13  C   UNL     1      14.664   3.792   0.890  0.00  0.00    +0.007 C 
ATOM     14  C   UNL     1      14.117   2.412   1.257  0.00  0.00    -0.010 C 
ATOM     15  C   UNL     1      14.583   1.386   0.222  0.00  0.00    +0.007 C 
ATOM     16  C   UNL     1      12.588   2.458   1.276  0.00  0.00    +0.016 C 
ENDBRANCH   3   7
BRANCH   1  18
ATOM     17  N   UNL     1       5.990   2.240  -0.044  0.00  0.00    -0.202 N 
ATOM     18  C   UNL     1       7.165   1.579  -0.059  0.00  0.00    +0.281 C 
ATOM     19  O   UNL     1       7.179   0.363  -0.065  0.00  0.00    -0.267 OA
ATOM     20  H   UNL     1       5.979   3.210  -0.039  0.00  0.00    +0.178 HD
BRANCH  17  22
ATOM     21  C   UNL     1       3.654   2.161  -0.022  0.00  0.00    +0.139 C 
ATOM     22  N   UNL     1       4.785   1.525  -0.036  0.00  0.00    -0.187 NA
BRANCH  21  25
ATOM     23  C   UNL     1      -0.017   1.381   0.010  0.00  0.00    +0.021 A 
ATOM     24  C   UNL     1       1.166   2.090   0.002  0.00  0.00    +0.012 A 
ATOM     25  C   UNL     1       2.385   1.409  -0.013  0.00  0.00    +0.013 A 
ATOM     26  C   UNL     1       2.398   0.011  -0.021  0.00  0.00    +0.051 A 
ATOM     27  C   UNL     1       1.207  -0.686  -0.013  0.00  0.00    +0.040 A 
ATOM     28  C   UNL     1       0.002  -0.004   0.002  0.00  0.00    +0.042 A 
ATOM     29 CL   UNL     1      -1.492  -0.888   0.011  0.00  0.00    -0.083 Cl
ATOM     30 CL   UNL     1       3.908  -0.846  -0.040  0.00  0.00    -0.083 Cl
ENDBRANCH  21  25
ENDBRANCH  17  22
ENDBRANCH   1  18
TORSDOF 4
