REMARK  Name = ZINC04324747
REMARK  3 active torsions:
REMARK  status: ('A' for Active; 'I' for Inactive)
REMARK    1  A    between atoms: C_3  and  S_8
REMARK    2  A    between atoms: S_8  and  N_11
REMARK    3  A    between atoms: N_11  and  C_12
REMARK                            x       y       z     vdW  Elec       q    Type
REMARK                         _______ _______ _______ _____ _____    ______ ____
ROOT
ATOM      1  S   UNL     1      -0.017   1.417   0.010  0.00  0.00    +0.059 S 
ATOM      2  O   UNL     1       0.002  -0.004   0.002  0.00  0.00    -0.153 OA
ATOM      3  O   UNL     1       1.172   2.195   0.003  0.00  0.00    -0.153 OA
ENDROOT
BRANCH   1   6
ATOM      4  C   UNL     1      -1.492   3.560  -3.051  0.00  0.00    +0.040 A 
ATOM      5  C   UNL     1      -0.758   3.168  -1.948  0.00  0.00    +0.031 A 
ATOM      6  C   UNL     1      -0.954   1.915  -1.397  0.00  0.00    +0.105 A 
ATOM      7  C   UNL     1      -1.879   1.052  -1.952  0.00  0.00    +0.031 A 
ATOM      8  C   UNL     1      -2.618   1.443  -3.052  0.00  0.00    +0.040 A 
ATOM      9  C   UNL     1      -2.423   2.698  -3.605  0.00  0.00    +0.124 A 
ATOM     10  F   UNL     1      -3.141   3.080  -4.684  0.00  0.00    -0.205 F 
ENDBRANCH   1   6
BRANCH   1  11
ATOM     11  N   UNL     1      -0.872   1.871   1.353  0.00  0.00    -0.185 NA
ATOM     12  H   UNL     1      -0.510   2.541   1.955  0.00  0.00    +0.148 HD
BRANCH  11  13
ATOM     13  C   UNL     1      -2.174   1.261   1.634  0.00  0.00    +0.099 C 
ATOM     14  C   UNL     1      -3.297   2.168   1.104  0.00  0.00    +0.044 C 
ATOM     15  C   UNL     1      -4.661   1.704   1.669  0.00  0.00    +0.167 C 
ATOM     16  S   UNL     1      -4.193   0.931   3.270  0.00  0.00    -0.029 S 
ATOM     17  O   UNL     1      -4.528  -0.450   3.233  0.00  0.00    -0.174 OA
ATOM     18  O   UNL     1      -4.678   1.739   4.334  0.00  0.00    -0.174 OA
ATOM     19  C   UNL     1      -2.362   1.107   3.170  0.00  0.00    +0.186 C 
ENDBRANCH  11  13
ENDBRANCH   1  11
TORSDOF 3
