REMARK  Name = ZINC34906427
REMARK  8 active torsions:
REMARK  status: ('A' for Active; 'I' for Inactive)
REMARK    1  A    between atoms: C_5  and  O_7
REMARK    2  A    between atoms: O_7  and  C_8
REMARK    3  A    between atoms: C_8  and  C_9
REMARK    4  A    between atoms: C_11  and  C_14
REMARK    5  A    between atoms: N_16  and  C_17
REMARK    6  A    between atoms: C_23  and  N_25
REMARK    7  A    between atoms: N_28  and  C_29
REMARK    8  A    between atoms: C_32  and  C_35
REMARK                            x       y       z     vdW  Elec       q    Type
REMARK                         _______ _______ _______ _____ _____    ______ ____
ROOT
ATOM      1  C   UNL     1       0.749  -7.828   4.220  0.00  0.00    +0.093 C 
ATOM      2  C   UNL     1       2.235  -8.050   4.510  0.00  0.00    +0.024 C 
ATOM      3  C   UNL     1       2.388  -9.073   5.637  0.00  0.00    +0.002 C 
ATOM      4  C   UNL     1       1.695  -8.550   6.897  0.00  0.00    +0.002 C 
ATOM      5  C   UNL     1       0.209  -8.328   6.608  0.00  0.00    +0.024 C 
ATOM      6  C   UNL     1       0.057  -7.305   5.480  0.00  0.00    +0.095 C 
ENDROOT
BRANCH   6   7
ATOM      7  N   UNL     1      -1.366  -7.092   5.203  0.00  0.00    -0.295 N 
ATOM      8  C   UNL     1      -2.068  -6.202   5.931  0.00  0.00    +0.304 C 
ATOM      9  O   UNL     1      -1.521  -5.575   6.818  0.00  0.00    -0.253 OA
ATOM     10  N   UNL     1      -3.377  -6.006   5.676  0.00  0.00    -0.269 N 
ATOM     11  H   UNL     1      -1.802  -7.592   4.495  0.00  0.00    +0.151 HD
ATOM     12  H   UNL     1      -3.798  -6.455   4.926  0.00  0.00    +0.156 HD
BRANCH  10  13
ATOM     13  C   UNL     1      -4.127  -5.156   6.490  0.00  0.00    +0.035 A 
ATOM     14  C   UNL     1      -3.542  -4.014   7.027  0.00  0.00    +0.024 A 
ATOM     15  C   UNL     1      -4.279  -3.174   7.831  0.00  0.00    +0.020 A 
ATOM     16  C   UNL     1      -5.617  -3.469   8.107  0.00  0.00    +0.052 A 
ATOM     17  C   UNL     1      -6.202  -4.617   7.565  0.00  0.00    +0.020 A 
ATOM     18  C   UNL     1      -5.460  -5.450   6.758  0.00  0.00    +0.024 A 
BRANCH  16  19
ATOM     19  C   UNL     1      -6.386  -2.597   8.943  0.00  0.00    +0.099 C 
ATOM     20  N   UNL     1      -6.997  -1.906   9.606  0.00  0.00    -0.191 NA
ENDBRANCH  16  19
ENDBRANCH  10  13
ENDBRANCH   6   7
BRANCH   1  23
ATOM     21  C   UNL     1       0.661  -7.249   1.855  0.00  0.00    +0.263 C 
ATOM     22  O   UNL     1       0.835  -8.424   1.591  0.00  0.00    -0.269 OA
ATOM     23  N   UNL     1       0.604  -6.849   3.140  0.00  0.00    -0.305 N 
ATOM     24  H   UNL     1       0.465  -5.912   3.351  0.00  0.00    +0.149 HD
BRANCH  21  27
ATOM     25  C   UNL     1       0.203  -4.154  -0.001  0.00  0.00    +0.116 A 
ATOM     26  N   UNL     1       0.323  -4.965   1.014  0.00  0.00    -0.236 NA
ATOM     27  C   UNL     1       0.515  -6.265   0.769  0.00  0.00    +0.133 A 
ATOM     28  C   UNL     1       0.567  -6.627  -0.550  0.00  0.00    +0.080 A 
ATOM     29  S   UNL     1       0.343  -5.160  -1.337  0.00  0.00    -0.076 S 
BRANCH  25  30
ATOM     30  C   UNL     1      -0.018  -2.663   0.021  0.00  0.00    +0.291 C 
BRANCH  30  31
ATOM     31  O   UNL     1       1.246  -1.995   0.020  0.00  0.00    -0.482 OA
BRANCH  31  36
ATOM     32  C   UNL     1      -0.005   1.422   0.075  0.00  0.00    +0.004 A 
ATOM     33  C   UNL     1       1.182   2.132   0.076  0.00  0.00    +0.003 A 
ATOM     34  C   UNL     1       2.391   1.462   0.058  0.00  0.00    +0.042 A 
ATOM     35  C   UNL     1       2.416   0.079   0.039  0.00  0.00    +0.165 A 
ATOM     36  C   UNL     1       1.225  -0.635   0.039  0.00  0.00    +0.156 A 
ATOM     37  C   UNL     1       0.014   0.041   0.057  0.00  0.00    +0.048 A 
ATOM     38  F   UNL     1       3.598  -0.576   0.020  0.00  0.00    -0.202 F 
ENDBRANCH  31  36
ENDBRANCH  30  31
ENDBRANCH  25  30
ENDBRANCH  21  27
ENDBRANCH   1  23
TORSDOF 8
