REMARK  Name = ZINC36206266
REMARK  11 active torsions:
REMARK  status: ('A' for Active; 'I' for Inactive)
REMARK    1  A    between atoms: C_1  and  C_2
REMARK    2  A    between atoms: C_2  and  O_3
REMARK    3  A    between atoms: O_3  and  C_4
REMARK    4  A    between atoms: C_4  and  C_5
REMARK    5  A    between atoms: C_5  and  C_7
REMARK    6  A    between atoms: C_5  and  O_34
REMARK    7  A    between atoms: C_7  and  N_8
REMARK    8  A    between atoms: N_8  and  C_9
REMARK    9  A    between atoms: N_8  and  C_28
REMARK   10  A    between atoms: C_9  and  C_10
REMARK   11  A    between atoms: C_16  and  C_21
REMARK                            x       y       z     vdW  Elec       q    Type
REMARK                         _______ _______ _______ _____ _____    ______ ____
ROOT
ATOM      1  C   UNL     1      -5.972  -6.105  -0.130  0.00  0.00    +0.094 A 
ATOM      2  N   UNL     1      -6.295  -7.423  -0.090  0.00  0.00    -0.312 N 
ATOM      3  H   UNL     1      -5.587  -8.086  -0.088  0.00  0.00    +0.170 HD
ATOM      4  C   UNL     1      -7.578  -7.828  -0.053  0.00  0.00    +0.260 A 
ATOM      5  O   UNL     1      -7.851  -9.015  -0.017  0.00  0.00    -0.267 OA
ATOM      6  C   UNL     1      -8.617  -6.843  -0.056  0.00  0.00    +0.080 A 
ATOM      7  C   UNL     1     -10.062  -7.027  -0.021  0.00  0.00    +0.006 A 
ATOM      8  C   UNL     1     -10.859  -5.931  -0.031  0.00  0.00    +0.056 A 
ATOM      9  S   UNL     1      -9.699  -4.578  -0.090  0.00  0.00    -0.076 S 
ATOM     10  C   UNL     1      -8.187  -5.506  -0.099  0.00  0.00    +0.116 A 
ATOM     11  N   UNL     1      -6.897  -5.183  -0.129  0.00  0.00    -0.229 NA
ENDROOT
BRANCH   7  12
ATOM     12  C   UNL     1     -10.650  -8.387   0.026  0.00  0.00    +0.019 A 
ATOM     13  C   UNL     1     -11.414  -8.856  -1.042  0.00  0.00    +0.011 A 
ATOM     14  C   UNL     1     -11.958 -10.123  -0.994  0.00  0.00    +0.001 A 
ATOM     15  C   UNL     1     -11.748 -10.929   0.111  0.00  0.00    +0.003 A 
ATOM     16  C   UNL     1     -10.992 -10.470   1.175  0.00  0.00    +0.039 A 
ATOM     17  C   UNL     1     -10.436  -9.205   1.136  0.00  0.00    +0.131 A 
ATOM     18  F   UNL     1      -9.693  -8.760   2.173  0.00  0.00    -0.205 F 
ENDBRANCH   7  12
BRANCH   1  19
ATOM     19  C   UNL     1      -4.521  -5.699  -0.170  0.00  0.00    -0.003 C 
BRANCH  19  20
ATOM     20  N   UNL     1      -4.418  -4.239  -0.035  0.00  0.00    +0.388 N 
ATOM     21  H   UNL     1      -5.183  -3.801  -0.525  0.00  0.00    -0.081 HD
BRANCH  20  22
ATOM     22  C   UNL     1      -4.473  -3.874   1.387  0.00  0.00    -0.068 C 
ATOM     23  C   UNL     1      -3.260  -4.462   2.112  0.00  0.00    -0.015 C 
ATOM     24  C   UNL     1      -3.318  -4.081   3.592  0.00  0.00    -0.002 C 
ATOM     25  C   UNL     1      -4.601  -4.636   4.213  0.00  0.00    -0.000 C 
ATOM     26  C   UNL     1      -5.814  -4.047   3.487  0.00  0.00    -0.002 C 
ATOM     27  C   UNL     1      -5.756  -4.428   2.007  0.00  0.00    -0.015 C 
ENDBRANCH  20  22
BRANCH  20  28
ATOM     28  C   UNL     1      -3.144  -3.784  -0.609  0.00  0.00    -0.044 C 
BRANCH  28  29
ATOM     29  C   UNL     1      -3.119  -2.255  -0.645  0.00  0.00    +0.124 C 
BRANCH  29  30
ATOM     30  O   UNL     1      -3.047  -1.748   0.689  0.00  0.00    -0.391 OA
ATOM     31  H   UNL     1      -2.224  -1.965   1.148  0.00  0.00    +0.210 HD
ENDBRANCH  29  30
BRANCH  29  32
ATOM     32  C   UNL     1      -1.898  -1.783  -1.437  0.00  0.00    +0.189 C 
BRANCH  32  33
ATOM     33  O   UNL     1      -1.936  -0.361  -1.570  0.00  0.00    -0.378 OA
BRANCH  33  35
ATOM     34  C   UNL     1      -0.979   1.706  -2.377  0.00  0.00    +0.034 C 
ATOM     35  C   UNL     1      -0.834   0.185  -2.297  0.00  0.00    +0.156 C 
ENDBRANCH  33  35
ENDBRANCH  32  33
ENDBRANCH  29  32
ENDBRANCH  28  29
ENDBRANCH  20  28
ENDBRANCH  19  20
ENDBRANCH   1  19
TORSDOF 10
