REMARK  Name = ZINC36029849
REMARK  16 active torsions:
REMARK  status: ('A' for Active; 'I' for Inactive)
REMARK    1  A    between atoms: C_1  and  C_2
REMARK    2  A    between atoms: C_2  and  C_3
REMARK    3  A    between atoms: C_2  and  C_4
REMARK    4  A    between atoms: C_4  and  C_5
REMARK    5  A    between atoms: N_9  and  C_23
REMARK    6  A    between atoms: N_14  and  C_17
REMARK    7  A    between atoms: C_17  and  N_19
REMARK    8  A    between atoms: N_19  and  C_20
REMARK    9  A    between atoms: C_20  and  C_21
REMARK   10  A    between atoms: C_20  and  C_22
REMARK   11  A    between atoms: C_23  and  C_24
REMARK   12  A    between atoms: C_24  and  C_25
REMARK   13  A    between atoms: C_28  and  O_33
REMARK   14  A    between atoms: C_29  and  O_31
REMARK   15  A    between atoms: O_31  and  C_32
REMARK   16  A    between atoms: O_33  and  C_34
REMARK                            x       y       z     vdW  Elec       q    Type
REMARK                         _______ _______ _______ _____ _____    ______ ____
ROOT
ATOM      1  C   UNL     1      -1.532  -2.026  -0.064  0.00  0.00    +0.019 C 
ATOM      2  C   UNL     1      -2.910  -2.651  -0.056  0.00  0.00    +0.200 C 
ATOM      3  O   UNL     1      -3.804  -2.387   0.721  0.00  0.00    -0.277 OA
ATOM      4  N   UNL     1      -2.978  -3.551  -1.059  0.00  0.00    -0.313 N 
ATOM      5  C   UNL     1      -1.697  -3.588  -1.770  0.00  0.00    +0.006 C 
ATOM      6  N   UNL     1      -0.975  -2.351  -1.399  0.00  0.00    +0.401 N 
ATOM      7  C   UNL     1      -1.931  -3.619  -3.279  0.00  0.00    +0.025 C 
ATOM      8  C   UNL     1      -2.711  -4.885  -3.647  0.00  0.00    +0.107 C 
ATOM      9  N   UNL     1      -1.995  -6.052  -3.115  0.00  0.00    -0.313 N 
ATOM     10  C   UNL     1      -1.657  -6.083  -1.685  0.00  0.00    +0.107 C 
ATOM     11  C   UNL     1      -0.886  -4.807  -1.333  0.00  0.00    +0.025 C 
ATOM     12  H   UNL     1      -1.172  -1.613  -2.058  0.00  0.00    -0.082 HD
ATOM     13  H   UNL     1       0.018  -2.521  -1.339  0.00  0.00    -0.082 HD
ENDROOT
BRANCH   9  14
ATOM     14  C   UNL     1      -1.655  -7.076  -3.923  0.00  0.00    +0.133 C 
ATOM     15  S   UNL     1      -0.935  -8.483  -3.265  0.00  0.00    -0.019 S 
BRANCH  14  16
ATOM     16  N   UNL     1      -1.882  -6.992  -5.249  0.00  0.00    -0.324 N 
ATOM     17  H   UNL     1      -2.222  -6.168  -5.631  0.00  0.00    +0.148 HD
BRANCH  16  18
ATOM     18  C   UNL     1      -1.615  -8.145  -6.112  0.00  0.00    +0.066 C 
ATOM     19  C   UNL     1      -2.830  -9.075  -6.111  0.00  0.00    +0.027 C 
ATOM     20  C   UNL     1      -1.343  -7.663  -7.538  0.00  0.00    +0.027 C 
ENDBRANCH  16  18
ENDBRANCH  14  16
ENDBRANCH   9  14
BRANCH   1  21
ATOM     21  C   UNL     1      -1.634  -0.510   0.115  0.00  0.00    -0.004 C 
BRANCH  21  23
ATOM     22  C   UNL     1      -0.332   1.620   0.209  0.00  0.00    +0.007 C 
ATOM     23  C   UNL     1      -0.229   0.095   0.154  0.00  0.00    -0.018 C 
ATOM     24  C   UNL     1       0.509  -0.411   1.395  0.00  0.00    +0.007 C 
ENDBRANCH  21  23
ENDBRANCH   1  21
BRANCH   4  25
ATOM     25  C   UNL     1      -4.151  -4.366  -1.386  0.00  0.00    +0.110 C 
BRANCH  25  26
ATOM     26  C   UNL     1      -5.049  -3.599  -2.359  0.00  0.00    +0.054 C 
BRANCH  26  27
ATOM     27  C   UNL     1      -6.212  -4.469  -2.761  0.00  0.00    -0.042 A 
ATOM     28  C   UNL     1      -6.105  -5.295  -3.865  0.00  0.00    +0.007 A 
ATOM     29  C   UNL     1      -7.169  -6.095  -4.238  0.00  0.00    +0.049 A 
ATOM     30  C   UNL     1      -8.345  -6.070  -3.506  0.00  0.00    +0.161 A 
ATOM     31  C   UNL     1      -8.452  -5.239  -2.395  0.00  0.00    +0.162 A 
ATOM     32  C   UNL     1      -7.380  -4.443  -2.023  0.00  0.00    +0.053 A 
BRANCH  31  33
ATOM     33  O   UNL     1      -9.604  -5.211  -1.674  0.00  0.00    -0.491 OA
ATOM     34  C   UNL     1      -9.643  -4.334  -0.546  0.00  0.00    +0.277 C 
ENDBRANCH  31  33
BRANCH  30  35
ATOM     35  O   UNL     1      -9.392  -6.857  -3.873  0.00  0.00    -0.491 OA
ATOM     36  C   UNL     1      -9.211  -7.684  -5.024  0.00  0.00    +0.277 C 
ENDBRANCH  30  35
ENDBRANCH  26  27
ENDBRANCH  25  26
ENDBRANCH   4  25
TORSDOF 10
