REMARK  Name = ZINC40323400
REMARK  7 active torsions:
REMARK  status: ('A' for Active; 'I' for Inactive)
REMARK    1  A    between atoms: C_1  and  C_2
REMARK    2  A    between atoms: C_3  and  N_21
REMARK    3  A    between atoms: C_5  and  S_9
REMARK    4  A    between atoms: S_9  and  N_12
REMARK    5  A    between atoms: N_12  and  C_13
REMARK    6  A    between atoms: C_18  and  S_19
REMARK    7  A    between atoms: S_19  and  C_20
REMARK                            x       y       z     vdW  Elec       q    Type
REMARK                         _______ _______ _______ _____ _____    ______ ____
ROOT
ATOM      1  S   UNL     1       0.040  -4.631   0.037  0.00  0.00    +0.072 S 
ATOM      2  O   UNL     1      -0.444  -5.124   1.279  0.00  0.00    -0.150 OA
ATOM      3  O   UNL     1      -0.517  -5.026  -1.209  0.00  0.00    -0.150 OA
ENDROOT
BRANCH   1   8
ATOM      4  C   UNL     1      -0.390   1.388   0.300  0.00  0.00    +0.047 C 
ATOM      5  C   UNL     1      -0.283  -0.114   0.233  0.00  0.00    -0.011 A 
ATOM      6  C   UNL     1      -0.269  -0.756  -0.999  0.00  0.00    +0.031 A 
ATOM      7  C   UNL     1      -0.170  -2.140  -1.056  0.00  0.00    +0.052 A 
ATOM      8  C   UNL     1      -0.086  -2.875   0.110  0.00  0.00    +0.112 A 
ATOM      9  C   UNL     1      -0.100  -2.234   1.335  0.00  0.00    +0.049 A 
ATOM     10  C   UNL     1      -0.193  -0.854   1.397  0.00  0.00    +0.047 A 
ATOM     11 CL   UNL     1      -0.202  -0.053   2.937  0.00  0.00    -0.083 Cl
BRANCH   6  12
ATOM     12  N   UNL     1      -0.355  -0.011  -2.177  0.00  0.00    -0.358 N 
ATOM     13  H   UNL     1      -0.424   0.956  -2.135  0.00  0.00    +0.142 HD
ATOM     14  H   UNL     1      -0.345  -0.460  -3.037  0.00  0.00    +0.142 HD
ENDBRANCH   6  12
ENDBRANCH   1   8
BRANCH   1  15
ATOM     15  N   UNL     1       1.652  -5.004  -0.025  0.00  0.00    -0.215 N 
ATOM     16  H   UNL     1       2.009  -5.487  -0.787  0.00  0.00    +0.174 HD
BRANCH  15  17
ATOM     17  C   UNL     1       2.500  -4.623   1.022  0.00  0.00    +0.061 A 
ATOM     18  C   UNL     1       2.037  -4.630   2.329  0.00  0.00    +0.025 A 
ATOM     19  C   UNL     1       2.876  -4.253   3.362  0.00  0.00    +0.002 A 
ATOM     20  C   UNL     1       4.177  -3.867   3.095  0.00  0.00    +0.001 A 
ATOM     21  C   UNL     1       4.647  -3.857   1.795  0.00  0.00    +0.016 A 
ATOM     22  C   UNL     1       3.814  -4.239   0.754  0.00  0.00    +0.030 A 
BRANCH  22  23
ATOM     23  S   UNL     1       4.412  -4.234  -0.904  0.00  0.00    -0.127 S 
ATOM     24  C   UNL     1       6.132  -3.677  -0.748  0.00  0.00    +0.090 C 
ENDBRANCH  22  23
ENDBRANCH  15  17
ENDBRANCH   1  15
TORSDOF 5
