REMARK  Name = ZINC00938426
REMARK  8 active torsions:
REMARK  status: ('A' for Active; 'I' for Inactive)
REMARK    1  A    between atoms: C_1  and  C_2
REMARK    2  A    between atoms: C_2  and  O_3
REMARK    3  A    between atoms: O_3  and  C_4
REMARK    4  A    between atoms: C_4  and  C_6
REMARK    5  A    between atoms: C_10  and  N_11
REMARK    6  A    between atoms: C_12  and  C_14
REMARK    7  A    between atoms: C_14  and  C_15
REMARK    8  A    between atoms: C_28  and  C_32
REMARK                            x       y       z     vdW  Elec       q    Type
REMARK                         _______ _______ _______ _____ _____    ______ ____
ROOT
ATOM      1  N   UNL     1       1.597   5.216  -3.754  0.00  0.00    -0.279 N 
ATOM      2  C   UNL     1       1.290   5.045  -2.453  0.00  0.00    +0.220 C 
ATOM      3  O   UNL     1       1.966   5.574  -1.596  0.00  0.00    -0.275 OA
ATOM      4  H   UNL     1       1.057   4.794  -4.440  0.00  0.00    +0.155 HD
ENDROOT
BRANCH   1   9
ATOM      5  C   UNL     1       3.159   6.284  -5.386  0.00  0.00    +0.091 A 
ATOM      6  C   UNL     1       4.329   7.142  -5.489  0.00  0.00    -0.021 A 
ATOM      7  C   UNL     1       4.839   7.562  -4.311  0.00  0.00    -0.004 A 
ATOM      8  S   UNL     1       3.789   6.845  -3.080  0.00  0.00    -0.077 S 
ATOM      9  C   UNL     1       2.685   5.997  -4.112  0.00  0.00    +0.086 A 
ATOM     10  C   UNL     1       6.034   8.441  -4.107  0.00  0.00    +0.046 C 
ATOM     11  C   UNL     1       6.825   8.496  -5.423  0.00  0.00    -0.009 C 
ATOM     12  C   UNL     1       5.852   8.776  -6.572  0.00  0.00    +0.008 C 
ATOM     13  C   UNL     1       4.964   7.553  -6.811  0.00  0.00    +0.037 C 
ATOM     14  C   UNL     1       7.869   9.612  -5.352  0.00  0.00    +0.008 C 
BRANCH   5  15
ATOM     15  C   UNL     1       2.504   5.747  -6.580  0.00  0.00    +0.342 C 
ATOM     16  O   UNL     1       1.609   6.373  -7.116  0.00  0.00    -0.245 OA
BRANCH  15  17
ATOM     17  O   UNL     1       2.892   4.558  -7.085  0.00  0.00    -0.461 OA
BRANCH  17  19
ATOM     18  C   UNL     1       2.771   2.733  -8.693  0.00  0.00    +0.048 C 
ATOM     19  C   UNL     1       2.198   4.087  -8.270  0.00  0.00    +0.229 C 
ENDBRANCH  17  19
ENDBRANCH  15  17
ENDBRANCH   5  15
ENDBRANCH   1   9
BRANCH   2  20
ATOM     20  C   UNL     1       0.107   4.197  -2.064  0.00  0.00    +0.127 C 
BRANCH  20  21
ATOM     21  C   UNL     1      -0.019   4.167  -0.540  0.00  0.00    +0.166 C 
ATOM     22  C   UNL     1      -1.265   3.411  -0.151  0.00  0.00    +0.238 C 
ATOM     23  O   UNL     1      -2.310   4.010  -0.006  0.00  0.00    -0.273 OA
ATOM     24  N   UNL     1      -1.230   2.079   0.036  0.00  0.00    -0.282 N 
ATOM     25  C   UNL     1      -0.017   1.381   0.010  0.00  0.00    +0.055 A 
ATOM     26  C   UNL     1       0.002  -0.004   0.002  0.00  0.00    +0.025 A 
ATOM     27  C   UNL     1       1.210  -0.677  -0.022  0.00  0.00    +0.002 A 
ATOM     28  C   UNL     1       2.401   0.025  -0.039  0.00  0.00    +0.002 A 
ATOM     29  C   UNL     1       2.392   1.409  -0.027  0.00  0.00    +0.025 A 
ATOM     30  C   UNL     1       1.187   2.088   0.002  0.00  0.00    +0.049 A 
ATOM     31  N   UNL     1       1.151   3.489   0.038  0.00  0.00    -0.331 N 
ATOM     32  H   UNL     1      -2.056   1.595   0.191  0.00  0.00    +0.155 HD
ATOM     33  H   UNL     1       1.877   3.997   0.432  0.00  0.00    +0.147 HD
ENDBRANCH  20  21
ENDBRANCH   2  20
TORSDOF 6
