REMARK  Name = ZINC39007682
REMARK  5 active torsions:
REMARK  status: ('A' for Active; 'I' for Inactive)
REMARK    1  A    between atoms: C_3  and  C_8
REMARK    2  A    between atoms: C_5  and  O_7
REMARK    3  A    between atoms: N_9  and  N_10
REMARK    4  A    between atoms: C_11  and  C_13
REMARK    5  A    between atoms: C_16  and  C_19
REMARK                            x       y       z     vdW  Elec       q    Type
REMARK                         _______ _______ _______ _____ _____    ______ ____
ROOT
ATOM      1  N   UNL     1       4.838   4.181  -0.023  0.00  0.00    -0.205 N 
ATOM      2  C   UNL     1       4.819   5.529  -0.016  0.00  0.00    +0.263 C 
ATOM      3  O   UNL     1       3.760   6.120  -0.003  0.00  0.00    -0.271 OA
ATOM      4  H   UNL     1       5.685   3.709  -0.034  0.00  0.00    +0.177 HD
ENDROOT
BRANCH   2   5
ATOM      5  C   UNL     1       6.113   6.301  -0.025  0.00  0.00    +0.240 C 
ATOM      6  C   UNL     1       6.657   6.420  -1.438  0.00  0.00    +0.041 C 
ATOM      7  C   UNL     1       6.675   7.747  -1.666  0.00  0.00    +0.092 C 
ATOM      8  N   UNL     1       6.215   8.422  -0.579  0.00  0.00    -0.153 NA
ATOM      9  N   UNL     1       5.886   7.701   0.370  0.00  0.00    -0.170 NA
BRANCH   7  10
ATOM     10  C   UNL     1       7.131   8.384  -2.926  0.00  0.00    +0.003 A 
ATOM     11  C   UNL     1       7.580   7.595  -3.985  0.00  0.00    +0.011 A 
ATOM     12  C   UNL     1       8.003   8.191  -5.155  0.00  0.00    +0.022 A 
ATOM     13  C   UNL     1       7.983   9.570  -5.280  0.00  0.00    +0.059 A 
ATOM     14  C   UNL     1       7.538  10.358  -4.231  0.00  0.00    +0.060 A 
ATOM     15  C   UNL     1       7.107   9.771  -3.057  0.00  0.00    +0.031 A 
ATOM     16 CL   UNL     1       7.516  12.086  -4.394  0.00  0.00    -0.082 Cl
ATOM     17 CL   UNL     1       8.517  10.313  -6.755  0.00  0.00    -0.082 Cl
ENDBRANCH   7  10
ENDBRANCH   2   5
BRANCH   1  19
ATOM     18  C   UNL     1       3.654   2.166  -0.022  0.00  0.00    +0.138 C 
ATOM     19  N   UNL     1       3.635   3.464  -0.015  0.00  0.00    -0.188 NA
BRANCH  18  22
ATOM     20  C   UNL     1      -0.017   1.378   0.010  0.00  0.00    +0.004 A 
ATOM     21  C   UNL     1       1.166   2.089   0.002  0.00  0.00    +0.010 A 
ATOM     22  C   UNL     1       2.387   1.411  -0.013  0.00  0.00    -0.002 A 
ATOM     23  C   UNL     1       2.404   0.015  -0.021  0.00  0.00    +0.054 A 
ATOM     24  C   UNL     1       1.211  -0.688  -0.013  0.00  0.00    +0.117 A 
ATOM     25  C   UNL     1       0.002  -0.004   0.002  0.00  0.00    +0.045 A 
BRANCH  24  26
ATOM     26  O   UNL     1       1.223  -2.046  -0.021  0.00  0.00    -0.507 OA
ATOM     27  H   UNL     1       1.235  -2.445   0.860  0.00  0.00    +0.292 HD
ENDBRANCH  24  26
ENDBRANCH  18  22
ENDBRANCH   1  19
TORSDOF 5
