REMARK  Name = ZINC20807149
REMARK  9 active torsions:
REMARK  status: ('A' for Active; 'I' for Inactive)
REMARK    1  A    between atoms: C_1  and  C_2
REMARK    2  A    between atoms: C_5  and  C_8
REMARK    3  A    between atoms: N_9  and  N_10
REMARK    4  A    between atoms: C_14  and  S_17
REMARK    5  A    between atoms: N_15  and  N_16
REMARK    6  A    between atoms: S_17  and  C_18
REMARK    7  A    between atoms: C_18  and  C_19
REMARK    8  A    between atoms: N_21  and  C_22
REMARK    9  A    between atoms: C_23  and  C_31
REMARK                            x       y       z     vdW  Elec       q    Type
REMARK                         _______ _______ _______ _____ _____    ______ ____
ROOT
ATOM      1  N   UNL     1      -4.413  13.129  -7.407  0.00  0.00    -0.204 N 
ATOM      2  C   UNL     1      -4.028  12.227  -6.425  0.00  0.00    +0.254 A 
ATOM      3  N   UNL     1      -3.834  12.504  -5.158  0.00  0.00    -0.109 NA
ATOM      4  N   UNL     1      -3.461  11.321  -4.509  0.00  0.00    -0.119 NA
ATOM      5  C   UNL     1      -3.431  10.360  -5.402  0.00  0.00    +0.210 A 
ATOM      6  N   UNL     1      -3.784  10.895  -6.608  0.00  0.00    -0.211 N 
ATOM      7  H   UNL     1      -4.548  12.787  -8.444  0.00  0.00    +0.177 HD
ENDROOT
BRANCH   6   8
ATOM      8  N   UNL     1      -3.877  10.216  -7.790  0.00  0.00    -0.294 N 
ATOM      9  H   UNL     1      -3.657   9.139  -7.825  0.00  0.00    +0.163 HD
ATOM     10  H   UNL     1      -4.171  10.748  -8.707  0.00  0.00    +0.163 HD
ENDBRANCH   6   8
BRANCH   1  12
ATOM     11  C   UNL     1      -4.991  15.316  -7.997  0.00  0.00    +0.138 C 
ATOM     12  N   UNL     1      -4.630  14.473  -7.078  0.00  0.00    -0.188 NA
BRANCH  11  17
ATOM     13  C   UNL     1      -5.883  20.835  -6.646  0.00  0.00    +0.044 C 
ATOM     14  C   UNL     1      -5.649  19.389  -7.000  0.00  0.00    -0.050 A 
ATOM     15  C   UNL     1      -5.820  18.963  -8.306  0.00  0.00    +0.004 A 
ATOM     16  C   UNL     1      -5.608  17.641  -8.637  0.00  0.00    +0.010 A 
ATOM     17  C   UNL     1      -5.220  16.731  -7.651  0.00  0.00    -0.005 A 
ATOM     18  C   UNL     1      -5.054  17.167  -6.334  0.00  0.00    +0.010 A 
ATOM     19  C   UNL     1      -5.265  18.493  -6.018  0.00  0.00    +0.004 A 
ENDBRANCH  11  17
ENDBRANCH   1  12
BRANCH   5  20
ATOM     20  S   UNL     1      -3.017   8.675  -5.097  0.00  0.00    -0.075 S 
BRANCH  20  21
ATOM     21  C   UNL     1      -2.653   8.627  -3.320  0.00  0.00    +0.173 C 
BRANCH  21  22
ATOM     22  C   UNL     1      -2.279   7.222  -2.922  0.00  0.00    +0.228 C 
ATOM     23  O   UNL     1      -2.260   6.341  -3.755  0.00  0.00    -0.275 OA
ATOM     24  N   UNL     1      -1.965   6.946  -1.641  0.00  0.00    -0.278 N 
ATOM     25  H   UNL     1      -1.982   7.746  -0.886  0.00  0.00    +0.155 HD
BRANCH  24  26
ATOM     26  C   UNL     1      -1.621   5.653  -1.274  0.00  0.00    +0.090 A 
ATOM     27  C   UNL     1      -1.271   5.177  -0.019  0.00  0.00    +0.084 A 
ATOM     28  C   UNL     1      -0.951   3.765   0.100  0.00  0.00    -0.018 A 
ATOM     29  C   UNL     1      -1.032   3.059  -1.049  0.00  0.00    -0.004 A 
ATOM     30  S   UNL     1      -1.524   4.240  -2.273  0.00  0.00    -0.077 S 
ATOM     31  C   UNL     1      -0.761   1.597  -1.232  0.00  0.00    +0.043 C 
ATOM     32  C   UNL     1      -0.013   1.086   0.008  0.00  0.00    +0.005 C 
ATOM     33  C   UNL     1      -0.735   1.583   1.264  0.00  0.00    +0.005 C 
ATOM     34  C   UNL     1      -0.551   3.094   1.407  0.00  0.00    +0.037 C 
BRANCH  27  35
ATOM     35  C   UNL     1      -1.226   6.046   1.118  0.00  0.00    +0.102 C 
ATOM     36  N   UNL     1      -1.191   6.736   2.020  0.00  0.00    -0.191 NA
ENDBRANCH  27  35
ENDBRANCH  24  26
ENDBRANCH  21  22
ENDBRANCH  20  21
ENDBRANCH   5  20
TORSDOF 8
