REMARK  Name = ZINC11817960
REMARK  6 active torsions:
REMARK  status: ('A' for Active; 'I' for Inactive)
REMARK    1  A    between atoms: C_1  and  C_2
REMARK    2  A    between atoms: C_10  and  C_11
REMARK    3  A    between atoms: C_18  and  C_20
REMARK    4  A    between atoms: C_20  and  C_21
REMARK    5  A    between atoms: C_21  and  C_22
REMARK    6  A    between atoms: C_25  and  O_28
REMARK                            x       y       z     vdW  Elec       q    Type
REMARK                         _______ _______ _______ _____ _____    ______ ____
ROOT
ATOM      1  C   UNL     1       2.129   7.348  -0.495  0.00  0.00    +0.282 C 
ATOM      2  O   UNL     1       1.800   6.202  -0.254  0.00  0.00    -0.267 OA
ATOM      3  N   UNL     1       1.350   8.124  -1.274  0.00  0.00    -0.292 N 
ATOM      4  C   UNL     1       1.814   9.445  -1.718  0.00  0.00    +0.108 C 
ATOM      5  C   UNL     1       1.699   9.520  -3.244  0.00  0.00    +0.019 C 
ATOM      6  C   UNL     1       0.265   9.185  -3.661  0.00  0.00    +0.003 C 
ATOM      7  C   UNL     1      -0.076   7.760  -3.221  0.00  0.00    +0.022 C 
ATOM      8  C   UNL     1       0.019   7.664  -1.695  0.00  0.00    +0.077 C 
ENDROOT
BRANCH   1  18
ATOM      9  C   UNL     1       4.266   5.687   1.038  0.00  0.00    +0.048 C 
ATOM     10  C   UNL     1       4.311   7.163   0.734  0.00  0.00    +0.008 A 
ATOM     11  C   UNL     1       5.369   8.104   1.099  0.00  0.00    +0.027 A 
ATOM     12  C   UNL     1       6.581   7.988   1.785  0.00  0.00    +0.012 A 
ATOM     13  C   UNL     1       7.365   9.092   1.966  0.00  0.00    +0.004 A 
ATOM     14  C   UNL     1       6.967  10.327   1.473  0.00  0.00    +0.042 A 
ATOM     15  C   UNL     1       5.774  10.464   0.794  0.00  0.00    +0.166 A 
ATOM     16  C   UNL     1       4.958   9.352   0.598  0.00  0.00    +0.171 A 
ATOM     17  O   UNL     1       3.771   9.175  -0.015  0.00  0.00    -0.447 OA
ATOM     18  C   UNL     1       3.377   7.887   0.064  0.00  0.00    +0.194 A 
ATOM     19  F   UNL     1       5.398  11.672   0.320  0.00  0.00    -0.202 F 
ENDBRANCH   1  18
BRANCH   8  20
ATOM     20  C   UNL     1      -0.184   6.212  -1.258  0.00  0.00    +0.027 C 
BRANCH  20  21
ATOM     21  C   UNL     1      -1.599   5.761  -1.628  0.00  0.00    +0.037 C 
BRANCH  21  22
ATOM     22  C   UNL     1      -1.773   4.308  -1.268  0.00  0.00    -0.047 A 
ATOM     23  C   UNL     1      -2.238   3.959  -0.013  0.00  0.00    +0.007 A 
ATOM     24  C   UNL     1      -2.400   2.628   0.319  0.00  0.00    +0.045 A 
ATOM     25  C   UNL     1      -2.094   1.641  -0.607  0.00  0.00    +0.117 A 
ATOM     26  C   UNL     1      -1.623   1.994  -1.863  0.00  0.00    +0.045 A 
ATOM     27  C   UNL     1      -1.468   3.327  -2.192  0.00  0.00    +0.007 A 
BRANCH  25  28
ATOM     28  O   UNL     1      -2.252   0.331  -0.282  0.00  0.00    -0.507 OA
ATOM     29  H   UNL     1      -3.127  -0.023  -0.489  0.00  0.00    +0.292 HD
ENDBRANCH  25  28
ENDBRANCH  21  22
ENDBRANCH  20  21
ENDBRANCH   8  20
TORSDOF 5
