REMARK  Name = ZINC35339758
REMARK  16 active torsions:
REMARK  status: ('A' for Active; 'I' for Inactive)
REMARK    1  A    between atoms: C_1  and  C_2
REMARK    2  A    between atoms: C_2  and  C_4
REMARK    3  A    between atoms: C_2  and  C_10
REMARK    4  A    between atoms: C_4  and  C_5
REMARK    5  A    between atoms: C_5  and  C_6
REMARK    6  A    between atoms: C_6  and  C_7
REMARK    7  A    between atoms: C_7  and  C_8
REMARK    8  A    between atoms: C_7  and  C_9
REMARK    9  A    between atoms: C_14  and  C_42
REMARK   10  A    between atoms: C_15  and  C_41
REMARK   11  A    between atoms: C_20  and  O_40
REMARK   12  A    between atoms: C_31  and  O_36
REMARK   13  A    between atoms: C_33  and  C_34
REMARK   14  A    between atoms: C_33  and  C_35
REMARK   15  A    between atoms: O_36  and  C_37
REMARK   16  A    between atoms: C_37  and  C_39
REMARK                            x       y       z     vdW  Elec       q    Type
REMARK                         _______ _______ _______ _____ _____    ______ ____
ROOT
ATOM      1  C   UNL     1       0.685  -0.800  -1.395  0.00  0.00    +0.006 C 
ATOM      2  C   UNL     1       0.546  -2.291  -1.802  0.00  0.00    +0.005 C 
ATOM      3  C   UNL     1      -0.111  -2.300  -3.213  0.00  0.00    +0.010 C 
ATOM      4  C   UNL     1       0.248  -0.903  -3.743  0.00  0.00    +0.002 C 
ATOM      5  C   UNL     1      -0.047  -0.031  -2.503  0.00  0.00    +0.044 C 
ATOM      6  C   UNL     1       0.446   1.352  -2.782  0.00  0.00    +0.208 C 
ATOM      7  O   UNL     1       0.942   2.061  -1.922  0.00  0.00    -0.288 OA
ATOM      8  C   UNL     1       0.296   1.831  -4.214  0.00  0.00    +0.236 C 
ATOM      9  O   UNL     1       0.899   2.833  -4.545  0.00  0.00    -0.285 OA
ATOM     10  C   UNL     1      -0.596   1.039  -5.136  0.00  0.00    +0.171 C 
ATOM     11  C   UNL     1      -0.450  -0.423  -4.970  0.00  0.00    +0.123 C 
ATOM     12  N   UNL     1      -1.578  -1.218  -5.374  0.00  0.00    -0.308 N 
ATOM     13  C   UNL     1      -2.104  -1.121  -6.566  0.00  0.00    +0.217 C 
ATOM     14  O   UNL     1      -3.049  -1.839  -6.760  0.00  0.00    -0.275 OA
ATOM     15  C   UNL     1      -1.732  -0.293  -7.702  0.00  0.00    +0.127 C 
ATOM     16  C   UNL     1      -1.246   1.115  -7.553  0.00  0.00    -0.049 C 
ATOM     17  C   UNL     1      -0.763   1.665  -6.483  0.00  0.00    -0.029 C 
ATOM     18  C   UNL     1      -0.316   3.123  -6.479  0.00  0.00    +0.038 C 
ATOM     19  C   UNL     1      -0.895   3.949  -7.612  0.00  0.00    +0.050 C 
ATOM     20  C   UNL     1      -0.620   3.182  -8.908  0.00  0.00    +0.186 C 
ATOM     21  C   UNL     1      -1.406   1.886  -8.861  0.00  0.00    +0.024 C 
ATOM     22  C   UNL     1      -2.889   2.212  -9.072  0.00  0.00    +0.019 C 
ATOM     23  C   UNL     1      -0.938   1.015 -10.033  0.00  0.00    +0.019 C 
ATOM     24  C   UNL     1      -1.539  -0.019  -2.154  0.00  0.00    +0.020 C 
ATOM     25  C   UNL     1       1.760  -0.891  -4.016  0.00  0.00    +0.014 C 
ATOM     26  H   UNL     1      -1.957  -1.839  -4.756  0.00  0.00    +0.149 HD
ENDROOT
BRANCH   1  28
ATOM     27  C   UNL     1       0.043   0.930   0.292  0.00  0.00    +0.008 C 
ATOM     28  C   UNL     1      -0.015  -0.559  -0.054  0.00  0.00    -0.010 C 
BRANCH  28  29
ATOM     29  C   UNL     1       0.688  -1.365   1.040  0.00  0.00    +0.003 C 
BRANCH  29  30
ATOM     30  C   UNL     1      -0.084  -1.224   2.354  0.00  0.00    +0.001 C 
BRANCH  30  31
ATOM     31  C   UNL     1       0.620  -2.029   3.448  0.00  0.00    +0.003 C 
BRANCH  31  32
ATOM     32  C   UNL     1      -0.152  -1.888   4.761  0.00  0.00    -0.017 C 
ATOM     33  C   UNL     1      -1.534  -2.528   4.612  0.00  0.00    +0.007 C 
ATOM     34  C   UNL     1       0.617  -2.589   5.883  0.00  0.00    +0.007 C 
ENDBRANCH  31  32
ENDBRANCH  30  31
ENDBRANCH  29  30
ENDBRANCH  28  29
ENDBRANCH   1  28
BRANCH  10  35
ATOM     35  O   UNL     1      -1.902   1.292  -4.588  0.00  0.00    -0.374 OA
ATOM     36  H   UNL     1      -2.151   2.226  -4.580  0.00  0.00    +0.211 HD
ENDBRANCH  10  35
BRANCH  20  37
ATOM     37  O   UNL     1      -1.036   3.958 -10.034  0.00  0.00    -0.461 OA
BRANCH  37  38
ATOM     38  C   UNL     1      -0.125   4.783 -10.576  0.00  0.00    +0.304 C 
ATOM     39  O   UNL     1       0.988   4.843 -10.109  0.00  0.00    -0.251 OA
ATOM     40  C   UNL     1      -0.491   5.633 -11.765  0.00  0.00    +0.136 C 
ENDBRANCH  37  38
ENDBRANCH  20  37
TORSDOF 8
