REMARK  Name = ZINC20731199
REMARK  9 active torsions:
REMARK  status: ('A' for Active; 'I' for Inactive)
REMARK    1  A    between atoms: C_1  and  C_2
REMARK    2  A    between atoms: C_2  and  C_3
REMARK    3  A    between atoms: C_2  and  C_4
REMARK    4  A    between atoms: C_4  and  C_5
REMARK    5  A    between atoms: C_5  and  C_7
REMARK    6  A    between atoms: C_5  and  N_11
REMARK    7  A    between atoms: C_7  and  O_9
REMARK    8  A    between atoms: O_9  and  C_10
REMARK    9  A    between atoms: C_23  and  C_25
REMARK                            x       y       z     vdW  Elec       q    Type
REMARK                         _______ _______ _______ _____ _____    ______ ____
ROOT
ATOM      1  N   UNL     1       4.115   1.081  -0.377  0.00  0.00    -0.286 N 
ATOM      2  C   UNL     1       3.090   1.724  -0.970  0.00  0.00    +0.304 C 
ATOM      3  O   UNL     1       2.203   1.088  -1.506  0.00  0.00    -0.253 OA
ATOM      4  N   UNL     1       3.047   3.071  -0.969  0.00  0.00    -0.273 N 
ATOM      5  C   UNL     1       1.883   3.788  -1.510  0.00  0.00    +0.116 C 
ATOM      6  C   UNL     1       1.200   4.564  -0.376  0.00  0.00    +0.074 C 
ATOM      7  C   UNL     1       2.257   5.266   0.436  0.00  0.00    +0.040 A 
ATOM      8  C   UNL     1       3.572   4.958   0.423  0.00  0.00    +0.062 A 
ATOM      9  N   UNL     1       4.200   5.783   1.264  0.00  0.00    -0.348 N 
ATOM     10  C   UNL     1       3.326   6.595   1.799  0.00  0.00    +0.171 A 
ATOM     11  N   UNL     1       2.101   6.303   1.305  0.00  0.00    -0.349 N 
ATOM     12  H   UNL     1       1.268   6.749   1.528  0.00  0.00    +0.166 HD
ATOM     13  C   UNL     1       4.165   3.861  -0.421  0.00  0.00    +0.156 C 
ATOM     14  H   UNL     1       4.859   1.587  -0.013  0.00  0.00    +0.151 HD
ATOM     15  H   UNL     1       5.152   5.780   1.449  0.00  0.00    +0.167 HD
ENDROOT
BRANCH  13  16
ATOM     16  C   UNL     1       4.968   4.462  -1.545  0.00  0.00    -0.020 A 
ATOM     17  C   UNL     1       4.386   5.386  -2.393  0.00  0.00    +0.006 A 
ATOM     18  C   UNL     1       5.123   5.937  -3.425  0.00  0.00    +0.002 A 
ATOM     19  C   UNL     1       6.441   5.565  -3.610  0.00  0.00    +0.020 A 
ATOM     20  C   UNL     1       7.024   4.641  -2.761  0.00  0.00    +0.041 A 
ATOM     21  C   UNL     1       6.288   4.093  -1.725  0.00  0.00    +0.025 A 
ATOM     22 CL   UNL     1       8.679   4.173  -2.992  0.00  0.00    -0.084 Cl
ENDBRANCH  13  16
BRANCH   1  23
ATOM     23  C   UNL     1       4.107  -0.381  -0.283  0.00  0.00    +0.183 C 
BRANCH  23  24
ATOM     24  C   UNL     1       3.328  -0.801   0.937  0.00  0.00    +0.327 C 
ATOM     25  O   UNL     1       2.830   0.035   1.653  0.00  0.00    -0.249 OA
BRANCH  24  26
ATOM     26  O   UNL     1       3.187  -2.104   1.227  0.00  0.00    -0.467 OA
ATOM     27  C   UNL     1       2.436  -2.430   2.398  0.00  0.00    +0.280 C 
ENDBRANCH  24  26
ENDBRANCH  23  24
BRANCH  23  28
ATOM     28  C   UNL     1       5.545  -0.892  -0.171  0.00  0.00    +0.036 C 
BRANCH  28  30
ATOM     29  C   UNL     1       7.790  -0.904  -1.268  0.00  0.00    +0.007 C 
ATOM     30  C   UNL     1       6.317  -0.527  -1.440  0.00  0.00    -0.015 C 
ATOM     31  C   UNL     1       5.731  -1.289  -2.630  0.00  0.00    +0.007 C 
ENDBRANCH  28  30
ENDBRANCH  23  28
ENDBRANCH   1  23
TORSDOF 6
