REMARK  Name = ZINC12854258
REMARK  3 active torsions:
REMARK  status: ('A' for Active; 'I' for Inactive)
REMARK    1  A    between atoms: N_14  and  C_18
REMARK    2  A    between atoms: C_18  and  C_19
REMARK    3  A    between atoms: C_19  and  C_21
REMARK                            x       y       z     vdW  Elec       q    Type
REMARK                         _______ _______ _______ _____ _____    ______ ____
ROOT
ATOM      1  C   UNL     1      -3.451   1.999   3.652  0.00  0.00    +0.000 A 
ATOM      2  C   UNL     1      -2.767   3.141   3.282  0.00  0.00    +0.000 A 
ATOM      3  C   UNL     1      -2.044   3.159   2.107  0.00  0.00    +0.006 A 
ATOM      4  C   UNL     1      -2.000   2.033   1.287  0.00  0.00    -0.012 A 
ATOM      5  C   UNL     1      -2.672   0.906   1.658  0.00  0.00    -0.042 A 
ATOM      6  C   UNL     1      -3.403   0.883   2.842  0.00  0.00    +0.004 A 
ATOM      7  C   UNL     1      -2.673  -0.366   0.836  0.00  0.00    +0.035 C 
ATOM      8  C   UNL     1      -3.364  -0.103  -0.500  0.00  0.00    +0.005 C 
ATOM      9  C   UNL     1      -2.405   0.526  -1.492  0.00  0.00    +0.003 C 
ATOM     10  C   UNL     1      -2.080   1.978  -1.208  0.00  0.00    +0.040 C 
ATOM     11  C   UNL     1      -1.188   2.143   0.018  0.00  0.00    +0.138 C 
ATOM     12  C   UNL     1      -0.014   1.208   0.009  0.00  0.00    +0.251 C 
ATOM     13  O   UNL     1       0.002  -0.004   0.002  0.00  0.00    -0.272 OA
ATOM     14  N   UNL     1       1.086   1.997   0.002  0.00  0.00    -0.216 N 
ATOM     15  C   UNL     1       0.761   3.293  -0.031  0.00  0.00    +0.310 C 
ATOM     16  O   UNL     1       1.575   4.196  -0.059  0.00  0.00    -0.252 OA
ATOM     17  N   UNL     1      -0.571   3.485  -0.029  0.00  0.00    -0.281 N 
ATOM     18  H   UNL     1      -1.045   4.329  -0.061  0.00  0.00    +0.152 HD
ENDROOT
BRANCH  14  19
ATOM     19  C   UNL     1       2.459   1.487   0.026  0.00  0.00    +0.197 C 
BRANCH  19  20
ATOM     20  C   UNL     1       2.944   1.282  -1.386  0.00  0.00    +0.183 C 
ATOM     21  O   UNL     1       2.213   1.537  -2.321  0.00  0.00    -0.290 OA
BRANCH  20  22
ATOM     22  C   UNL     1       4.252   0.791  -1.622  0.00  0.00    +0.044 A 
ATOM     23  C   UNL     1       5.195   0.458  -0.673  0.00  0.00    +0.095 A 
ATOM     24  N   UNL     1       6.317   0.029  -1.281  0.00  0.00    -0.360 N 
ATOM     25  H   UNL     1       7.119  -0.261  -0.819  0.00  0.00    +0.165 HD
ATOM     26  C   UNL     1       6.170   0.059  -2.653  0.00  0.00    +0.047 A 
ATOM     27  C   UNL     1       4.878   0.529  -2.933  0.00  0.00    +0.010 A 
ATOM     28  C   UNL     1       4.454   0.670  -4.251  0.00  0.00    +0.011 A 
ATOM     29  C   UNL     1       5.307   0.333  -5.281  0.00  0.00    +0.001 A 
ATOM     30  C   UNL     1       6.582  -0.137  -5.007  0.00  0.00    +0.002 A 
ATOM     31  C   UNL     1       7.016  -0.275  -3.706  0.00  0.00    +0.026 A 
ENDBRANCH  20  22
ENDBRANCH  19  20
ENDBRANCH  14  19
TORSDOF 3
