REMARK  Name = ZINC12565940
REMARK  10 active torsions:
REMARK  status: ('A' for Active; 'I' for Inactive)
REMARK    1  A    between atoms: C_1  and  C_2
REMARK    2  A    between atoms: C_2  and  N_3
REMARK    3  A    between atoms: N_3  and  C_4
REMARK    4  A    between atoms: N_3  and  C_6
REMARK    5  A    between atoms: C_4  and  C_5
REMARK    6  A    between atoms: C_9  and  S_26
REMARK    7  A    between atoms: C_11  and  N_12
REMARK    8  A    between atoms: N_12  and  S_13
REMARK    9  A    between atoms: S_13  and  C_16
REMARK   10  A    between atoms: S_26  and  N_29
REMARK                            x       y       z     vdW  Elec       q    Type
REMARK                         _______ _______ _______ _____ _____    ______ ____
ROOT
ATOM      1  C   UNL     1       0.370   7.498  -3.359  0.00  0.00    +0.052 A 
ATOM      2  C   UNL     1      -0.774   7.314  -4.121  0.00  0.00    +0.027 A 
ATOM      3  C   UNL     1      -2.020   7.500  -3.552  0.00  0.00    +0.030 A 
ATOM      4  C   UNL     1      -2.131   7.870  -2.225  0.00  0.00    +0.107 A 
ATOM      5  C   UNL     1      -0.996   8.050  -1.456  0.00  0.00    +0.055 A 
ATOM      6  C   UNL     1       0.259   7.871  -2.020  0.00  0.00    +0.071 A 
ENDROOT
BRANCH   4   7
ATOM      7  S   UNL     1      -3.723   8.106  -1.508  0.00  0.00    +0.061 S 
ATOM      8  O   UNL     1      -3.530   8.887  -0.337  0.00  0.00    -0.153 OA
ATOM      9  O   UNL     1      -4.586   8.512  -2.562  0.00  0.00    -0.153 OA
BRANCH   7  10
ATOM     10  N   UNL     1      -4.258   6.622  -1.004  0.00  0.00    -0.172 NA
ATOM     11  C   UNL     1      -4.957   5.714  -1.929  0.00  0.00    +0.137 C 
ATOM     12  C   UNL     1      -4.282   4.336  -1.848  0.00  0.00    +0.177 C 
ATOM     13  O   UNL     1      -4.219   3.923  -0.481  0.00  0.00    -0.377 OA
ATOM     14  C   UNL     1      -3.428   4.775   0.352  0.00  0.00    +0.177 C 
ATOM     15  C   UNL     1      -4.054   6.174   0.382  0.00  0.00    +0.137 C 
ENDBRANCH   7  10
ENDBRANCH   4   7
BRANCH   6  16
ATOM     16  N   UNL     1       1.410   8.059  -1.245  0.00  0.00    -0.214 N 
ATOM     17  H   UNL     1       1.841   7.298  -0.825  0.00  0.00    +0.174 HD
BRANCH  16  18
ATOM     18  S   UNL     1       2.035   9.579  -1.045  0.00  0.00    +0.072 S 
ATOM     19  O   UNL     1       2.120  10.156  -2.341  0.00  0.00    -0.150 OA
ATOM     20  O   UNL     1       3.165   9.445  -0.195  0.00  0.00    -0.150 OA
BRANCH  18  21
ATOM     21  C   UNL     1       0.842  10.520  -0.152  0.00  0.00    +0.109 A 
ATOM     22  C   UNL     1       0.808  10.442   1.239  0.00  0.00    +0.029 A 
ATOM     23  C   UNL     1      -0.100  11.155   1.959  0.00  0.00    +0.010 A 
ATOM     24  C   UNL     1      -1.020  11.983   1.292  0.00  0.00    -0.018 A 
ATOM     25  C   UNL     1      -1.973  12.735   2.001  0.00  0.00    +0.008 A 
ATOM     26  C   UNL     1      -2.848  13.525   1.322  0.00  0.00    +0.001 A 
ATOM     27  C   UNL     1      -2.817  13.599  -0.070  0.00  0.00    +0.001 A 
ATOM     28  C   UNL     1      -1.905  12.890  -0.789  0.00  0.00    +0.008 A 
ATOM     29  C   UNL     1      -0.986  12.062  -0.122  0.00  0.00    -0.016 A 
ATOM     30  C   UNL     1      -0.033  11.311  -0.831  0.00  0.00    +0.037 A 
ENDBRANCH  18  21
ENDBRANCH  16  18
ENDBRANCH   6  16
BRANCH   1  31
ATOM     31  N   UNL     1       1.634   7.311  -3.933  0.00  0.00    -0.329 N 
BRANCH  31  33
ATOM     32  C   UNL     1       1.825   4.968  -3.247  0.00  0.00    +0.024 C 
ATOM     33  C   UNL     1       1.788   5.937  -4.430  0.00  0.00    +0.102 C 
ENDBRANCH  31  33
BRANCH  31  34
ATOM     34  C   UNL     1       1.876   8.288  -5.002  0.00  0.00    +0.102 C 
ATOM     35  C   UNL     1       3.371   8.332  -5.324  0.00  0.00    +0.024 C 
ENDBRANCH  31  34
ENDBRANCH   1  31
TORSDOF 8
