REMARK  Name = ZINC03086469
REMARK  12 active torsions:
REMARK  status: ('A' for Active; 'I' for Inactive)
REMARK    1  A    between atoms: C_1  and  C_2
REMARK    2  A    between atoms: C_5  and  N_8
REMARK    3  A    between atoms: C_9  and  O_32
REMARK    4  A    between atoms: C_10  and  C_14
REMARK    5  A    between atoms: C_11  and  C_13
REMARK    6  A    between atoms: C_16  and  C_31
REMARK    7  A    between atoms: C_17  and  C_29
REMARK    8  A    between atoms: N_20  and  C_23
REMARK    9  A    between atoms: C_23  and  C_24
REMARK   10  A    between atoms: C_24  and  O_25
REMARK   11  A    between atoms: O_25  and  C_26
REMARK   12  A    between atoms: C_26  and  C_28
REMARK                            x       y       z     vdW  Elec       q    Type
REMARK                         _______ _______ _______ _____ _____    ______ ____
ROOT
ATOM      1  C   UNL     1       1.250  -7.154   1.373  0.00  0.00    +0.028 C 
ATOM      2  C   UNL     1       2.602  -7.019   1.696  0.00  0.00    +0.042 C 
ATOM      3  C   UNL     1       3.283  -8.059   2.364  0.00  0.00    -0.016 C 
ATOM      4  C   UNL     1       4.627  -7.889   2.668  0.00  0.00    +0.117 C 
ATOM      5  C   UNL     1       5.301  -6.645   2.291  0.00  0.00    +0.264 C 
ATOM      6  O   UNL     1       6.479  -6.495   2.558  0.00  0.00    -0.269 OA
ATOM      7  N   UNL     1       4.634  -5.666   1.655  0.00  0.00    -0.230 N 
ATOM      8  C   UNL     1       3.333  -5.796   1.339  0.00  0.00    +0.254 C 
ATOM      9  O   UNL     1       2.758  -4.895   0.759  0.00  0.00    -0.270 OA
ATOM     10  C   UNL     1       2.566  -9.329   2.741  0.00  0.00    +0.046 C 
ENDROOT
BRANCH   1  13
ATOM     11  N   UNL     1      -0.048  -4.639  -0.820  0.00  0.00    -0.200 N 
ATOM     12  C   UNL     1       0.821  -5.642  -0.590  0.00  0.00    +0.223 A 
ATOM     13  C   UNL     1       0.578  -6.111   0.710  0.00  0.00    +0.060 A 
ATOM     14  C   UNL     1      -0.518  -5.292   1.236  0.00  0.00    +0.071 A 
ATOM     15  N   UNL     1      -0.848  -4.441   0.308  0.00  0.00    -0.168 NA
ATOM     16  C   UNL     1      -1.144  -5.410   2.602  0.00  0.00    +0.068 C 
BRANCH  11  21
ATOM     17  C   UNL     1      -0.387  -1.648  -5.631  0.00  0.00    +0.044 C 
ATOM     18  C   UNL     1      -0.297  -2.442  -4.354  0.00  0.00    -0.050 A 
ATOM     19  C   UNL     1      -1.444  -2.722  -3.633  0.00  0.00    +0.005 A 
ATOM     20  C   UNL     1      -1.364  -3.450  -2.462  0.00  0.00    +0.028 A 
ATOM     21  C   UNL     1      -0.132  -3.901  -2.009  0.00  0.00    +0.069 A 
ATOM     22  C   UNL     1       1.018  -3.619  -2.735  0.00  0.00    +0.028 A 
ATOM     23  C   UNL     1       0.931  -2.895  -3.908  0.00  0.00    +0.005 A 
ENDBRANCH  11  21
BRANCH  12  24
ATOM     24  O   UNL     1       1.751  -6.111  -1.451  0.00  0.00    -0.492 OA
ATOM     25  H   UNL     1       2.630  -5.728  -1.327  0.00  0.00    +0.294 HD
ENDBRANCH  12  24
ENDBRANCH   1  13
BRANCH   4  26
ATOM     26  C   UNL     1       5.349  -8.923   3.345  0.00  0.00    +0.105 C 
ATOM     27  N   UNL     1       5.922  -9.743   3.883  0.00  0.00    -0.191 NA
ENDBRANCH   4  26
BRANCH   7  28
ATOM     28  C   UNL     1       5.340  -4.434   1.293  0.00  0.00    +0.158 C 
BRANCH  28  29
ATOM     29  C   UNL     1       5.947  -4.586  -0.103  0.00  0.00    +0.251 C 
BRANCH  29  30
ATOM     30  O   UNL     1       4.900  -4.718  -1.066  0.00  0.00    -0.463 OA
BRANCH  30  31
ATOM     31  C   UNL     1       5.266  -4.860  -2.349  0.00  0.00    +0.304 C 
ATOM     32  O   UNL     1       6.437  -4.873  -2.645  0.00  0.00    -0.251 OA
ATOM     33  C   UNL     1       4.216  -5.005  -3.421  0.00  0.00    +0.136 C 
ENDBRANCH  30  31
ENDBRANCH  29  30
ENDBRANCH  28  29
ENDBRANCH   7  28
TORSDOF 8
