REMARK  Name = ZINC25025418
REMARK  8 active torsions:
REMARK  status: ('A' for Active; 'I' for Inactive)
REMARK    1  A    between atoms: C_1  and  C_2
REMARK    2  A    between atoms: C_2  and  C_3
REMARK    3  A    between atoms: C_3  and  N_4
REMARK    4  A    between atoms: C_14  and  S_15
REMARK    5  A    between atoms: S_15  and  C_16
REMARK    6  A    between atoms: C_16  and  C_17
REMARK    7  A    between atoms: N_23  and  C_24
REMARK    8  A    between atoms: N_23  and  C_25
REMARK                            x       y       z     vdW  Elec       q    Type
REMARK                         _______ _______ _______ _____ _____    ______ ____
ROOT
ATOM      1  N   UNL     1      -0.020   1.094   2.454  0.00  0.00    -0.287 N 
ATOM      2  C   UNL     1      -0.365  -0.094   3.002  0.00  0.00    +0.262 A 
ATOM      3  O   UNL     1      -1.256  -0.773   2.527  0.00  0.00    -0.267 OA
ATOM      4  C   UNL     1       0.380  -0.537   4.189  0.00  0.00    +0.066 A 
ATOM      5  C   UNL     1       0.103  -1.748   4.822  0.00  0.00    +0.030 A 
ATOM      6  C   UNL     1       0.830  -2.110   5.936  0.00  0.00    +0.019 A 
ATOM      7  C   UNL     1       1.831  -1.280   6.427  0.00  0.00    +0.017 A 
ATOM      8  C   UNL     1       2.119  -0.091   5.821  0.00  0.00    +0.029 A 
ATOM      9  C   UNL     1       1.399   0.305   4.690  0.00  0.00    +0.079 A 
ATOM     10  N   UNL     1       1.654   1.477   4.061  0.00  0.00    -0.223 NA
ATOM     11  C   UNL     1       0.979   1.847   3.001  0.00  0.00    +0.173 A 
ATOM     12 BR   UNL     1       0.463  -3.750   6.802  0.00  0.00    -0.050 Br
ENDROOT
BRANCH   1  13
ATOM     13  C   UNL     1      -0.729   1.579   1.267  0.00  0.00    +0.127 C 
BRANCH  13  15
ATOM     14  C   UNL     1      -0.753   1.593  -1.232  0.00  0.00    +0.005 C 
ATOM     15  C   UNL     1      -0.013   1.086   0.008  0.00  0.00    +0.018 C 
ENDBRANCH  13  15
ENDBRANCH   1  13
BRANCH  11  16
ATOM     16  S   UNL     1       1.378   3.389   2.247  0.00  0.00    -0.080 S 
BRANCH  16  17
ATOM     17  C   UNL     1       2.714   3.936   3.340  0.00  0.00    +0.153 C 
BRANCH  17  18
ATOM     18  C   UNL     1       3.226   5.274   2.874  0.00  0.00    +0.146 A 
ATOM     19  N   UNL     1       4.219   5.334   2.004  0.00  0.00    -0.199 NA
ATOM     20  C   UNL     1       4.671   6.514   1.587  0.00  0.00    +0.217 A 
ATOM     21  N   UNL     1       4.131   7.634   2.055  0.00  0.00    -0.181 NA
ATOM     22  C   UNL     1       3.136   7.570   2.933  0.00  0.00    +0.222 A 
ATOM     23  N   UNL     1       2.686   6.386   3.342  0.00  0.00    -0.198 NA
ATOM     24  N   UNL     1       2.571   8.730   3.422  0.00  0.00    -0.306 N 
ATOM     25  C   UNL     1       1.475   8.659   4.391  0.00  0.00    +0.132 C 
ATOM     26  C   UNL     1       3.068  10.033   2.972  0.00  0.00    +0.132 C 
ATOM     27  N   UNL     1       5.704   6.574   0.674  0.00  0.00    -0.327 N 
ATOM     28  H   UNL     1       6.078   7.550   0.330  0.00  0.00    +0.145 HD
ATOM     29  H   UNL     1       6.154   5.647   0.290  0.00  0.00    +0.145 HD
ENDBRANCH  17  18
ENDBRANCH  16  17
ENDBRANCH  11  16
TORSDOF 5
