REMARK  Name = ZINC40569559
REMARK  9 active torsions:
REMARK  status: ('A' for Active; 'I' for Inactive)
REMARK    1  A    between atoms: C_1  and  C_2
REMARK    2  A    between atoms: C_2  and  C_3
REMARK    3  A    between atoms: C_3  and  C_4
REMARK    4  A    between atoms: C_12  and  C_23
REMARK    5  A    between atoms: C_14  and  C_18
REMARK    6  A    between atoms: C_15  and  N_17
REMARK    7  A    between atoms: C_18  and  O_20
REMARK    8  A    between atoms: O_20  and  C_21
REMARK    9  A    between atoms: C_21  and  C_22
REMARK                            x       y       z     vdW  Elec       q    Type
REMARK                         _______ _______ _______ _____ _____    ______ ____
ROOT
ATOM      1  C   UNL     1      -1.416  -2.042   0.000  0.00  0.00    +0.023 A 
ATOM      2  C   UNL     1      -1.479  -2.714   1.170  0.00  0.00    +0.068 A 
ATOM      3  C   UNL     1      -1.471  -4.124   1.169  0.00  0.00    +0.141 A 
ATOM      4  C   UNL     1      -1.397  -4.790  -0.036  0.00  0.00    +0.071 A 
ATOM      5  C   UNL     1      -1.333  -4.051  -1.224  0.00  0.00    +0.257 A 
ATOM      6  O   UNL     1      -1.269  -4.628  -2.299  0.00  0.00    -0.267 OA
ATOM      7  N   UNL     1      -1.349  -2.706  -1.184  0.00  0.00    -0.326 N 
ATOM      8  H   UNL     1      -1.309  -2.203  -2.012  0.00  0.00    +0.169 HD
ATOM      9  C   UNL     1      -1.384  -6.294  -0.084  0.00  0.00    +0.100 C 
ATOM     10  C   UNL     1      -1.854  -6.858   1.228  0.00  0.00    +0.105 C 
ATOM     11  C   UNL     1      -1.901  -6.090   2.347  0.00  0.00    +0.195 C 
ATOM     12  O   UNL     1      -1.534  -4.798   2.337  0.00  0.00    -0.441 OA
ENDROOT
BRANCH   9  13
ATOM     13  C   UNL     1       0.019  -6.772  -0.357  0.00  0.00    -0.035 A 
ATOM     14  C   UNL     1       1.038  -6.460   0.523  0.00  0.00    +0.006 A 
ATOM     15  C   UNL     1       2.325  -6.899   0.273  0.00  0.00    +0.020 A 
ATOM     16  C   UNL     1       2.592  -7.651  -0.857  0.00  0.00    +0.041 A 
ATOM     17  C   UNL     1       1.571  -7.963  -1.737  0.00  0.00    +0.020 A 
ATOM     18  C   UNL     1       0.284  -7.529  -1.483  0.00  0.00    +0.006 A 
ATOM     19 CL   UNL     1       4.208  -8.202  -1.171  0.00  0.00    -0.084 Cl
ENDBRANCH   9  13
BRANCH  11  20
ATOM     20  N   UNL     1      -2.336  -6.649   3.518  0.00  0.00    -0.329 N 
ATOM     21  H   UNL     1      -2.532  -7.598   3.560  0.00  0.00    +0.145 HD
ATOM     22  H   UNL     1      -2.448  -6.096   4.307  0.00  0.00    +0.145 HD
ENDBRANCH  11  20
BRANCH  10  23
ATOM     23  C   UNL     1      -2.250  -8.202   1.298  0.00  0.00    +0.341 C 
ATOM     24  O   UNL     1      -3.352  -8.533   0.898  0.00  0.00    -0.245 OA
BRANCH  23  25
ATOM     25  O   UNL     1      -1.410  -9.128   1.808  0.00  0.00    -0.462 OA
BRANCH  25  26
ATOM     26  C   UNL     1      -1.879 -10.477   1.849  0.00  0.00    +0.229 C 
ATOM     27  C   UNL     1      -0.798 -11.375   2.454  0.00  0.00    +0.048 C 
ENDBRANCH  25  26
ENDBRANCH  23  25
ENDBRANCH  10  23
BRANCH   1  28
ATOM     28  C   UNL     1      -1.425  -0.535   0.007  0.00  0.00    +0.053 C 
BRANCH  28  30
ATOM     29  C   UNL     1       0.005   1.514  -0.033  0.00  0.00    +0.004 C 
ATOM     30  C   UNL     1       0.014  -0.016  -0.040  0.00  0.00    +0.003 C 
ENDBRANCH  28  30
ENDBRANCH   1  28
TORSDOF 7
