REMARK  Name = ZINC39914802
REMARK  9 active torsions:
REMARK  status: ('A' for Active; 'I' for Inactive)
REMARK    1  A    between atoms: C_1  and  C_2
REMARK    2  A    between atoms: C_4  and  O_38
REMARK    3  A    between atoms: C_5  and  C_9
REMARK    4  A    between atoms: N_17  and  C_30
REMARK    5  A    between atoms: C_18  and  C_20
REMARK    6  A    between atoms: C_24  and  O_26
REMARK    7  A    between atoms: O_26  and  C_27
REMARK    8  A    between atoms: C_27  and  C_28
REMARK    9  A    between atoms: C_30  and  C_31
REMARK                            x       y       z     vdW  Elec       q    Type
REMARK                         _______ _______ _______ _____ _____    ______ ____
ROOT
ATOM      1  C   UNL     1      -0.931  -3.246   0.608  0.00  0.00    +0.102 A 
ATOM      2  C   UNL     1      -0.374  -4.277   1.372  0.00  0.00    +0.035 A 
ATOM      3  C   UNL     1      -0.109  -5.303   0.485  0.00  0.00    +0.126 A 
ATOM      4  N   UNL     1      -0.507  -4.855  -0.742  0.00  0.00    -0.272 N 
ATOM      5  H   UNL     1      -0.444  -5.362  -1.567  0.00  0.00    +0.189 HD
ATOM      6  N   UNL     1      -0.984  -3.666  -0.641  0.00  0.00    -0.173 NA
ATOM      7  C   UNL     1       0.480  -6.422   1.229  0.00  0.00    +0.266 C 
ATOM      8  O   UNL     1       0.827  -7.478   0.735  0.00  0.00    -0.268 OA
ATOM      9  N   UNL     1       0.582  -6.115   2.535  0.00  0.00    -0.281 N 
ATOM     10  C   UNL     1       0.059  -4.756   2.731  0.00  0.00    +0.142 C 
ENDROOT
BRANCH   1  15
ATOM     11  C   UNL     1      -2.695   1.881   2.564  0.00  0.00    +0.045 C 
ATOM     12  C   UNL     1      -2.234   0.541   2.050  0.00  0.00    -0.029 A 
ATOM     13  C   UNL     1      -2.232   0.289   0.691  0.00  0.00    +0.050 A 
ATOM     14  C   UNL     1      -1.810  -0.941   0.214  0.00  0.00    +0.126 A 
ATOM     15  C   UNL     1      -1.385  -1.925   1.111  0.00  0.00    +0.045 A 
ATOM     16  C   UNL     1      -1.389  -1.662   2.478  0.00  0.00    +0.034 A 
ATOM     17  C   UNL     1      -1.808  -0.430   2.941  0.00  0.00    +0.045 A 
ATOM     18 CL   UNL     1      -1.808  -0.100   4.645  0.00  0.00    -0.083 Cl
BRANCH  14  19
ATOM     19  O   UNL     1      -1.809  -1.190  -1.122  0.00  0.00    -0.506 OA
ATOM     20  H   UNL     1      -0.982  -0.956  -1.565  0.00  0.00    +0.292 HD
ENDBRANCH  14  19
ENDBRANCH   1  15
BRANCH  10  21
ATOM     21  C   UNL     1       1.140  -3.858   3.277  0.00  0.00    -0.019 A 
ATOM     22  C   UNL     1       0.862  -3.003   4.327  0.00  0.00    +0.006 A 
ATOM     23  C   UNL     1       1.850  -2.178   4.830  0.00  0.00    +0.004 A 
ATOM     24  C   UNL     1       3.119  -2.206   4.284  0.00  0.00    +0.045 A 
ATOM     25  C   UNL     1       3.401  -3.063   3.231  0.00  0.00    +0.121 A 
ATOM     26  C   UNL     1       2.408  -3.895   2.731  0.00  0.00    +0.051 A 
BRANCH  25  27
ATOM     27  O   UNL     1       4.648  -3.093   2.692  0.00  0.00    -0.488 OA
BRANCH  27  28
ATOM     28  C   UNL     1       5.621  -2.214   3.260  0.00  0.00    +0.256 C 
BRANCH  28  29
ATOM     29  C   UNL     1       6.934  -2.385   2.540  0.00  0.00    +0.006 C 
ATOM     30  C   UNL     1       7.625  -1.333   2.179  0.00  0.00    +0.007 C 
ENDBRANCH  28  29
ENDBRANCH  27  28
ENDBRANCH  25  27
ENDBRANCH  10  21
BRANCH   9  31
ATOM     31  C   UNL     1       1.121  -6.986   3.582  0.00  0.00    +0.145 C 
BRANCH  31  32
ATOM     32  C   UNL     1      -0.012  -7.688   4.284  0.00  0.00    -0.012 A 
ATOM     33  C   UNL     1      -0.519  -7.174   5.463  0.00  0.00    +0.006 A 
ATOM     34  C   UNL     1      -1.559  -7.819   6.107  0.00  0.00    +0.000 A 
ATOM     35  C   UNL     1      -2.091  -8.977   5.573  0.00  0.00    +0.001 A 
ATOM     36  C   UNL     1      -1.585  -9.492   4.395  0.00  0.00    +0.020 A 
ATOM     37  C   UNL     1      -0.548  -8.845   3.747  0.00  0.00    +0.046 A 
ATOM     38 CL   UNL     1       0.085  -9.487   2.263  0.00  0.00    -0.083 Cl
ENDBRANCH  31  32
ENDBRANCH   9  31
TORSDOF 8
