REMARK  Name = ZINC37447461
REMARK  4 active torsions:
REMARK  status: ('A' for Active; 'I' for Inactive)
REMARK    1  A    between atoms: C_1  and  C_2
REMARK    2  A    between atoms: C_2  and  C_3
REMARK    3  A    between atoms: C_8  and  N_9
REMARK    4  A    between atoms: C_10  and  C_12
REMARK                            x       y       z     vdW  Elec       q    Type
REMARK                         _______ _______ _______ _____ _____    ______ ____
ROOT
ATOM      1  C   UNL     1      -1.363   0.001  -4.742  0.00  0.00    +0.111 C 
ATOM      2  C   UNL     1      -0.164  -0.952  -5.011  0.00  0.00    +0.035 C 
ATOM      3  C   UNL     1      -0.864  -2.117  -5.748  0.00  0.00    +0.069 C 
ATOM      4  C   UNL     1       0.177  -2.956  -6.508  0.00  0.00    +0.089 C 
ATOM      5  S   UNL     1      -0.333  -2.691  -8.260  0.00  0.00    -0.144 S 
ATOM      6  C   UNL     1      -1.372  -1.191  -7.976  0.00  0.00    +0.155 C 
ATOM      7  N   UNL     1      -1.873  -1.477  -6.610  0.00  0.00    -0.272 NA
ATOM      8  C   UNL     1      -2.243  -0.190  -5.987  0.00  0.00    +0.138 C 
ATOM      9  C   UNL     1      -3.703  -0.160  -5.623  0.00  0.00    +0.004 A 
ATOM     10  C   UNL     1      -4.487  -0.931  -4.795  0.00  0.00    +0.008 A 
ATOM     11  C   UNL     1      -5.836  -0.653  -4.662  0.00  0.00    +0.000 A 
ATOM     12  C   UNL     1      -6.393   0.401  -5.362  0.00  0.00    +0.002 A 
ATOM     13  C   UNL     1      -5.611   1.177  -6.193  0.00  0.00    +0.023 A 
ATOM     14  C   UNL     1      -4.252   0.904  -6.332  0.00  0.00    +0.039 A 
ATOM     15  N   UNL     1      -3.269   1.533  -7.097  0.00  0.00    -0.283 N 
ATOM     16  C   UNL     1      -2.063   0.953  -6.952  0.00  0.00    +0.243 C 
ATOM     17  O   UNL     1      -1.030   1.287  -7.492  0.00  0.00    -0.273 OA
ATOM     18  H   UNL     1      -3.435   2.300  -7.668  0.00  0.00    +0.155 HD
ENDROOT
BRANCH   1  20
ATOM     19  N   UNL     1      -2.887   0.475  -2.852  0.00  0.00    -0.285 N 
ATOM     20  C   UNL     1      -2.104  -0.413  -3.497  0.00  0.00    +0.223 C 
ATOM     21  O   UNL     1      -1.996  -1.544  -3.074  0.00  0.00    -0.275 OA
ATOM     22  H   UNL     1      -3.018   1.363  -3.220  0.00  0.00    +0.155 HD
BRANCH  19  28
ATOM     23  C   UNL     1      -3.722   1.069  -0.665  0.00  0.00    -0.026 A 
ATOM     24  C   UNL     1      -4.344   0.713   0.515  0.00  0.00    +0.005 A 
ATOM     25  C   UNL     1      -4.753  -0.593   0.716  0.00  0.00    +0.000 A 
ATOM     26  C   UNL     1      -4.540  -1.546  -0.263  0.00  0.00    +0.002 A 
ATOM     27  C   UNL     1      -3.919  -1.196  -1.446  0.00  0.00    +0.023 A 
ATOM     28  C   UNL     1      -3.512   0.116  -1.653  0.00  0.00    +0.037 A 
BRANCH  23  30
ATOM     29  C   UNL     1      -4.363   3.255  -1.645  0.00  0.00    +0.009 C 
ATOM     30  C   UNL     1      -3.277   2.492  -0.883  0.00  0.00    +0.033 C 
ENDBRANCH  23  30
ENDBRANCH  19  28
ENDBRANCH   1  20
TORSDOF 3
