REMARK  Name = ZINC08530375
REMARK  11 active torsions:
REMARK  status: ('A' for Active; 'I' for Inactive)
REMARK    1  A    between atoms: C_1  and  C_2
REMARK    2  A    between atoms: C_2  and  C_3
REMARK    3  A    between atoms: C_12  and  C_13
REMARK    4  A    between atoms: C_13  and  C_15
REMARK    5  A    between atoms: C_15  and  N_53
REMARK    6  A    between atoms: C_16  and  N_53
REMARK    7  A    between atoms: C_17  and  C_18
REMARK    8  A    between atoms: C_17  and  N_53
REMARK    9  A    between atoms: N_20  and  C_21
REMARK   10  A    between atoms: C_26  and  S_27
REMARK   11  A    between atoms: S_27  and  C_28
REMARK                            x       y       z     vdW  Elec       q    Type
REMARK                         _______ _______ _______ _____ _____    ______ ____
ROOT
ATOM      1  C   UNL     1       6.130   0.031  -1.290  0.00  0.00    -0.095 C 
ATOM      2  N   UNL     1       5.713  -0.582  -0.011  0.00  0.00    +0.388 N 
ATOM      3  H   UNL     1       5.957   0.053   0.758  0.00  0.00    -0.081 HD
ENDROOT
BRANCH   2   4
ATOM      4  C   UNL     1       4.251  -0.799  -0.008  0.00  0.00    +0.002 C 
BRANCH   4   5
ATOM      5  C   UNL     1       3.560   0.540   0.012  0.00  0.00    +0.149 C 
ATOM      6  O   UNL     1       4.216   1.561   0.006  0.00  0.00    -0.294 OA
BRANCH   5  16
ATOM      7  C   UNL     1      -1.045   2.322   0.106  0.00  0.00    -0.024 A 
ATOM      8  C   UNL     1      -0.749   3.668   0.103  0.00  0.00    +0.005 A 
ATOM      9  C   UNL     1       0.568   4.103   0.083  0.00  0.00    +0.001 A 
ATOM     10  C   UNL     1       1.600   3.190   0.060  0.00  0.00    +0.011 A 
ATOM     11  C   UNL     1       1.315   1.828   0.058  0.00  0.00    +0.010 A 
ATOM     12  C   UNL     1      -0.017   1.385   0.079  0.00  0.00    +0.050 A 
ATOM     13  N   UNL     1       0.000   0.005   0.071  0.00  0.00    -0.360 N 
ATOM     14  H   UNL     1      -0.791  -0.556   0.082  0.00  0.00    +0.165 HD
ATOM     15  C   UNL     1       1.266  -0.455   0.046  0.00  0.00    +0.095 A 
ATOM     16  C   UNL     1       2.145   0.607   0.037  0.00  0.00    +0.040 A 
BRANCH   7  18
ATOM     17  C   UNL     1      -2.897   1.583   1.581  0.00  0.00    +0.009 C 
ATOM     18  C   UNL     1      -2.481   1.865   0.136  0.00  0.00    +0.034 C 
ENDBRANCH   7  18
ENDBRANCH   5  16
ENDBRANCH   4   5
ENDBRANCH   2   4
BRANCH   2  19
ATOM     19  C   UNL     1       6.415  -1.867   0.186  0.00  0.00    +0.019 C 
BRANCH  19  20
ATOM     20  C   UNL     1       7.881  -1.593   0.400  0.00  0.00    +0.201 C 
ATOM     21  O   UNL     1       8.295  -0.453   0.372  0.00  0.00    -0.278 OA
ATOM     22  N   UNL     1       8.733  -2.613   0.621  0.00  0.00    -0.286 N 
ATOM     23  H   UNL     1       8.394  -3.518   0.707  0.00  0.00    +0.155 HD
BRANCH  22  24
ATOM     24  C   UNL     1      10.109  -2.368   0.726  0.00  0.00    +0.047 A 
ATOM     25  C   UNL     1      10.563  -1.194   1.306  0.00  0.00    +0.024 A 
ATOM     26  C   UNL     1      11.921  -0.956   1.414  0.00  0.00    +0.002 A 
ATOM     27  C   UNL     1      12.830  -1.881   0.934  0.00  0.00    +0.001 A 
ATOM     28  C   UNL     1      12.386  -3.052   0.348  0.00  0.00    +0.016 A 
ATOM     29  C   UNL     1      11.025  -3.301   0.241  0.00  0.00    +0.029 A 
BRANCH  29  30
ATOM     30  S   UNL     1      10.457  -4.793  -0.506  0.00  0.00    -0.127 S 
ATOM     31  C   UNL     1      11.981  -5.662  -0.966  0.00  0.00    +0.090 C 
ENDBRANCH  29  30
ENDBRANCH  22  24
ENDBRANCH  19  20
ENDBRANCH   2  19
TORSDOF 8
