REMARK  Name = ZINC27598058
REMARK  10 active torsions:
REMARK  status: ('A' for Active; 'I' for Inactive)
REMARK    1  A    between atoms: C_1  and  C_2
REMARK    2  A    between atoms: C_2  and  C_3
REMARK    3  A    between atoms: C_6  and  C_9
REMARK    4  A    between atoms: C_9  and  C_11
REMARK    5  A    between atoms: C_9  and  N_28
REMARK    6  A    between atoms: C_11  and  N_12
REMARK    7  A    between atoms: C_13  and  C_15
REMARK    8  A    between atoms: C_15  and  N_16
REMARK    9  A    between atoms: N_28  and  C_29
REMARK   10  A    between atoms: N_28  and  C_30
REMARK                            x       y       z     vdW  Elec       q    Type
REMARK                         _______ _______ _______ _____ _____    ______ ____
ROOT
ATOM      1  N   UNL     1      -3.196   2.615   1.702  0.00  0.00    -0.315 N 
ATOM      2  C   UNL     1      -2.126   1.858   1.386  0.00  0.00    +0.231 C 
ATOM      3  O   UNL     1      -1.280   1.626   2.224  0.00  0.00    -0.274 OA
ATOM      4  H   UNL     1      -3.964   2.825   0.942  0.00  0.00    +0.149 HD
ENDROOT
BRANCH   1   5
ATOM      5  C   UNL     1      -3.337   3.156   3.055  0.00  0.00    +0.093 C 
BRANCH   5   6
ATOM      6  C   UNL     1      -4.543   4.097   3.105  0.00  0.00    -0.021 C 
BRANCH   6  10
ATOM      7  C   UNL     1      -5.059   5.538   7.093  0.00  0.00    -0.048 A 
ATOM      8  C   UNL     1      -5.905   4.565   6.595  0.00  0.00    +0.004 A 
ATOM      9  C   UNL     1      -5.738   4.098   5.305  0.00  0.00    +0.002 A 
ATOM     10  C   UNL     1      -4.725   4.606   4.512  0.00  0.00    -0.059 A 
ATOM     11  C   UNL     1      -3.877   5.575   5.012  0.00  0.00    +0.002 A 
ATOM     12  C   UNL     1      -4.047   6.046   6.300  0.00  0.00    +0.004 A 
BRANCH   7  14
ATOM     13  C   UNL     1      -4.409   5.195   9.461  0.00  0.00    +0.009 C 
ATOM     14  C   UNL     1      -5.241   6.047   8.500  0.00  0.00    +0.032 C 
ENDBRANCH   7  14
ENDBRANCH   6  10
BRANCH   6  15
ATOM     15  N   UNL     1      -4.317   5.231   2.200  0.00  0.00    +0.382 N 
ATOM     16  C   UNL     1      -2.882   5.514   2.058  0.00  0.00    -0.096 C 
ATOM     17  C   UNL     1      -4.938   4.991   0.890  0.00  0.00    -0.096 C 
ATOM     18  H   UNL     1      -4.794   6.118   2.643  0.00  0.00    -0.082 HD
ENDBRANCH   6  15
ENDBRANCH   5   6
ENDBRANCH   1   5
BRANCH   2  19
ATOM     19  C   UNL     1      -1.981   1.301  -0.006  0.00  0.00    +0.209 C 
BRANCH  19  20
ATOM     20  N   UNL     1      -0.745   0.520  -0.093  0.00  0.00    -0.256 N 
ATOM     21  C   UNL     1       0.458   1.132  -0.475  0.00  0.00    +0.080 A 
ATOM     22  C   UNL     1       0.585   2.511  -0.465  0.00  0.00    +0.047 A 
ATOM     23  C   UNL     1       1.781   3.094  -0.846  0.00  0.00    +0.043 A 
ATOM     24  C   UNL     1       2.847   2.304  -1.237  0.00  0.00    +0.024 A 
ATOM     25  C   UNL     1       2.725   0.926  -1.249  0.00  0.00    +0.049 A 
ATOM     26  C   UNL     1       1.532   0.336  -0.869  0.00  0.00    +0.143 A 
ATOM     27  O   UNL     1       1.396  -1.017  -0.875  0.00  0.00    -0.481 OA
ATOM     28  C   UNL     1       0.541  -1.581   0.123  0.00  0.00    +0.325 C 
ATOM     29  C   UNL     1      -0.747  -0.801   0.188  0.00  0.00    +0.258 C 
ATOM     30  O   UNL     1      -1.781  -1.357   0.491  0.00  0.00    -0.271 OA
ATOM     31 CL   UNL     1       1.943   4.823  -0.834  0.00  0.00    -0.083 Cl
ENDBRANCH  19  20
ENDBRANCH   2  19
TORSDOF 7
