REMARK  Name = ZINC15866205
REMARK  2 active torsions:
REMARK  status: ('A' for Active; 'I' for Inactive)
REMARK    1  A    between atoms: C_4  and  C_7
REMARK    2  A    between atoms: C_10  and  C_18
REMARK                            x       y       z     vdW  Elec       q    Type
REMARK                         _______ _______ _______ _____ _____    ______ ____
ROOT
ATOM      1  C   UNL     1      -0.728   1.579   1.271  0.00  0.00    +0.106 C 
ATOM      2  C   UNL     1      -0.013   1.086   0.008  0.00  0.00    +0.059 C 
ATOM      3  C   UNL     1      -0.752   1.593  -1.237  0.00  0.00    +0.146 C 
ATOM      4  N   UNL     1      -2.176   1.307  -1.087  0.00  0.00    -0.206 N 
ATOM      5  C   UNL     1      -2.784   1.036   0.096  0.00  0.00    +0.236 A 
ATOM      6  N   UNL     1      -4.046   0.830  -0.154  0.00  0.00    -0.092 NA
ATOM      7  N   UNL     1      -4.277   0.955  -1.416  0.00  0.00    -0.021 NA
ATOM      8  N   UNL     1      -3.186   1.245  -2.047  0.00  0.00    -0.042 NA
ATOM      9  N   UNL     1      -2.089   1.012   1.297  0.00  0.00    -0.305 N 
ATOM     10  H   UNL     1      -2.476   0.643   2.106  0.00  0.00    +0.150 HD
ENDROOT
BRANCH   3  11
ATOM     11  C   UNL     1      -0.222   0.890  -2.460  0.00  0.00    -0.005 A 
ATOM     12  C   UNL     1      -0.304  -0.486  -2.557  0.00  0.00    +0.007 A 
ATOM     13  C   UNL     1       0.177  -1.130  -3.681  0.00  0.00    +0.000 A 
ATOM     14  C   UNL     1       0.751  -0.399  -4.705  0.00  0.00    +0.001 A 
ATOM     15  C   UNL     1       0.838   0.976  -4.607  0.00  0.00    +0.020 A 
ATOM     16  C   UNL     1       0.352   1.622  -3.484  0.00  0.00    +0.046 A 
ATOM     17 CL   UNL     1       0.461   3.350  -3.361  0.00  0.00    -0.083 Cl
ENDBRANCH   3  11
BRANCH   1  21
ATOM     18  C   UNL     1      -0.950   5.845   1.219  0.00  0.00    +0.000 A 
ATOM     19  C   UNL     1       0.022   5.212   1.972  0.00  0.00    +0.000 A 
ATOM     20  C   UNL     1       0.093   3.832   1.989  0.00  0.00    +0.005 A 
ATOM     21  C   UNL     1      -0.806   3.084   1.253  0.00  0.00    -0.027 A 
ATOM     22  C   UNL     1      -1.774   3.716   0.495  0.00  0.00    +0.005 A 
ATOM     23  C   UNL     1      -1.850   5.096   0.483  0.00  0.00    +0.000 A 
ENDBRANCH   1  21
TORSDOF 2
