REMARK  Name = ZINC15023783
REMARK  11 active torsions:
REMARK  status: ('A' for Active; 'I' for Inactive)
REMARK    1  A    between atoms: C_1  and  C_2
REMARK    2  A    between atoms: C_2  and  O_3
REMARK    3  A    between atoms: O_3  and  C_4
REMARK    4  A    between atoms: C_4  and  C_6
REMARK    5  A    between atoms: C_7  and  C_25
REMARK    6  A    between atoms: N_8  and  C_24
REMARK    7  A    between atoms: C_11  and  C_17
REMARK    8  A    between atoms: C_12  and  O_16
REMARK    9  A    between atoms: C_17  and  N_18
REMARK   10  A    between atoms: C_25  and  S_26
REMARK   11  A    between atoms: S_26  and  C_27
REMARK                            x       y       z     vdW  Elec       q    Type
REMARK                         _______ _______ _______ _____ _____    ______ ____
ROOT
ATOM      1  C   UNL     1       1.144  -2.202  -2.366  0.00  0.00    +0.088 A 
ATOM      2  C   UNL     1       2.483  -2.463  -2.374  0.00  0.00    +0.044 A 
ATOM      3  N   UNL     1       2.847  -2.958  -3.580  0.00  0.00    -0.345 N 
ATOM      4  C   UNL     1       1.751  -3.041  -4.417  0.00  0.00    +0.051 A 
ATOM      5  C   UNL     1       0.637  -2.580  -3.699  0.00  0.00    +0.019 A 
ATOM      6  C   UNL     1      -0.620  -2.555  -4.297  0.00  0.00    -0.011 A 
ATOM      7  C   UNL     1      -0.765  -2.991  -5.601  0.00  0.00    +0.133 A 
ATOM      8  C   UNL     1       0.339  -3.452  -6.312  0.00  0.00    +0.061 A 
ATOM      9  C   UNL     1       1.589  -3.471  -5.730  0.00  0.00    +0.045 A 
ATOM     10 BR   UNL     1       0.126  -4.045  -8.094  0.00  0.00    -0.046 Br
ATOM     11  C   UNL     1       4.210  -3.349  -3.947  0.00  0.00    +0.149 C 
ENDROOT
BRANCH   1  12
ATOM     12  C   UNL     1       0.361  -1.658  -1.251  0.00  0.00    +0.342 C 
ATOM     13  O   UNL     1      -0.213  -2.410  -0.487  0.00  0.00    -0.245 OA
BRANCH  12  14
ATOM     14  O   UNL     1       0.279  -0.324  -1.072  0.00  0.00    -0.461 OA
BRANCH  14  16
ATOM     15  C   UNL     1      -0.503   1.659   0.066  0.00  0.00    +0.048 C 
ATOM     16  C   UNL     1      -0.405   0.133   0.097  0.00  0.00    +0.229 C 
ENDBRANCH  14  16
ENDBRANCH  12  14
ENDBRANCH   1  12
BRANCH   7  17
ATOM     17  O   UNL     1      -1.991  -2.969  -6.190  0.00  0.00    -0.505 OA
ATOM     18  H   UNL     1      -2.190  -2.143  -6.652  0.00  0.00    +0.292 HD
ENDBRANCH   7  17
BRANCH   6  19
ATOM     19  C   UNL     1      -1.816  -2.057  -3.527  0.00  0.00    -0.039 C 
BRANCH  19  20
ATOM     20  N   UNL     1      -2.354  -3.145  -2.700  0.00  0.00    +0.382 N 
ATOM     21  C   UNL     1      -2.879  -4.205  -3.569  0.00  0.00    -0.078 C 
ATOM     22  C   UNL     1      -3.367  -5.377  -2.714  0.00  0.00    -0.019 C 
ATOM     23  C   UNL     1      -4.473  -4.889  -1.774  0.00  0.00    -0.004 C 
ATOM     24  C   UNL     1      -3.936  -3.735  -0.924  0.00  0.00    -0.019 C 
ATOM     25  C   UNL     1      -3.427  -2.624  -1.845  0.00  0.00    -0.078 C 
ATOM     26  H   UNL     1      -1.618  -3.522  -2.121  0.00  0.00    -0.081 HD
ENDBRANCH  19  20
ENDBRANCH   6  19
BRANCH   2  27
ATOM     27  C   UNL     1       3.418  -2.235  -1.213  0.00  0.00    +0.128 C 
BRANCH  27  28
ATOM     28  S   UNL     1       4.099  -0.556  -1.307  0.00  0.00    -0.119 S 
BRANCH  28  29
ATOM     29  C   UNL     1       5.156  -0.446   0.098  0.00  0.00    +0.008 A 
ATOM     30  C   UNL     1       5.293  -1.532   0.954  0.00  0.00    +0.015 A 
ATOM     31  C   UNL     1       6.122  -1.442   2.054  0.00  0.00    +0.001 A 
ATOM     32  C   UNL     1       6.816  -0.273   2.305  0.00  0.00    +0.000 A 
ATOM     33  C   UNL     1       6.682   0.811   1.456  0.00  0.00    +0.001 A 
ATOM     34  C   UNL     1       5.859   0.726   0.351  0.00  0.00    +0.015 A 
ENDBRANCH  28  29
ENDBRANCH  27  28
ENDBRANCH   2  27
TORSDOF 9
