REMARK  Name = ZINC43548599
REMARK  14 active torsions:
REMARK  status: ('A' for Active; 'I' for Inactive)
REMARK    1  A    between atoms: C_1  and  C_2
REMARK    2  A    between atoms: C_2  and  C_3
REMARK    3  A    between atoms: C_3  and  C_4
REMARK    4  A    between atoms: C_4  and  N_5
REMARK    5  A    between atoms: C_12  and  C_35
REMARK    6  A    between atoms: C_15  and  C_25
REMARK    7  A    between atoms: C_17  and  O_24
REMARK    8  A    between atoms: C_21  and  C_23
REMARK    9  A    between atoms: C_25  and  C_27
REMARK   10  A    between atoms: C_25  and  C_28
REMARK   11  A    between atoms: N_30  and  C_31
REMARK   12  A    between atoms: N_30  and  C_33
REMARK   13  A    between atoms: C_31  and  C_32
REMARK   14  A    between atoms: C_33  and  C_34
REMARK                            x       y       z     vdW  Elec       q    Type
REMARK                         _______ _______ _______ _____ _____    ______ ____
ROOT
ATOM      1  N   UNL     1       0.063  -2.311   3.101  0.00  0.00    -0.325 N 
ATOM      2  C   UNL     1       0.415  -3.651   3.100  0.00  0.00    +0.136 A 
ATOM      3  N   UNL     1       0.971  -4.352   4.064  0.00  0.00    -0.340 N 
ATOM      4  C   UNL     1       1.255  -5.645   3.921  0.00  0.00    +0.031 A 
ATOM      5  C   UNL     1       0.926  -6.170   2.714  0.00  0.00    +0.013 A 
ATOM      6  S   UNL     1       0.227  -4.782   1.865  0.00  0.00    -0.059 S 
ATOM      7  C   UNL     1       1.116  -7.574   2.254  0.00  0.00    +0.051 C 
ATOM      8  C   UNL     1       2.062  -8.286   3.224  0.00  0.00    -0.022 C 
ATOM      9  C   UNL     1       3.502  -7.823   3.007  0.00  0.00    +0.008 C 
ATOM     10  C   UNL     1       4.425  -8.610   3.942  0.00  0.00    +0.007 C 
ATOM     11  C   UNL     1       4.004  -8.386   5.395  0.00  0.00    +0.029 C 
ATOM     12  C   UNL     1       2.552  -8.828   5.593  0.00  0.00    +0.123 C 
ATOM     13  C   UNL     1       1.653  -7.987   4.671  0.00  0.00    +0.033 C 
ATOM     14  C   UNL     1       1.901  -6.509   4.992  0.00  0.00    +0.039 C 
ATOM     15  C   UNL     1       1.291  -6.173   6.355  0.00  0.00    +0.014 C 
ATOM     16  C   UNL     1       1.992  -9.795   2.981  0.00  0.00    +0.012 C 
ATOM     17  H   UNL     1       0.228  -1.767   3.887  0.00  0.00    +0.148 HD
ATOM     18  H   UNL     1       1.179  -3.914   4.904  0.00  0.00    +0.167 HD
ENDROOT
BRANCH  12  19
ATOM     19  O   UNL     1       2.171  -8.624   6.955  0.00  0.00    -0.391 OA
ATOM     20  H   UNL     1       2.747  -9.064   7.595  0.00  0.00    +0.210 HD
ENDBRANCH  12  19
BRANCH  11  21
ATOM     21  C   UNL     1       4.911  -9.203   6.317  0.00  0.00    +0.078 C 
ATOM     22  C   UNL     1       6.372  -8.831   6.056  0.00  0.00    +0.017 C 
BRANCH  21  23
ATOM     23  C   UNL     1       4.711 -10.672   6.047  0.00  0.00    +0.219 C 
ATOM     24  O   UNL     1       4.141 -11.031   5.039  0.00  0.00    -0.275 OA
ATOM     25  N   UNL     1       5.165 -11.587   6.927  0.00  0.00    -0.302 N 
BRANCH  25  26
ATOM     26  C   UNL     1       5.033 -13.016   6.631  0.00  0.00    +0.104 C 
ATOM     27  C   UNL     1       6.323 -13.523   5.983  0.00  0.00    +0.024 C 
ENDBRANCH  25  26
BRANCH  25  28
ATOM     28  C   UNL     1       5.790 -11.153   8.178  0.00  0.00    +0.104 C 
ATOM     29  C   UNL     1       4.736 -11.110   9.287  0.00  0.00    +0.024 C 
ENDBRANCH  25  28
ENDBRANCH  21  23
ENDBRANCH  11  21
BRANCH   1  30
ATOM     30  C   UNL     1      -0.558  -1.715   1.915  0.00  0.00    +0.103 C 
BRANCH  30  31
ATOM     31  C   UNL     1      -0.843  -0.235   2.178  0.00  0.00    +0.018 C 
BRANCH  31  33
ATOM     32  C   UNL     1      -1.778   1.867   1.203  0.00  0.00    +0.004 C 
ATOM     33  C   UNL     1      -1.492   0.387   0.940  0.00  0.00    -0.002 C 
ENDBRANCH  31  33
ENDBRANCH  30  31
ENDBRANCH   1  30
TORSDOF 8
