REMARK  Name = ZINC16043820
REMARK  16 active torsions:
REMARK  status: ('A' for Active; 'I' for Inactive)
REMARK    1  A    between atoms: C_1  and  C_2
REMARK    2  A    between atoms: C_3  and  C_30
REMARK    3  A    between atoms: C_4  and  C_10
REMARK    4  A    between atoms: C_13  and  O_18
REMARK    5  A    between atoms: C_14  and  O_16
REMARK    6  A    between atoms: O_16  and  C_17
REMARK    7  A    between atoms: O_18  and  C_19
REMARK    8  A    between atoms: C_19  and  C_20
REMARK    9  A    between atoms: C_23  and  C_26
REMARK   10  A    between atoms: C_26  and  O_28
REMARK   11  A    between atoms: O_28  and  C_29
REMARK   12  A    between atoms: C_30  and  O_32
REMARK   13  A    between atoms: O_32  and  C_33
REMARK   14  A    between atoms: C_33  and  C_34
REMARK   15  A    between atoms: C_34  and  C_35
REMARK   16  A    between atoms: C_34  and  C_36
REMARK                            x       y       z     vdW  Elec       q    Type
REMARK                         _______ _______ _______ _____ _____    ______ ____
ROOT
ATOM      1  C   UNL     1       0.009   1.286  -0.225  0.00  0.00    -0.019 A 
ATOM      2  C   UNL     1      -1.184   1.984  -0.252  0.00  0.00    +0.009 A 
ATOM      3  C   UNL     1      -1.180   3.365  -0.312  0.00  0.00    +0.050 A 
ATOM      4  C   UNL     1       0.022   4.053  -0.357  0.00  0.00    +0.162 A 
ATOM      5  C   UNL     1       1.223   3.350  -0.335  0.00  0.00    +0.162 A 
ATOM      6  C   UNL     1       1.212   1.966  -0.269  0.00  0.00    +0.055 A 
ENDROOT
BRANCH   1  10
ATOM      7  C   UNL     1       1.610  -1.833   2.955  0.00  0.00    +0.061 C 
ATOM      8  C   UNL     1       1.319  -1.411   1.538  0.00  0.00    +0.019 C 
ATOM      9  C   UNL     1       0.254  -0.620   1.285  0.00  0.00    +0.078 C 
ATOM     10  C   UNL     1      -0.001  -0.219  -0.154  0.00  0.00    +0.141 C 
ATOM     11  N   UNL     1       0.941  -0.728  -1.165  0.00  0.00    -0.315 N 
ATOM     12  C   UNL     1       1.960  -1.510  -0.756  0.00  0.00    +0.135 C 
ATOM     13  S   UNL     1       3.062  -2.109  -1.921  0.00  0.00    -0.019 S 
ATOM     14  N   UNL     1       2.138  -1.834   0.531  0.00  0.00    -0.300 N 
ATOM     15  H   UNL     1       0.830  -0.506  -2.103  0.00  0.00    +0.149 HD
ATOM     16  H   UNL     1       2.890  -2.401   0.760  0.00  0.00    +0.154 HD
BRANCH   9  17
ATOM     17  C   UNL     1      -0.595  -0.182   2.328  0.00  0.00    +0.339 C 
ATOM     18  O   UNL     1      -0.309  -0.421   3.486  0.00  0.00    -0.245 OA
BRANCH  17  19
ATOM     19  O   UNL     1      -1.722   0.502   2.038  0.00  0.00    -0.461 OA
BRANCH  19  20
ATOM     20  C   UNL     1      -2.474   1.010   3.142  0.00  0.00    +0.235 C 
BRANCH  20  21
ATOM     21  C   UNL     1      -3.640   1.852   2.620  0.00  0.00    +0.020 C 
ATOM     22  C   UNL     1      -4.603   0.958   1.835  0.00  0.00    +0.010 C 
ATOM     23  C   UNL     1      -4.380   2.486   3.799  0.00  0.00    +0.010 C 
ENDBRANCH  20  21
ENDBRANCH  19  20
ENDBRANCH  17  19
ENDBRANCH   9  17
ENDBRANCH   1  10
BRANCH   5  24
ATOM     24  O   UNL     1       2.405   4.021  -0.378  0.00  0.00    -0.491 OA
ATOM     25  C   UNL     1       3.595   3.234  -0.464  0.00  0.00    +0.277 C 
ENDBRANCH   5  24
BRANCH   4  26
ATOM     26  O   UNL     1       0.028   5.411  -0.422  0.00  0.00    -0.484 OA
BRANCH  26  27
ATOM     27  C   UNL     1      -1.243   6.065  -0.440  0.00  0.00    +0.264 C 
BRANCH  27  28
ATOM     28  C   UNL     1      -1.039   7.556  -0.513  0.00  0.00    -0.010 A 
ATOM     29  C   UNL     1      -0.940   8.296   0.652  0.00  0.00    +0.008 A 
ATOM     30  C   UNL     1      -0.748   9.661   0.592  0.00  0.00    +0.015 A 
ATOM     31  C   UNL     1      -0.665  10.297  -0.648  0.00  0.00    +0.059 A 
ATOM     32  C   UNL     1      -0.772   9.545  -1.820  0.00  0.00    +0.015 A 
ATOM     33  C   UNL     1      -0.958   8.181  -1.745  0.00  0.00    +0.008 A 
BRANCH  31  34
ATOM     34  C   UNL     1      -0.466  11.759  -0.720  0.00  0.00    +0.339 C 
ATOM     35  O   UNL     1      -0.394  12.310  -1.800  0.00  0.00    -0.245 OA
BRANCH  34  36
ATOM     36  O   UNL     1      -0.363  12.481   0.413  0.00  0.00    -0.464 OA
ATOM     37  C   UNL     1      -0.168  13.913   0.266  0.00  0.00    +0.280 C 
ENDBRANCH  34  36
ENDBRANCH  31  34
ENDBRANCH  27  28
ENDBRANCH  26  27
ENDBRANCH   4  26
TORSDOF 11
