REMARK  Name = ZINC28232892
REMARK  4 active torsions:
REMARK  status: ('A' for Active; 'I' for Inactive)
REMARK    1  A    between atoms: C_1  and  C_2
REMARK    2  A    between atoms: C_3  and  S_8
REMARK    3  A    between atoms: C_4  and  C_7
REMARK    4  A    between atoms: S_8  and  N_11
REMARK                            x       y       z     vdW  Elec       q    Type
REMARK                         _______ _______ _______ _____ _____    ______ ____
ROOT
ATOM      1  S   UNL     1      -1.371  -1.108   0.009  0.00  0.00    +0.106 S 
ATOM      2  O   UNL     1      -0.903  -2.336   0.549  0.00  0.00    -0.146 OA
ATOM      3  O   UNL     1      -2.463  -0.395   0.574  0.00  0.00    -0.146 OA
ENDROOT
BRANCH   1   4
ATOM      4  N   UNL     1      -1.768  -1.406  -1.571  0.00  0.00    -0.111 NA
ATOM      5  C   UNL     1      -0.874  -2.077  -2.397  0.00  0.00    +0.153 A 
ATOM      6  C   UNL     1      -1.213  -2.324  -3.724  0.00  0.00    +0.049 A 
ATOM      7  C   UNL     1      -0.315  -2.992  -4.535  0.00  0.00    +0.020 A 
ATOM      8  C   UNL     1       0.900  -3.392  -3.991  0.00  0.00    +0.034 A 
ATOM      9  C   UNL     1       1.171  -3.113  -2.666  0.00  0.00    +0.099 A 
ATOM     10  N   UNL     1       0.296  -2.469  -1.917  0.00  0.00    -0.344 N 
ATOM     11 BR   UNL     1       2.167  -4.309  -5.053  0.00  0.00    -0.049 Br
ATOM     12  H   UNL     1       0.558  -2.260  -0.869  0.00  0.00    +0.167 HD
ENDBRANCH   1   4
BRANCH   1  15
ATOM     13  C   UNL     1       1.982  -1.708  -0.027  0.00  0.00    +0.071 C 
ATOM     14  C   UNL     1       1.378  -0.327  -0.013  0.00  0.00    +0.108 A 
ATOM     15  C   UNL     1       0.002  -0.004   0.002  0.00  0.00    +0.177 A 
ATOM     16  C   UNL     1      -0.016   1.350   0.009  0.00  0.00    +0.161 A 
ATOM     17  O   UNL     1       1.264   1.747  -0.001  0.00  0.00    -0.358 OA
ATOM     18  N   UNL     1       2.022   0.805  -0.013  0.00  0.00    -0.081 NA
ATOM     19  C   UNL     1      -1.236   2.236   0.020  0.00  0.00    +0.091 C 
ENDBRANCH   1  15
TORSDOF 2
