REMARK  Name = ZINC64636399
REMARK  7 active torsions:
REMARK  status: ('A' for Active; 'I' for Inactive)
REMARK    1  A    between atoms: C_6  and  C_11
REMARK    2  A    between atoms: C_11  and  N_12
REMARK    3  A    between atoms: C_16  and  N_19
REMARK    4  A    between atoms: C_21  and  C_24
REMARK    5  A    between atoms: N_26  and  C_27
REMARK    6  A    between atoms: C_27  and  C_28
REMARK    7  A    between atoms: C_28  and  O_29
REMARK                            x       y       z     vdW  Elec       q    Type
REMARK                         _______ _______ _______ _____ _____    ______ ____
ROOT
ATOM      1  N   UNL     1       5.124  -2.633   1.277  0.00  0.00    -0.298 NA
ATOM      2  C   UNL     1       5.777  -3.331   0.163  0.00  0.00    +0.084 C 
ATOM      3  C   UNL     1       7.280  -3.042   0.189  0.00  0.00    +0.017 C 
ATOM      4  C   UNL     1       7.863  -3.514   1.524  0.00  0.00    +0.026 C 
ATOM      5  C   UNL     1       7.132  -2.808   2.669  0.00  0.00    +0.106 C 
ATOM      6  C   UNL     1       5.634  -3.104   2.571  0.00  0.00    +0.108 C 
ENDROOT
BRANCH   5   7
ATOM      7  N   UNL     1       7.646  -3.296   3.951  0.00  0.00    -0.252 N 
ATOM      8  C   UNL     1       8.239  -2.526   4.921  0.00  0.00    +0.119 C 
ATOM      9  C   UNL     1       8.578  -3.326   5.954  0.00  0.00    +0.120 C 
ATOM     10  N   UNL     1       8.184  -4.641   5.620  0.00  0.00    -0.259 N 
ATOM     11  N   UNL     1       7.608  -4.591   4.382  0.00  0.00    -0.160 NA
ATOM     12  H   UNL     1       8.299  -5.432   6.169  0.00  0.00    +0.168 HD
ATOM     13  H   UNL     1       8.087  -5.201   3.737  0.00  0.00    +0.168 HD
BRANCH   9  14
ATOM     14  C   UNL     1       9.233  -2.908   7.191  0.00  0.00    +0.260 C 
ATOM     15  O   UNL     1       9.524  -1.738   7.361  0.00  0.00    -0.269 OA
ATOM     16  N   UNL     1       9.516  -3.818   8.145  0.00  0.00    -0.308 N 
ATOM     17  H   UNL     1       9.284  -4.750   8.010  0.00  0.00    +0.149 HD
BRANCH  16  18
ATOM     18  C   UNL     1      10.172  -3.399   9.386  0.00  0.00    +0.132 C 
BRANCH  18  19
ATOM     19  C   UNL     1      10.377  -4.616  10.290  0.00  0.00    +0.174 C 
BRANCH  19  20
ATOM     20  O   UNL     1      11.287  -5.525   9.669  0.00  0.00    -0.393 OA
ATOM     21  H   UNL     1      11.464  -6.321  10.188  0.00  0.00    +0.209 HD
ENDBRANCH  19  20
ENDBRANCH  18  19
ENDBRANCH  16  18
ENDBRANCH   9  14
ENDBRANCH   5   7
BRANCH   1  22
ATOM     22  C   UNL     1       3.664  -2.775   1.204  0.00  0.00    +0.113 C 
BRANCH  22  28
ATOM     23  C   UNL     1      -0.016   1.348   0.009  0.00  0.00    +0.001 A 
ATOM     24  C   UNL     1       1.166   2.101   0.002  0.00  0.00    +0.002 A 
ATOM     25  C   UNL     1       2.391   1.535  -0.013  0.00  0.00    +0.026 A 
ATOM     26  C   UNL     1       2.529   0.120  -0.022  0.00  0.00    +0.043 A 
ATOM     27  N   UNL     1       3.587  -0.654  -0.037  0.00  0.00    -0.377 N 
ATOM     28  C   UNL     1       3.143  -2.053  -0.041  0.00  0.00    +0.117 C 
ATOM     29  C   UNL     1       1.631  -2.008  -0.025  0.00  0.00    +0.008 C 
ATOM     30  C   UNL     1       1.295  -0.698  -0.014  0.00  0.00    -0.004 A 
ATOM     31  C   UNL     1       0.002  -0.004   0.002  0.00  0.00    +0.010 A 
ATOM     32  H   UNL     1       4.509  -0.353  -0.045  0.00  0.00    +0.160 HD
ENDBRANCH  22  28
ENDBRANCH   1  22
TORSDOF 7
