REMARK  Name = ZINC10079074
REMARK  3 active torsions:
REMARK  status: ('A' for Active; 'I' for Inactive)
REMARK    1  A    between atoms: C_6  and  S_10
REMARK    2  A    between atoms: S_10  and  C_11
REMARK    3  A    between atoms: C_11  and  C_12
REMARK                            x       y       z     vdW  Elec       q    Type
REMARK                         _______ _______ _______ _____ _____    ______ ____
ROOT
ATOM      1  C   UNL     1      -0.832   1.656   1.163  0.00  0.00    +0.143 A 
ATOM      2  N   UNL     1      -1.782   0.911   1.698  0.00  0.00    -0.216 NA
ATOM      3  C   UNL     1      -2.330   1.201   2.868  0.00  0.00    +0.128 A 
ATOM      4  C   UNL     1      -1.882   2.352   3.574  0.00  0.00    +0.051 A 
ATOM      5  C   UNL     1      -2.336   2.860   4.874  0.00  0.00    -0.025 A 
ATOM      6  C   UNL     1      -1.748   3.986   5.323  0.00  0.00    -0.004 A 
ATOM      7  S   UNL     1      -0.564   4.423   4.075  0.00  0.00    -0.073 S 
ATOM      8  C   UNL     1      -0.867   3.094   2.941  0.00  0.00    +0.114 A 
ATOM      9  N   UNL     1      -0.372   2.730   1.774  0.00  0.00    -0.224 NA
ATOM     10  C   UNL     1      -2.028   4.723   6.595  0.00  0.00    +0.043 C 
ATOM     11  C   UNL     1      -2.029   3.732   7.766  0.00  0.00    +0.005 C 
ATOM     12  C   UNL     1      -3.446   3.196   7.941  0.00  0.00    +0.001 C 
ATOM     13  C   UNL     1      -4.142   3.108   6.584  0.00  0.00    +0.005 C 
ATOM     14  C   UNL     1      -3.413   2.129   5.671  0.00  0.00    +0.037 C 
ATOM     15  N   UNL     1      -3.323   0.396   3.396  0.00  0.00    -0.343 N 
ATOM     16  H   UNL     1      -3.449   0.349   4.356  0.00  0.00    +0.144 HD
ATOM     17  H   UNL     1      -3.893  -0.122   2.806  0.00  0.00    +0.144 HD
ENDROOT
BRANCH   1  18
ATOM     18  C   UNL     1      -0.255   1.265  -0.173  0.00  0.00    +0.153 C 
BRANCH  18  19
ATOM     19  S   UNL     1      -1.209   2.055  -1.499  0.00  0.00    -0.076 S 
BRANCH  19  25
ATOM     20  C   UNL     1       1.197   0.420  -6.995  0.00  0.00    +0.040 A 
ATOM     21  C   UNL     1       2.075  -0.291  -6.169  0.00  0.00    +0.116 A 
ATOM     22  N   UNL     1       1.943  -0.242  -4.863  0.00  0.00    -0.219 NA
ATOM     23  C   UNL     1       0.972   0.485  -4.298  0.00  0.00    +0.254 A 
ATOM     24  N   UNL     1       0.633   0.696  -3.030  0.00  0.00    -0.183 NA
ATOM     25  C   UNL     1      -0.421   1.508  -2.976  0.00  0.00    +0.211 A 
ATOM     26  N   UNL     1      -0.786   1.833  -4.200  0.00  0.00    -0.137 NA
ATOM     27  N   UNL     1       0.099   1.191  -5.076  0.00  0.00    -0.203 N 
ATOM     28  C   UNL     1       0.208   1.161  -6.430  0.00  0.00    +0.118 A 
ENDBRANCH  19  25
ENDBRANCH  18  19
ENDBRANCH   1  18
TORSDOF 3
