REMARK  Name = ZINC13500570
REMARK  15 active torsions:
REMARK  status: ('A' for Active; 'I' for Inactive)
REMARK    1  A    between atoms: C_1  and  C_2
REMARK    2  A    between atoms: C_4  and  C_37
REMARK    3  A    between atoms: C_9  and  C_14
REMARK    4  A    between atoms: C_14  and  N_69
REMARK    5  A    between atoms: C_15  and  C_16
REMARK    6  A    between atoms: C_15  and  N_69
REMARK    7  A    between atoms: C_16  and  C_17
REMARK    8  A    between atoms: C_17  and  O_18
REMARK    9  A    between atoms: C_19  and  C_21
REMARK   10  A    between atoms: C_19  and  C_34
REMARK   11  A    between atoms: C_19  and  N_69
REMARK   12  A    between atoms: N_25  and  C_26
REMARK   13  A    between atoms: C_26  and  C_27
REMARK   14  A    between atoms: C_34  and  C_35
REMARK   15  A    between atoms: C_34  and  C_36
REMARK                            x       y       z     vdW  Elec       q    Type
REMARK                         _______ _______ _______ _____ _____    ______ ____
ROOT
ATOM      1  N   UNL     1      -0.770   8.311  -0.385  0.00  0.00    +0.389 N 
ATOM      2  H   UNL     1      -0.071   8.132  -1.116  0.00  0.00    -0.080 HD
ENDROOT
BRANCH   1   3
ATOM      3  C   UNL     1      -0.129   8.160   0.939  0.00  0.00    -0.037 C 
BRANCH   3  12
ATOM      4  C   UNL     1       6.580   5.051  -0.033  0.00  0.00    +0.044 C 
ATOM      5  C   UNL     1       5.109   4.934   0.275  0.00  0.00    -0.050 A 
ATOM      6  C   UNL     1       4.558   3.687   0.534  0.00  0.00    +0.008 A 
ATOM      7  C   UNL     1       3.214   3.556   0.813  0.00  0.00    -0.026 A 
ATOM      8  C   UNL     1       2.403   4.685   0.846  0.00  0.00    +0.052 A 
ATOM      9  C   UNL     1       2.966   5.948   0.582  0.00  0.00    -0.001 A 
ATOM     10  C   UNL     1       4.331   6.056   0.296  0.00  0.00    +0.013 A 
ATOM     11  C   UNL     1       2.102   7.130   0.614  0.00  0.00    +0.017 A 
ATOM     12  C   UNL     1       0.787   6.964   0.898  0.00  0.00    +0.001 A 
ATOM     13  C   UNL     1       0.272   5.675   1.155  0.00  0.00    +0.251 A 
ATOM     14  O   UNL     1      -0.913   5.548   1.408  0.00  0.00    -0.268 OA
ATOM     15  N   UNL     1       1.057   4.584   1.128  0.00  0.00    -0.322 N 
ATOM     16  H   UNL     1       0.671   3.713   1.310  0.00  0.00    +0.169 HD
ATOM     17  C   UNL     1       2.628   2.195   1.086  0.00  0.00    +0.046 C 
ENDBRANCH   3  12
ENDBRANCH   1   3
BRANCH   1  18
ATOM     18  C   UNL     1      -1.873   7.338  -0.526  0.00  0.00    -0.075 C 
BRANCH  18  19
ATOM     19  C   UNL     1      -2.279   7.266  -2.000  0.00  0.00    +0.009 C 
BRANCH  19  20
ATOM     20  C   UNL     1      -3.332   6.172  -2.186  0.00  0.00    +0.154 C 
BRANCH  20  21
ATOM     21  O   UNL     1      -3.655   6.052  -3.572  0.00  0.00    -0.395 OA
ATOM     22  H   UNL     1      -4.318   5.375  -3.765  0.00  0.00    +0.209 HD
ENDBRANCH  20  21
ENDBRANCH  19  20
ENDBRANCH  18  19
ENDBRANCH   1  18
BRANCH   1  23
ATOM     23  C   UNL     1      -1.287   9.687  -0.541  0.00  0.00    +0.006 C 
BRANCH  23  24
ATOM     24  C   UNL     1      -2.103  10.084   0.662  0.00  0.00    +0.139 A 
ATOM     25  N   UNL     1      -1.894   9.721   1.903  0.00  0.00    -0.115 NA
ATOM     26  N   UNL     1      -2.803  10.267   2.636  0.00  0.00    -0.023 NA
ATOM     27  N   UNL     1      -3.586  10.969   1.893  0.00  0.00    -0.044 NA
ATOM     28  N   UNL     1      -3.184  10.886   0.670  0.00  0.00    -0.226 N 
BRANCH  28  29
ATOM     29  C   UNL     1      -3.792  11.540  -0.491  0.00  0.00    +0.182 C 
BRANCH  29  30
ATOM     30  C   UNL     1      -5.035  10.790  -0.896  0.00  0.00    -0.026 A 
ATOM     31  C   UNL     1      -4.979   9.862  -1.920  0.00  0.00    +0.008 A 
ATOM     32  C   UNL     1      -6.117   9.170  -2.289  0.00  0.00    +0.038 A 
ATOM     33  C   UNL     1      -7.316   9.414  -1.640  0.00  0.00    +0.123 A 
ATOM     34  C   UNL     1      -7.371  10.347  -0.618  0.00  0.00    +0.038 A 
ATOM     35  C   UNL     1      -6.231  11.034  -0.248  0.00  0.00    +0.008 A 
ATOM     36  F   UNL     1      -8.430   8.742  -2.003  0.00  0.00    -0.205 F 
ENDBRANCH  29  30
ENDBRANCH  28  29
ENDBRANCH  23  24
BRANCH  23  37
ATOM     37  C   UNL     1      -0.103  10.644  -0.693  0.00  0.00    -0.024 C 
ATOM     38  C   UNL     1       0.723  10.243  -1.918  0.00  0.00    +0.006 C 
ATOM     39  C   UNL     1      -0.621  12.072  -0.873  0.00  0.00    +0.006 C 
ENDBRANCH  23  37
ENDBRANCH   1  23
TORSDOF 11
