REMARK  Name = ZINC39672865
REMARK  8 active torsions:
REMARK  status: ('A' for Active; 'I' for Inactive)
REMARK    1  A    between atoms: C_1  and  C_2
REMARK    2  A    between atoms: C_2  and  C_4
REMARK    3  A    between atoms: C_2  and  O_33
REMARK    4  A    between atoms: C_8  and  C_17
REMARK    5  A    between atoms: N_19  and  C_20
REMARK    6  A    between atoms: C_20  and  C_21
REMARK    7  A    between atoms: C_21  and  N_27
REMARK    8  A    between atoms: O_33  and  C_34
REMARK                            x       y       z     vdW  Elec       q    Type
REMARK                         _______ _______ _______ _____ _____    ______ ____
ROOT
ATOM      1  C   UNL     1       1.671  -0.450   2.303  0.00  0.00    +0.256 C 
ATOM      2  O   UNL     1       2.775  -0.943   2.405  0.00  0.00    -0.272 OA
ATOM      3  N   UNL     1       0.948  -0.182   3.409  0.00  0.00    -0.297 N 
ATOM      4  C   UNL     1      -0.409   0.408   3.485  0.00  0.00    +0.121 C 
ATOM      5  C   UNL     1      -1.109  -0.370   4.622  0.00  0.00    +0.100 C 
ATOM      6  C   UNL     1       0.038  -0.902   5.497  0.00  0.00    -0.004 C 
ATOM      7  C   UNL     1       1.329  -0.416   4.822  0.00  0.00    +0.115 C 
ATOM      8  C   UNL     1      -0.068  -0.335   6.909  0.00  0.00    -0.010 C 
ATOM      9  C   UNL     1       1.049  -0.924   7.776  0.00  0.00    -0.082 C 
ATOM     10  N   UNL     1       0.929  -2.387   7.805  0.00  0.00    +0.379 N 
ATOM     11  C   UNL     1       1.124  -2.932   6.456  0.00  0.00    -0.082 C 
ATOM     12  C   UNL     1       0.010  -2.428   5.533  0.00  0.00    -0.010 C 
ATOM     13  H   UNL     1       1.628  -2.768   8.424  0.00  0.00    -0.086 HD
ATOM     14  H   UNL     1       0.011  -2.641   8.139  0.00  0.00    -0.086 HD
ENDROOT
BRANCH   5  15
ATOM     15  C   UNL     1      -1.996   0.551   5.419  0.00  0.00    +0.218 C 
ATOM     16  O   UNL     1      -1.737   1.734   5.487  0.00  0.00    -0.275 OA
ATOM     17  N   UNL     1      -3.077   0.061   6.057  0.00  0.00    -0.313 N 
ATOM     18  H   UNL     1      -3.285  -0.885   6.003  0.00  0.00    +0.149 HD
BRANCH  17  19
ATOM     19  C   UNL     1      -3.940   0.957   6.832  0.00  0.00    +0.126 C 
BRANCH  19  20
ATOM     20  C   UNL     1      -5.012   0.136   7.551  0.00  0.00    +0.038 C 
ATOM     21  C   UNL     1      -5.976   1.079   8.275  0.00  0.00    +0.024 C 
ATOM     22  C   UNL     1      -5.202   1.914   9.296  0.00  0.00    +0.002 C 
ATOM     23  C   UNL     1      -4.536   0.986  10.315  0.00  0.00    +0.000 C 
ATOM     24  C   UNL     1      -3.572   0.043   9.591  0.00  0.00    +0.002 C 
ATOM     25  C   UNL     1      -4.346  -0.792   8.569  0.00  0.00    +0.024 C 
BRANCH  20  26
ATOM     26  N   UNL     1      -5.755  -0.666   6.571  0.00  0.00    -0.291 NA
ATOM     27  C   UNL     1      -6.345   0.188   5.529  0.00  0.00    +0.113 C 
ATOM     28  C   UNL     1      -7.057  -0.691   4.498  0.00  0.00    +0.175 C 
ATOM     29  O   UNL     1      -8.039  -1.493   5.160  0.00  0.00    -0.377 OA
ATOM     30  C   UNL     1      -7.499  -2.338   6.180  0.00  0.00    +0.175 C 
ATOM     31  C   UNL     1      -6.791  -1.476   7.228  0.00  0.00    +0.113 C 
ENDBRANCH  20  26
ENDBRANCH  19  20
ENDBRANCH  17  19
ENDBRANCH   5  15
BRANCH   1  33
ATOM     32  C   UNL     1       0.938   1.375   0.794  0.00  0.00    +0.062 C 
ATOM     33  C   UNL     1       1.109  -0.138   0.941  0.00  0.00    +0.256 C 
BRANCH  33  34
ATOM     34  O   UNL     1       2.004  -0.616  -0.065  0.00  0.00    -0.480 OA
BRANCH  34  35
ATOM     35  C   UNL     1       1.469  -0.902  -1.282  0.00  0.00    +0.122 A 
ATOM     36  C   UNL     1       2.256  -1.477  -2.268  0.00  0.00    +0.045 A 
ATOM     37  C   UNL     1       1.710  -1.768  -3.504  0.00  0.00    +0.004 A 
ATOM     38  C   UNL     1       0.381  -1.486  -3.757  0.00  0.00    +0.000 A 
ATOM     39  C   UNL     1      -0.406  -0.912  -2.775  0.00  0.00    +0.004 A 
ATOM     40  C   UNL     1       0.134  -0.625  -1.536  0.00  0.00    +0.045 A 
ENDBRANCH  34  35
ENDBRANCH  33  34
ENDBRANCH   1  33
TORSDOF 7
