REMARK  Name = ZINC64428111
REMARK  8 active torsions:
REMARK  status: ('A' for Active; 'I' for Inactive)
REMARK    1  A    between atoms: C_1  and  C_2
REMARK    2  A    between atoms: C_4  and  C_31
REMARK    3  A    between atoms: C_11  and  O_15
REMARK    4  A    between atoms: O_15  and  C_16
REMARK    5  A    between atoms: C_16  and  C_18
REMARK    6  A    between atoms: C_18  and  C_20
REMARK    7  A    between atoms: C_18  and  N_30
REMARK    8  A    between atoms: C_20  and  C_21
REMARK                            x       y       z     vdW  Elec       q    Type
REMARK                         _______ _______ _______ _____ _____    ______ ____
ROOT
ATOM      1  C   UNL     1       0.248   1.540  -0.078  0.00  0.00    +0.053 C 
ATOM      2  C   UNL     1       0.164   0.013  -0.048  0.00  0.00    +0.185 C 
ATOM      3  C   UNL     1       0.804  -0.561  -1.320  0.00  0.00    +0.131 C 
ATOM      4  C   UNL     1       0.722  -2.074  -1.221  0.00  0.00    +0.178 C 
ATOM      5  O   UNL     1       0.454  -2.763  -2.183  0.00  0.00    -0.291 OA
ATOM      6  C   UNL     1       0.986  -2.661   0.102  0.00  0.00    +0.060 A 
ATOM      7  C   UNL     1       1.183  -4.037   0.245  0.00  0.00    +0.018 A 
ATOM      8  C   UNL     1       1.421  -4.563   1.484  0.00  0.00    +0.047 A 
ATOM      9  C   UNL     1       1.466  -3.735   2.602  0.00  0.00    +0.135 A 
ATOM     10  C   UNL     1       1.275  -2.367   2.474  0.00  0.00    +0.092 A 
ATOM     11  C   UNL     1       1.037  -1.816   1.225  0.00  0.00    +0.135 A 
ATOM     12  O   UNL     1       0.862  -0.480   1.096  0.00  0.00    -0.487 OA
ENDROOT
BRANCH   3  13
ATOM     13  C   UNL     1       2.244  -0.128  -1.411  0.00  0.00    -0.030 A 
ATOM     14  C   UNL     1       3.134  -0.481  -0.413  0.00  0.00    +0.008 A 
ATOM     15  C   UNL     1       4.458  -0.087  -0.489  0.00  0.00    +0.050 A 
ATOM     16  C   UNL     1       4.890   0.663  -1.570  0.00  0.00    +0.162 A 
ATOM     17  C   UNL     1       3.997   1.017  -2.572  0.00  0.00    +0.162 A 
ATOM     18  C   UNL     1       2.673   0.617  -2.494  0.00  0.00    +0.054 A 
ATOM     19  O   UNL     1       4.433   1.756  -3.633  0.00  0.00    -0.488 OA
ATOM     20  C   UNL     1       4.807   3.104  -3.345  0.00  0.00    +0.232 C 
ATOM     21  C   UNL     1       6.244   3.171  -2.851  0.00  0.00    +0.082 C 
ATOM     22  C   UNL     1       6.433   2.459  -1.521  0.00  0.00    +0.232 C 
ATOM     23  O   UNL     1       6.193   1.056  -1.659  0.00  0.00    -0.488 OA
ENDBRANCH   3  13
BRANCH   9  24
ATOM     24  O   UNL     1       1.700  -4.270   3.827  0.00  0.00    -0.425 OA
BRANCH  24  25
ATOM     25  C   UNL     1       2.923  -4.763   4.077  0.00  0.00    +0.330 C 
ATOM     26  O   UNL     1       3.806  -4.630   3.263  0.00  0.00    -0.249 OA
BRANCH  25  27
ATOM     27  C   UNL     1       3.195  -5.484   5.372  0.00  0.00    +0.165 C 
BRANCH  27  28
ATOM     28  N   UNL     1       4.642  -5.501   5.629  0.00  0.00    -0.318 NA
ATOM     29  H   UNL     1       5.135  -5.973   4.886  0.00  0.00    +0.119 HD
ATOM     30  H   UNL     1       4.996  -4.565   5.761  0.00  0.00    +0.119 HD
ENDBRANCH  27  28
BRANCH  27  31
ATOM     31  C   UNL     1       2.678  -6.920   5.275  0.00  0.00    +0.063 C 
BRANCH  31  32
ATOM     32  C   UNL     1       2.838  -7.603   6.609  0.00  0.00    -0.040 C 
ATOM     33  C   UNL     1       1.904  -7.721   7.580  0.00  0.00    -0.001 A 
ATOM     34  C   UNL     1       0.512  -7.265   7.681  0.00  0.00    +0.010 A 
ATOM     35  C   UNL     1      -0.188  -7.538   8.806  0.00  0.00    +0.001 A 
ATOM     36  C   UNL     1       0.381  -8.244   9.874  0.00  0.00    +0.002 A 
ATOM     37  C   UNL     1       1.653  -8.696   9.855  0.00  0.00    +0.026 A 
ATOM     38  C   UNL     1       2.481  -8.465   8.722  0.00  0.00    +0.043 A 
ATOM     39  N   UNL     1       3.724  -8.794   8.467  0.00  0.00    -0.380 N 
ATOM     40  C   UNL     1       4.074  -8.301   7.131  0.00  0.00    +0.144 C 
ATOM     41  H   UNL     1       4.313  -9.286   9.062  0.00  0.00    +0.160 HD
ENDBRANCH  31  32
ENDBRANCH  27  31
ENDBRANCH  25  27
ENDBRANCH  24  25
ENDBRANCH   9  24
TORSDOF 7
