REMARK  Name = ZINC06147999
REMARK  12 active torsions:
REMARK  status: ('A' for Active; 'I' for Inactive)
REMARK    1  A    between atoms: C_1  and  C_2
REMARK    2  A    between atoms: C_2  and  O_3
REMARK    3  A    between atoms: O_3  and  C_4
REMARK    4  A    between atoms: C_4  and  C_6
REMARK    5  A    between atoms: C_8  and  C_20
REMARK    6  A    between atoms: C_14  and  C_15
REMARK    7  A    between atoms: C_14  and  O_19
REMARK    8  A    between atoms: C_23  and  O_28
REMARK    9  A    between atoms: C_24  and  O_26
REMARK   10  A    between atoms: O_26  and  C_27
REMARK   11  A    between atoms: O_28  and  C_29
REMARK   12  A    between atoms: C_29  and  C_30
REMARK                            x       y       z     vdW  Elec       q    Type
REMARK                         _______ _______ _______ _____ _____    ______ ____
ROOT
ATOM      1  C   UNL     1       0.025  -8.463  -2.842  0.00  0.00    +0.181 C 
ATOM      2  C   UNL     1       0.720  -7.253  -3.475  0.00  0.00    +0.121 C 
ATOM      3  N   UNL     1       1.276  -6.411  -2.414  0.00  0.00    -0.319 N 
ATOM      4  C   UNL     1       1.670  -6.933  -1.243  0.00  0.00    +0.133 C 
ATOM      5  S   UNL     1       2.325  -5.888  -0.056  0.00  0.00    -0.019 S 
ATOM      6  N   UNL     1       1.570  -8.241  -0.965  0.00  0.00    -0.291 N 
ATOM      7  C   UNL     1       1.030  -9.188  -1.942  0.00  0.00    +0.244 C 
ATOM      8  H   UNL     1       1.363  -5.456  -2.562  0.00  0.00    +0.148 HD
ATOM      9  H   UNL     1       1.862  -8.566  -0.099  0.00  0.00    +0.151 HD
ENDROOT
BRANCH   2  10
ATOM     10  C   UNL     1      -0.280  -6.459  -4.276  0.00  0.00    -0.023 A 
ATOM     11  C   UNL     1      -1.070  -5.513  -3.650  0.00  0.00    +0.009 A 
ATOM     12  C   UNL     1      -1.984  -4.779  -4.381  0.00  0.00    +0.050 A 
ATOM     13  C   UNL     1      -2.118  -4.998  -5.743  0.00  0.00    +0.162 A 
ATOM     14  C   UNL     1      -1.323  -5.950  -6.373  0.00  0.00    +0.162 A 
ATOM     15  C   UNL     1      -0.404  -6.679  -5.635  0.00  0.00    +0.055 A 
BRANCH  14  16
ATOM     16  O   UNL     1      -1.447  -6.165  -7.710  0.00  0.00    -0.491 OA
ATOM     17  C   UNL     1      -0.598  -7.157  -8.289  0.00  0.00    +0.277 C 
ENDBRANCH  14  16
BRANCH  13  18
ATOM     18  O   UNL     1      -3.021  -4.280  -6.463  0.00  0.00    -0.484 OA
BRANCH  18  19
ATOM     19  C   UNL     1      -3.804  -3.320  -5.750  0.00  0.00    +0.264 C 
BRANCH  19  20
ATOM     20  C   UNL     1      -4.741  -2.627  -6.705  0.00  0.00    -0.010 A 
ATOM     21  C   UNL     1      -6.003  -3.144  -6.932  0.00  0.00    +0.008 A 
ATOM     22  C   UNL     1      -6.864  -2.509  -7.808  0.00  0.00    +0.020 A 
ATOM     23  C   UNL     1      -6.462  -1.355  -8.457  0.00  0.00    +0.041 A 
ATOM     24  C   UNL     1      -5.199  -0.839  -8.230  0.00  0.00    +0.020 A 
ATOM     25  C   UNL     1      -4.339  -1.475  -7.355  0.00  0.00    +0.008 A 
ATOM     26 CL   UNL     1      -7.542  -0.557  -9.557  0.00  0.00    -0.084 Cl
ENDBRANCH  19  20
ENDBRANCH  18  19
ENDBRANCH  13  18
ENDBRANCH   2  10
BRANCH   7  27
ATOM     27  C   UNL     1       2.170  -9.748  -2.796  0.00  0.00    +0.436 C 
ATOM     28  F   UNL     1       3.020 -10.517  -1.994  0.00  0.00    -0.166 F 
ATOM     29  F   UNL     1       1.641 -10.547  -3.814  0.00  0.00    -0.166 F 
ATOM     30  F   UNL     1       2.892  -8.691  -3.360  0.00  0.00    -0.166 F 
ENDBRANCH   7  27
BRANCH   1  31
ATOM     31  C   UNL     1      -1.150  -7.999  -2.019  0.00  0.00    +0.317 C 
ATOM     32  O   UNL     1      -0.972  -7.283  -1.063  0.00  0.00    -0.250 OA
BRANCH  31  33
ATOM     33  O   UNL     1      -2.393  -8.382  -2.349  0.00  0.00    -0.465 OA
BRANCH  33  35
ATOM     34  C   UNL     1      -4.808  -8.433  -2.039  0.00  0.00    +0.048 C 
ATOM     35  C   UNL     1      -3.476  -7.897  -1.512  0.00  0.00    +0.229 C 
ENDBRANCH  33  35
ENDBRANCH  31  33
ENDBRANCH   1  31
BRANCH   7  36
ATOM     36  O   UNL     1       0.376 -10.259  -1.258  0.00  0.00    -0.364 OA
ATOM     37  H   UNL     1       0.955 -10.759  -0.666  0.00  0.00    +0.212 HD
ENDBRANCH   7  36
TORSDOF 10
