REMARK  Name = ZINC63617087
REMARK  13 active torsions:
REMARK  status: ('A' for Active; 'I' for Inactive)
REMARK    1  A    between atoms: C_1  and  C_2
REMARK    2  A    between atoms: C_2  and  O_3
REMARK    3  A    between atoms: O_3  and  C_4
REMARK    4  A    between atoms: C_4  and  C_5
REMARK    5  A    between atoms: C_5  and  C_6
REMARK    6  A    between atoms: C_6  and  N_7
REMARK    7  A    between atoms: C_8  and  C_10
REMARK    8  A    between atoms: C_10  and  C_12
REMARK    9  A    between atoms: C_10  and  N_18
REMARK   10  A    between atoms: N_18  and  C_19
REMARK   11  A    between atoms: C_19  and  C_20
REMARK   12  A    between atoms: C_29  and  C_31
REMARK   13  A    between atoms: C_31  and  C_32
REMARK                            x       y       z     vdW  Elec       q    Type
REMARK                         _______ _______ _______ _____ _____    ______ ____
ROOT
ATOM      1  N   UNL     1       3.188  -7.155  -5.707  0.00  0.00    -0.281 N 
ATOM      2  C   UNL     1       4.534  -7.138  -5.757  0.00  0.00    +0.221 C 
ATOM      3  O   UNL     1       5.146  -6.197  -5.298  0.00  0.00    -0.275 OA
ENDROOT
BRANCH   1   4
ATOM      4  C   UNL     1       2.470  -6.136  -4.936  0.00  0.00    +0.192 C 
BRANCH   4   5
ATOM      5  C   UNL     1       2.654  -4.791  -5.589  0.00  0.00    -0.018 A 
ATOM      6  C   UNL     1       2.503  -4.660  -6.957  0.00  0.00    +0.006 A 
ATOM      7  C   UNL     1       2.671  -3.426  -7.556  0.00  0.00    +0.000 A 
ATOM      8  C   UNL     1       2.990  -2.322  -6.787  0.00  0.00    +0.000 A 
ATOM      9  C   UNL     1       3.140  -2.453  -5.419  0.00  0.00    +0.000 A 
ATOM     10  C   UNL     1       2.968  -3.686  -4.819  0.00  0.00    +0.006 A 
ENDBRANCH   4   5
BRANCH   4  12
ATOM     11  N   UNL     1       0.289  -6.244  -3.775  0.00  0.00    -0.313 N 
ATOM     12  C   UNL     1       1.003  -6.479  -4.894  0.00  0.00    +0.238 C 
ATOM     13  O   UNL     1       0.466  -6.965  -5.866  0.00  0.00    -0.273 OA
ATOM     14  H   UNL     1       0.719  -5.855  -2.998  0.00  0.00    +0.149 HD
BRANCH  11  15
ATOM     15  C   UNL     1      -1.137  -6.577  -3.734  0.00  0.00    +0.106 C 
BRANCH  15  16
ATOM     16  C   UNL     1      -1.706  -6.214  -2.361  0.00  0.00    +0.047 C 
BRANCH  16  17
ATOM     17  C   UNL     1      -3.196  -6.561  -2.318  0.00  0.00    +0.161 C 
BRANCH  17  18
ATOM     18  O   UNL     1      -3.727  -6.222  -1.036  0.00  0.00    -0.380 OA
BRANCH  18  20
ATOM     19  C   UNL     1      -5.578  -6.107   0.514  0.00  0.00    +0.034 C 
ATOM     20  C   UNL     1      -5.120  -6.508  -0.890  0.00  0.00    +0.156 C 
ENDBRANCH  18  20
ENDBRANCH  17  18
ENDBRANCH  16  17
ENDBRANCH  15  16
ENDBRANCH  11  15
ENDBRANCH   4  12
ENDBRANCH   1   4
BRANCH   1  21
ATOM     21  C   UNL     1       2.441  -8.193  -6.422  0.00  0.00    +0.144 C 
BRANCH  21  22
ATOM     22  C   UNL     1       2.107  -9.316  -5.475  0.00  0.00    -0.026 A 
ATOM     23  C   UNL     1       2.917 -10.435  -5.419  0.00  0.00    +0.009 A 
ATOM     24  C   UNL     1       2.615 -11.468  -4.551  0.00  0.00    +0.050 A 
ATOM     25  C   UNL     1       1.499 -11.383  -3.734  0.00  0.00    +0.166 A 
ATOM     26  C   UNL     1       0.684 -10.256  -3.790  0.00  0.00    +0.167 A 
ATOM     27  C   UNL     1       0.995  -9.222  -4.659  0.00  0.00    +0.054 A 
ATOM     28  O   UNL     1      -0.338 -10.412  -2.899  0.00  0.00    -0.453 OA
ATOM     29  C   UNL     1      -0.370 -11.819  -2.593  0.00  0.00    +0.466 C 
ATOM     30  O   UNL     1       0.988 -12.246  -2.808  0.00  0.00    -0.453 OA
ENDBRANCH  21  22
ENDBRANCH   1  21
BRANCH   2  31
ATOM     31  C   UNL     1       5.279  -8.288  -6.385  0.00  0.00    +0.129 C 
BRANCH  31  32
ATOM     32  C   UNL     1       6.750  -7.963  -6.441  0.00  0.00    -0.033 C 
ATOM     33  C   UNL     1       7.696  -8.318  -5.543  0.00  0.00    -0.001 A 
ATOM     34  C   UNL     1       7.642  -9.084  -4.292  0.00  0.00    +0.010 A 
ATOM     35  C   UNL     1       8.783  -9.280  -3.593  0.00  0.00    +0.001 A 
ATOM     36  C   UNL     1      10.013  -8.771  -4.032  0.00  0.00    +0.002 A 
ATOM     37  C   UNL     1      10.143  -8.058  -5.171  0.00  0.00    +0.026 A 
ATOM     38  C   UNL     1       9.007  -7.792  -5.985  0.00  0.00    +0.043 A 
ATOM     39  N   UNL     1       8.877  -7.136  -7.113  0.00  0.00    -0.380 N 
ATOM     40  C   UNL     1       7.467  -7.178  -7.517  0.00  0.00    +0.145 C 
ATOM     41  H   UNL     1       9.593  -6.700  -7.601  0.00  0.00    +0.160 HD
ENDBRANCH  31  32
ENDBRANCH   2  31
TORSDOF 12
