REMARK  Name = ZINC60100723
REMARK  10 active torsions:
REMARK  status: ('A' for Active; 'I' for Inactive)
REMARK    1  A    between atoms: C_1  and  C_2
REMARK    2  A    between atoms: C_4  and  O_9
REMARK    3  A    between atoms: O_9  and  C_10
REMARK    4  A    between atoms: C_10  and  C_11
REMARK    5  A    between atoms: C_14  and  C_17
REMARK    6  A    between atoms: N_19  and  N_20
REMARK    7  A    between atoms: C_21  and  C_23
REMARK    8  A    between atoms: C_23  and  C_24
REMARK    9  A    between atoms: C_24  and  C_25
REMARK   10  A    between atoms: C_26  and  C_31
REMARK                            x       y       z     vdW  Elec       q    Type
REMARK                         _______ _______ _______ _____ _____    ______ ____
ROOT
ATOM      1  C   UNL     1       0.050  -6.353  -7.644  0.00  0.00    +0.260 C 
ATOM      2  O   UNL     1      -1.002  -6.593  -8.203  0.00  0.00    -0.269 OA
ATOM      3  N   UNL     1       1.217  -6.597  -8.272  0.00  0.00    -0.230 N 
ATOM      4  H   UNL     1       2.057  -6.406  -7.826  0.00  0.00    +0.173 HD
ENDROOT
BRANCH   1   8
ATOM      5  C   UNL     1       0.048  -4.746  -3.712  0.00  0.00    -0.010 A 
ATOM      6  C   UNL     1      -1.152  -5.018  -4.346  0.00  0.00    +0.008 A 
ATOM      7  C   UNL     1      -1.158  -5.540  -5.623  0.00  0.00    +0.013 A 
ATOM      8  C   UNL     1       0.049  -5.794  -6.276  0.00  0.00    +0.038 A 
ATOM      9  C   UNL     1       1.256  -5.518  -5.631  0.00  0.00    +0.013 A 
ATOM     10  C   UNL     1       1.248  -4.990  -4.356  0.00  0.00    +0.008 A 
BRANCH   5  11
ATOM     11  C   UNL     1       0.047  -4.176  -2.317  0.00  0.00    +0.264 C 
BRANCH  11  12
ATOM     12  O   UNL     1       0.028  -2.749  -2.386  0.00  0.00    -0.487 OA
BRANCH  12  16
ATOM     13  C   UNL     1      -0.018   1.503   0.010  0.00  0.00    +0.045 C 
ATOM     14  C   UNL     1       0.002  -0.004   0.002  0.00  0.00    -0.029 A 
ATOM     15  C   UNL     1       0.006  -0.688  -1.199  0.00  0.00    +0.050 A 
ATOM     16  C   UNL     1       0.025  -2.075  -1.206  0.00  0.00    +0.121 A 
ATOM     17  C   UNL     1       0.040  -2.773  -0.007  0.00  0.00    +0.047 A 
ATOM     18  C   UNL     1       0.036  -2.086   1.192  0.00  0.00    +0.024 A 
ATOM     19  C   UNL     1       0.023  -0.702   1.196  0.00  0.00    +0.044 A 
ATOM     20 CL   UNL     1       0.025   0.160   2.704  0.00  0.00    -0.083 Cl
ENDBRANCH  12  16
ENDBRANCH  11  12
ENDBRANCH   5  11
ENDBRANCH   1   8
BRANCH   3  21
ATOM     21  N   UNL     1       1.218  -7.128  -9.569  0.00  0.00    -0.234 N 
ATOM     22  C   UNL     1       2.385  -7.372 -10.196  0.00  0.00    +0.229 C 
ATOM     23  O   UNL     1       3.435  -7.132  -9.639  0.00  0.00    -0.274 OA
ATOM     24  H   UNL     1       0.378  -7.319 -10.015  0.00  0.00    +0.173 HD
BRANCH  22  25
ATOM     25  C   UNL     1       2.386  -7.942 -11.591  0.00  0.00    +0.102 C 
BRANCH  25  26
ATOM     26  C   UNL     1       3.829  -8.122 -12.068  0.00  0.00    +0.051 C 
BRANCH  26  27
ATOM     27  C   UNL     1       3.829  -8.692 -13.463  0.00  0.00    +0.034 A 
ATOM     28  C   UNL     1       3.835 -10.057 -13.796  0.00  0.00    +0.085 A 
ATOM     29  N   UNL     1       3.833 -10.157 -15.096  0.00  0.00    -0.082 NA
ATOM     30  O   UNL     1       3.826  -8.848 -15.634  0.00  0.00    -0.343 OA
ATOM     31  C   UNL     1       3.818  -7.981 -14.610  0.00  0.00    +0.230 A 
ATOM     32 CL   UNL     1       3.801  -6.250 -14.737  0.00  0.00    -0.040 Cl
ATOM     33  C   UNL     1       3.843 -11.206 -12.820  0.00  0.00    +0.069 C 
ENDBRANCH  26  27
ENDBRANCH  25  26
ENDBRANCH  22  25
ENDBRANCH   3  21
TORSDOF 8
