REMARK  Name = ZINC12482053
REMARK  12 active torsions:
REMARK  status: ('A' for Active; 'I' for Inactive)
REMARK    1  A    between atoms: C_1  and  N_68
REMARK    2  A    between atoms: C_2  and  C_3
REMARK    3  A    between atoms: C_2  and  N_68
REMARK    4  A    between atoms: C_9  and  C_10
REMARK    5  A    between atoms: C_9  and  N_68
REMARK    6  A    between atoms: C_12  and  C_15
REMARK    7  A    between atoms: C_15  and  C_16
REMARK    8  A    between atoms: C_21  and  C_23
REMARK    9  A    between atoms: C_23  and  C_24
REMARK   10  A    between atoms: N_26  and  C_27
REMARK   11  A    between atoms: N_26  and  C_28
REMARK   12  A    between atoms: C_28  and  C_29
REMARK                            x       y       z     vdW  Elec       q    Type
REMARK                         _______ _______ _______ _____ _____    ______ ____
ROOT
ATOM      1  C   UNL     1      -0.013   1.086   0.008  0.00  0.00    -0.019 C 
ATOM      2  C   UNL     1      -0.731   1.580   1.266  0.00  0.00    -0.079 C 
ATOM      3  C   UNL     1      -1.519   3.558   0.109  0.00  0.00    -0.082 C 
ATOM      4  C   UNL     1      -0.824   3.123  -1.184  0.00  0.00    -0.015 C 
ATOM      5  C   UNL     1      -0.755   1.594  -1.231  0.00  0.00    -0.002 C 
ATOM      6  N   UNL     1      -0.764   3.055   1.272  0.00  0.00    +0.379 N 
ATOM      7  H   UNL     1       0.197   3.415   1.234  0.00  0.00    -0.086 HD
ATOM      8  H   UNL     1      -1.217   3.379   2.135  0.00  0.00    -0.086 HD
ENDROOT
BRANCH   1   9
ATOM      9  C   UNL     1       1.422   1.616  -0.003  0.00  0.00    +0.061 C 
BRANCH   9  12
ATOM     10  C   UNL     1       3.673  -0.013   2.369  0.00  0.00    +0.121 A 
ATOM     11  C   UNL     1       3.405   0.304   1.080  0.00  0.00    +0.069 A 
ATOM     12  C   UNL     1       2.187   1.020   1.151  0.00  0.00    +0.084 A 
ATOM     13  N   UNL     1       1.861   1.066   2.410  0.00  0.00    -0.083 NA
ATOM     14  O   UNL     1       2.670   0.493   3.101  0.00  0.00    -0.361 OA
BRANCH  10  15
ATOM     15  C   UNL     1       4.863  -0.784   2.880  0.00  0.00    -0.000 C 
BRANCH  15  17
ATOM     16  C   UNL     1       5.595   1.022   4.316  0.00  0.00    -0.095 C 
ATOM     17  N   UNL     1       5.958   0.165   3.168  0.00  0.00    +0.385 N 
ATOM     18  H   UNL     1       6.111   0.759   2.344  0.00  0.00    -0.081 HD
BRANCH  17  19
ATOM     19  C   UNL     1       7.203  -0.574   3.464  0.00  0.00    -0.043 C 
BRANCH  19  20
ATOM     20  C   UNL     1       8.345   0.406   3.535  0.00  0.00    -0.064 A 
ATOM     21  C   UNL     1       9.056   0.724   2.393  0.00  0.00    +0.002 A 
ATOM     22  C   UNL     1      10.101   1.627   2.458  0.00  0.00    +0.000 A 
ATOM     23  C   UNL     1      10.441   2.204   3.667  0.00  0.00    +0.000 A 
ATOM     24  C   UNL     1       9.734   1.882   4.810  0.00  0.00    +0.000 A 
ATOM     25  C   UNL     1       8.686   0.983   4.744  0.00  0.00    +0.002 A 
ENDBRANCH  19  20
ENDBRANCH  17  19
ENDBRANCH  15  17
ENDBRANCH  10  15
ENDBRANCH   9  12
ENDBRANCH   1   9
BRANCH   5  26
ATOM     26  C   UNL     1      -0.007   1.154  -2.491  0.00  0.00    +0.099 C 
BRANCH  26  27
ATOM     27  C   UNL     1      -0.801   1.548  -3.710  0.00  0.00    +0.216 C 
ATOM     28  O   UNL     1      -1.861   2.123  -3.583  0.00  0.00    -0.276 OA
ATOM     29  N   UNL     1      -0.333   1.260  -4.941  0.00  0.00    -0.300 N 
ATOM     30  C   UNL     1       0.947   0.564  -5.094  0.00  0.00    +0.132 C 
BRANCH  29  31
ATOM     31  C   UNL     1      -1.105   1.643  -6.126  0.00  0.00    +0.142 C 
BRANCH  31  32
ATOM     32  C   UNL     1      -0.695   3.024  -6.568  0.00  0.00    -0.030 A 
ATOM     33  C   UNL     1      -1.355   4.133  -6.072  0.00  0.00    +0.005 A 
ATOM     34  C   UNL     1      -0.976   5.400  -6.474  0.00  0.00    +0.000 A 
ATOM     35  C   UNL     1       0.056   5.557  -7.380  0.00  0.00    +0.000 A 
ATOM     36  C   UNL     1       0.713   4.448  -7.880  0.00  0.00    +0.000 A 
ATOM     37  C   UNL     1       0.337   3.181  -7.474  0.00  0.00    +0.005 A 
ENDBRANCH  31  32
ENDBRANCH  29  31
ENDBRANCH  26  27
ENDBRANCH   5  26
TORSDOF 10
