REMARK  Name = ZINC05448797
REMARK  5 active torsions:
REMARK  status: ('A' for Active; 'I' for Inactive)
REMARK    1  A    between atoms: C_11  and  C_12
REMARK    2  A    between atoms: C_11  and  C_14
REMARK    3  A    between atoms: C_14  and  C_16
REMARK    4  A    between atoms: C_16  and  S_17
REMARK    5  A    between atoms: S_17  and  C_18
REMARK                            x       y       z     vdW  Elec       q    Type
REMARK                         _______ _______ _______ _____ _____    ______ ____
ROOT
ATOM      1  C   UNL     1      -0.017   1.375   0.010  0.00  0.00    +0.001 A 
ATOM      2  C   UNL     1       1.168   2.096   0.002  0.00  0.00    +0.002 A 
ATOM      3  C   UNL     1       2.387   1.446  -0.013  0.00  0.00    +0.024 A 
ATOM      4  C   UNL     1       2.424   0.063  -0.020  0.00  0.00    +0.044 A 
ATOM      5  C   UNL     1       1.224  -0.673  -0.013  0.00  0.00    +0.058 A 
ATOM      6  C   UNL     1       0.002  -0.004   0.002  0.00  0.00    +0.015 A 
ATOM      7  C   UNL     1       1.306  -2.145  -0.024  0.00  0.00    +0.251 C 
ATOM      8  O   UNL     1       0.319  -2.824  -0.229  0.00  0.00    -0.270 OA
ATOM      9  N   UNL     1       2.513  -2.719   0.199  0.00  0.00    -0.268 N 
ATOM     10  C   UNL     1       3.599  -1.925   0.460  0.00  0.00    +0.116 C 
ATOM     11  C   UNL     1       4.670  -2.413   1.219  0.00  0.00    +0.131 C 
ATOM     12  N   UNL     1       3.621  -0.646  -0.033  0.00  0.00    -0.301 N 
ATOM     13  H   UNL     1       2.607  -3.684   0.175  0.00  0.00    +0.156 HD
ATOM     14  H   UNL     1       4.437  -0.252  -0.378  0.00  0.00    +0.153 HD
ENDROOT
BRANCH  11  15
ATOM     15  C   UNL     1       4.636  -3.751   1.729  0.00  0.00    +0.106 C 
ATOM     16  N   UNL     1       4.609  -4.812   2.134  0.00  0.00    -0.191 NA
ENDBRANCH  11  15
BRANCH  11  17
ATOM     17  C   UNL     1       5.781  -1.588   1.481  0.00  0.00    +0.186 C 
ATOM     18  O   UNL     1       5.810  -0.453   1.048  0.00  0.00    -0.290 OA
BRANCH  17  19
ATOM     19  C   UNL     1       6.933  -2.113   2.297  0.00  0.00    +0.154 C 
BRANCH  19  20
ATOM     20  S   UNL     1       8.198  -0.822   2.457  0.00  0.00    -0.117 S 
BRANCH  20  21
ATOM     21  C   UNL     1       9.461  -1.581   3.424  0.00  0.00    +0.008 A 
ATOM     22  C   UNL     1       9.313  -2.893   3.857  0.00  0.00    +0.016 A 
ATOM     23  C   UNL     1      10.305  -3.484   4.614  0.00  0.00    +0.021 A 
ATOM     24  C   UNL     1      11.445  -2.771   4.943  0.00  0.00    +0.041 A 
ATOM     25  C   UNL     1      11.595  -1.464   4.513  0.00  0.00    +0.021 A 
ATOM     26  C   UNL     1      10.610  -0.869   3.750  0.00  0.00    +0.016 A 
ATOM     27 CL   UNL     1      12.689  -3.518   5.896  0.00  0.00    -0.084 Cl
ENDBRANCH  20  21
ENDBRANCH  19  20
ENDBRANCH  17  19
ENDBRANCH  11  17
TORSDOF 5
