REMARK  Name = ZINC00803814
REMARK  7 active torsions:
REMARK  status: ('A' for Active; 'I' for Inactive)
REMARK    1  A    between atoms: C_1  and  C_2
REMARK    2  A    between atoms: C_5  and  S_8
REMARK    3  A    between atoms: S_8  and  C_9
REMARK    4  A    between atoms: C_9  and  C_10
REMARK    5  A    between atoms: C_17  and  N_33
REMARK    6  A    between atoms: C_18  and  C_31
REMARK    7  A    between atoms: C_19  and  C_21
REMARK                            x       y       z     vdW  Elec       q    Type
REMARK                         _______ _______ _______ _____ _____    ______ ____
ROOT
ATOM      1  C   UNL     1       0.097  -6.482   1.870  0.00  0.00    +0.054 A 
ATOM      2  C   UNL     1      -0.976  -7.285   1.942  0.00  0.00    +0.050 A 
ATOM      3  C   UNL     1      -0.520  -8.616   2.063  0.00  0.00    +0.245 A 
ATOM      4  N   UNL     1       0.782  -8.598   2.062  0.00  0.00    -0.135 NA
ATOM      5  N   UNL     1       1.200  -7.263   1.936  0.00  0.00    -0.277 N 
ATOM      6  H   UNL     1       2.119  -6.955   1.904  0.00  0.00    +0.189 HD
ATOM      7  O   UNL     1      -1.378  -9.666   2.160  0.00  0.00    -0.421 OA
ATOM      8  C   UNL     1      -2.673  -9.388   2.410  0.00  0.00    +0.201 C 
ATOM      9  C   UNL     1      -3.224  -8.160   2.315  0.00  0.00    +0.098 C 
ATOM     10  C   UNL     1      -2.442  -6.937   1.908  0.00  0.00    +0.102 C 
ENDROOT
BRANCH  10  11
ATOM     11  C   UNL     1      -2.835  -6.525   0.513  0.00  0.00    -0.024 A 
ATOM     12  C   UNL     1      -2.696  -7.385  -0.539  0.00  0.00    +0.025 A 
ATOM     13  C   UNL     1      -3.066  -6.982  -1.820  0.00  0.00    +0.112 A 
ATOM     14  N   UNL     1      -3.550  -5.787  -2.055  0.00  0.00    -0.255 NA
ATOM     15  C   UNL     1      -3.711  -4.897  -1.070  0.00  0.00    +0.071 A 
ATOM     16  C   UNL     1      -3.360  -5.244   0.258  0.00  0.00    +0.004 A 
ATOM     17  C   UNL     1      -3.537  -4.308   1.290  0.00  0.00    +0.010 A 
ATOM     18  C   UNL     1      -4.048  -3.079   1.002  0.00  0.00    +0.001 A 
ATOM     19  C   UNL     1      -4.399  -2.737  -0.302  0.00  0.00    +0.002 A 
ATOM     20  C   UNL     1      -4.230  -3.616  -1.328  0.00  0.00    +0.028 A 
ENDBRANCH  10  11
BRANCH   8  21
ATOM     21  N   UNL     1      -3.488 -10.426   2.787  0.00  0.00    -0.328 N 
ATOM     22  H   UNL     1      -3.127 -11.323   2.865  0.00  0.00    +0.145 HD
ATOM     23  H   UNL     1      -4.426 -10.263   2.975  0.00  0.00    +0.145 HD
ENDBRANCH   8  21
BRANCH   9  24
ATOM     24  C   UNL     1      -4.616  -8.011   2.616  0.00  0.00    +0.101 C 
ATOM     25  N   UNL     1      -5.721  -7.893   2.854  0.00  0.00    -0.191 NA
ENDBRANCH   9  24
BRANCH   1  26
ATOM     26  C   UNL     1       0.077  -4.981   1.735  0.00  0.00    +0.129 C 
BRANCH  26  27
ATOM     27  S   UNL     1       0.062  -4.533  -0.023  0.00  0.00    -0.119 S 
BRANCH  27  32
ATOM     28  C   UNL     1      -0.018   1.503   0.010  0.00  0.00    +0.044 C 
ATOM     29  C   UNL     1       0.002  -0.004   0.002  0.00  0.00    -0.050 A 
ATOM     30  C   UNL     1       0.006  -0.687  -1.200  0.00  0.00    +0.004 A 
ATOM     31  C   UNL     1       0.024  -2.068  -1.212  0.00  0.00    +0.015 A 
ATOM     32  C   UNL     1       0.039  -2.771  -0.013  0.00  0.00    +0.008 A 
ATOM     33  C   UNL     1       0.036  -2.081   1.193  0.00  0.00    +0.015 A 
ATOM     34  C   UNL     1       0.023  -0.700   1.197  0.00  0.00    +0.004 A 
ENDBRANCH  27  32
ENDBRANCH  26  27
ENDBRANCH   1  26
TORSDOF 6
