REMARK  Name = ZINC21160954
REMARK  3 active torsions:
REMARK  status: ('A' for Active; 'I' for Inactive)
REMARK    1  A    between atoms: C_1  and  C_2
REMARK    2  A    between atoms: C_12  and  C_16
REMARK    3  A    between atoms: C_18  and  N_19
REMARK                            x       y       z     vdW  Elec       q    Type
REMARK                         _______ _______ _______ _____ _____    ______ ____
ROOT
ATOM      1  C   UNL     1      -0.018   1.503   0.010  0.00  0.00    +0.047 C 
ATOM      2  C   UNL     1       0.002  -0.004   0.002  0.00  0.00    -0.007 A 
ATOM      3  C   UNL     1      -0.005  -0.734  -1.252  0.00  0.00    +0.077 A 
ATOM      4  C   UNL     1       0.020  -2.134  -1.128  0.00  0.00    +0.117 A 
ATOM      5  N   UNL     1       0.019  -2.936  -2.189  0.00  0.00    -0.226 NA
ATOM      6  C   UNL     1      -0.005  -2.450  -3.397  0.00  0.00    +0.114 A 
ATOM      7  N   UNL     1      -0.024  -1.101  -3.617  0.00  0.00    -0.296 N 
ATOM      8  C   UNL     1      -0.019  -0.230  -2.595  0.00  0.00    +0.263 A 
ATOM      9  O   UNL     1      -0.030   0.971  -2.805  0.00  0.00    -0.267 OA
ATOM     10  C   UNL     1      -0.054  -0.625  -5.006  0.00  0.00    +0.127 C 
ATOM     11  C   UNL     1      -1.446  -0.861  -5.586  0.00  0.00    +0.025 C 
ATOM     12  C   UNL     1      -1.547  -2.232  -6.232  0.00  0.00    -0.012 C 
ATOM     13  C   UNL     1      -1.411  -3.356  -5.220  0.00  0.00    +0.011 C 
ATOM     14  C   UNL     1      -0.015  -3.368  -4.597  0.00  0.00    +0.075 C 
ATOM     15  C   UNL     1      -2.904  -2.354  -6.929  0.00  0.00    +0.007 C 
ATOM     16  S   UNL     1       0.040  -2.396   0.627  0.00  0.00    -0.053 S 
ATOM     17  C   UNL     1       0.022  -0.695   1.162  0.00  0.00    +0.079 A 
ENDROOT
BRANCH  17  18
ATOM     18  N   UNL     1       0.026  -0.198   2.466  0.00  0.00    -0.263 N 
ATOM     19  C   UNL     1       0.048  -1.048   3.511  0.00  0.00    +0.310 C 
ATOM     20  O   UNL     1       0.063  -2.249   3.319  0.00  0.00    -0.252 OA
ATOM     21  N   UNL     1       0.052  -0.568   4.771  0.00  0.00    -0.248 N 
ATOM     22  C   UNL     1       0.074  -1.445   5.849  0.00  0.00    +0.165 A 
ATOM     23  N   UNL     1       0.086  -2.764   5.844  0.00  0.00    -0.233 NA
ATOM     24  C   UNL     1       0.112  -3.451   6.970  0.00  0.00    +0.120 A 
ATOM     25  C   UNL     1       0.112  -2.770   8.142  0.00  0.00    +0.068 A 
ATOM     26  S   UNL     1       0.084  -1.085   7.548  0.00  0.00    -0.060 S 
ATOM     27  H   UNL     1       0.013   0.888   2.640  0.00  0.00    +0.157 HD
ATOM     28  H   UNL     1       0.038   0.518   4.945  0.00  0.00    +0.158 HD
ENDBRANCH  17  18
TORSDOF 1
