REMARK  Name = ZINC39935011
REMARK  12 active torsions:
REMARK  status: ('A' for Active; 'I' for Inactive)
REMARK    1  A    between atoms: C_1  and  C_2
REMARK    2  A    between atoms: C_7  and  C_12
REMARK    3  A    between atoms: C_12  and  C_36
REMARK    4  A    between atoms: C_13  and  C_14
REMARK    5  A    between atoms: C_16  and  C_33
REMARK    6  A    between atoms: C_17  and  O_22
REMARK    7  A    between atoms: C_18  and  O_20
REMARK    8  A    between atoms: O_20  and  C_21
REMARK    9  A    between atoms: O_22  and  C_23
REMARK   10  A    between atoms: C_23  and  C_24
REMARK   11  A    between atoms: C_28  and  N_30
REMARK   12  A    between atoms: C_33  and  C_34
REMARK                            x       y       z     vdW  Elec       q    Type
REMARK                         _______ _______ _______ _____ _____    ______ ____
ROOT
ATOM      1  C   UNL     1       2.459  -6.902   3.039  0.00  0.00    -0.020 A 
ATOM      2  C   UNL     1       2.416  -8.139   3.692  0.00  0.00    +0.015 A 
ATOM      3  C   UNL     1       3.584  -8.734   4.116  0.00  0.00    +0.002 A 
ATOM      4  C   UNL     1       4.805  -8.110   3.897  0.00  0.00    +0.166 A 
ATOM      5  C   UNL     1       4.856  -6.878   3.248  0.00  0.00    +0.162 A 
ATOM      6  C   UNL     1       3.691  -6.277   2.814  0.00  0.00    +0.057 A 
ENDROOT
BRANCH   1   8
ATOM      7  C   UNL     1       0.095  -6.361   3.332  0.00  0.00    +0.072 C 
ATOM      8  C   UNL     1       1.214  -6.265   2.584  0.00  0.00    +0.026 C 
BRANCH   7  15
ATOM      9  C   UNL     1      -6.599  -7.329   5.095  0.00  0.00    +0.044 C 
ATOM     10  C   UNL     1      -5.310  -6.635   4.735  0.00  0.00    -0.048 A 
ATOM     11  C   UNL     1      -5.047  -5.369   5.289  0.00  0.00    +0.005 A 
ATOM     12  C   UNL     1      -3.921  -4.678   5.021  0.00  0.00    +0.027 A 
ATOM     13  C   UNL     1      -2.916  -5.253   4.116  0.00  0.00    +0.060 A 
ATOM     14  N   UNL     1      -1.765  -4.824   3.686  0.00  0.00    -0.359 N 
ATOM     15  C   UNL     1      -1.217  -5.853   2.793  0.00  0.00    +0.216 C 
ATOM     16  N   UNL     1      -2.204  -6.940   2.760  0.00  0.00    -0.359 N 
ATOM     17  C   UNL     1      -3.194  -6.592   3.530  0.00  0.00    +0.061 A 
ATOM     18  C   UNL     1      -4.454  -7.254   3.898  0.00  0.00    +0.030 A 
ATOM     19  H   UNL     1      -1.345  -3.980   3.914  0.00  0.00    +0.162 HD
ATOM     20  H   UNL     1      -2.131  -7.766   2.256  0.00  0.00    +0.162 HD
ENDBRANCH   7  15
BRANCH   7  21
ATOM     21  C   UNL     1       0.154  -6.946   4.638  0.00  0.00    +0.099 C 
ATOM     22  N   UNL     1       0.202  -7.410   5.674  0.00  0.00    -0.191 NA
ENDBRANCH   7  21
ENDBRANCH   1   8
BRANCH   5  23
ATOM     23  O   UNL     1       6.054  -6.270   3.036  0.00  0.00    -0.491 OA
ATOM     24  C   UNL     1       6.032  -5.009   2.364  0.00  0.00    +0.277 C 
ENDBRANCH   5  23
BRANCH   4  25
ATOM     25  O   UNL     1       5.953  -8.702   4.319  0.00  0.00    -0.483 OA
BRANCH  25  26
ATOM     26  C   UNL     1       6.606  -9.580   3.399  0.00  0.00    +0.264 C 
BRANCH  26  27
ATOM     27  C   UNL     1       7.852 -10.138   4.036  0.00  0.00    -0.008 A 
ATOM     28  C   UNL     1       9.055  -9.470   3.902  0.00  0.00    +0.007 A 
ATOM     29  C   UNL     1      10.198  -9.982   4.487  0.00  0.00    +0.003 A 
ATOM     30  C   UNL     1      10.139 -11.162   5.205  0.00  0.00    +0.033 A 
ATOM     31  C   UNL     1       8.936 -11.829   5.340  0.00  0.00    +0.127 A 
ATOM     32  C   UNL     1       7.791 -11.315   4.759  0.00  0.00    +0.039 A 
BRANCH  31  33
ATOM     33  N   UNL     1       8.872 -13.092   6.109  0.00  0.00    +0.056 N 
ATOM     34  O   UNL     1       9.872 -13.540   6.619  0.00  0.00    -0.126 OA
ATOM     35  O   UNL     1       7.820 -13.676   6.226  0.00  0.00    -0.126 OA
ENDBRANCH  31  33
ENDBRANCH  26  27
ENDBRANCH  25  26
ENDBRANCH   4  25
BRANCH   3  36
ATOM     36  C   UNL     1       3.536 -10.066   4.819  0.00  0.00    +0.065 C 
BRANCH  36  37
ATOM     37  C   UNL     1       3.529  -9.847   6.310  0.00  0.00    -0.030 C 
ATOM     38  C   UNL     1       2.576 -10.367   7.043  0.00  0.00    +0.004 C 
ENDBRANCH  36  37
ENDBRANCH   3  36
TORSDOF 10
