REMARK  Name = ZINC64137102
REMARK  8 active torsions:
REMARK  status: ('A' for Active; 'I' for Inactive)
REMARK    1  A    between atoms: C_4  and  S_7
REMARK    2  A    between atoms: S_7  and  N_10
REMARK    3  A    between atoms: N_10  and  C_11
REMARK    4  A    between atoms: C_14  and  N_17
REMARK    5  A    between atoms: C_20  and  N_23
REMARK    6  A    between atoms: N_23  and  C_24
REMARK    7  A    between atoms: C_24  and  C_25
REMARK    8  A    between atoms: C_25  and  C_26
REMARK                            x       y       z     vdW  Elec       q    Type
REMARK                         _______ _______ _______ _____ _____    ______ ____
ROOT
ATOM      1  N   UNL     1       1.469  -4.219   5.264  0.00  0.00    -0.330 N 
ATOM      2  C   UNL     1       0.001  -4.159   5.280  0.00  0.00    +0.103 C 
ATOM      3  C   UNL     1      -0.463  -3.830   6.703  0.00  0.00    +0.003 C 
ATOM      4  C   UNL     1       0.135  -4.846   7.678  0.00  0.00    -0.069 C 
ATOM      5  C   UNL     1       1.662  -4.758   7.636  0.00  0.00    +0.003 C 
ATOM      6  C   UNL     1       2.150  -5.102   6.221  0.00  0.00    +0.103 C 
ENDROOT
BRANCH   1  10
ATOM      7  C   UNL     1       3.659  -1.943   2.542  0.00  0.00    +0.048 A 
ATOM      8  C   UNL     1       4.316  -2.676   3.522  0.00  0.00    +0.026 A 
ATOM      9  C   UNL     1       3.591  -3.430   4.423  0.00  0.00    +0.025 A 
ATOM     10  C   UNL     1       2.204  -3.455   4.351  0.00  0.00    +0.030 A 
ATOM     11  C   UNL     1       1.547  -2.721   3.372  0.00  0.00    +0.025 A 
ATOM     12  C   UNL     1       2.272  -1.963   2.474  0.00  0.00    +0.026 A 
BRANCH   7  13
ATOM     13  N   UNL     1       4.394  -1.179   1.628  0.00  0.00    -0.216 N 
ATOM     14  H   UNL     1       4.180  -1.216   0.683  0.00  0.00    +0.174 HD
BRANCH  13  15
ATOM     15  S   UNL     1       5.630  -0.213   2.161  0.00  0.00    +0.072 S 
ATOM     16  O   UNL     1       6.100   0.505   1.029  0.00  0.00    -0.150 OA
ATOM     17  O   UNL     1       6.479  -1.037   2.947  0.00  0.00    -0.150 OA
BRANCH  15  21
ATOM     18  C   UNL     1       3.826   2.840   4.974  0.00  0.00    +0.000 A 
ATOM     19  C   UNL     1       4.192   1.595   5.449  0.00  0.00    +0.002 A 
ATOM     20  C   UNL     1       4.743   0.662   4.590  0.00  0.00    +0.029 A 
ATOM     21  C   UNL     1       4.927   0.975   3.256  0.00  0.00    +0.108 A 
ATOM     22  C   UNL     1       4.559   2.220   2.781  0.00  0.00    +0.029 A 
ATOM     23  C   UNL     1       4.010   3.153   3.640  0.00  0.00    +0.002 A 
ENDBRANCH  15  21
ENDBRANCH  13  15
ENDBRANCH   7  13
ENDBRANCH   1  10
BRANCH   4  24
ATOM     24  N   UNL     1      -0.335  -4.553   9.039  0.00  0.00    +0.381 N 
ATOM     25  H   UNL     1       0.024  -3.657   9.333  0.00  0.00    -0.086 HD
ATOM     26  H   UNL     1      -1.344  -4.531   9.049  0.00  0.00    -0.086 HD
BRANCH  24  27
ATOM     27  C   UNL     1       0.141  -5.596   9.957  0.00  0.00    -0.078 C 
BRANCH  27  28
ATOM     28  C   UNL     1      -0.348  -5.291  11.374  0.00  0.00    +0.014 C 
BRANCH  28  29
ATOM     29  C   UNL     1       0.140  -6.361  12.316  0.00  0.00    -0.043 C 
ATOM     30  C   UNL     1       1.252  -6.322  13.085  0.00  0.00    -0.001 A 
ATOM     31  C   UNL     1       2.299  -5.310  13.268  0.00  0.00    +0.010 A 
ATOM     32  C   UNL     1       3.312  -5.562  14.128  0.00  0.00    +0.001 A 
ATOM     33  C   UNL     1       3.386  -6.763  14.847  0.00  0.00    +0.002 A 
ATOM     34  C   UNL     1       2.462  -7.740  14.733  0.00  0.00    +0.026 A 
ATOM     35  C   UNL     1       1.353  -7.581  13.857  0.00  0.00    +0.043 A 
ATOM     36  N   UNL     1       0.344  -8.369  13.575  0.00  0.00    -0.380 N 
ATOM     37  C   UNL     1      -0.517  -7.694  12.596  0.00  0.00    +0.144 C 
ATOM     38  H   UNL     1       0.189  -9.248  13.953  0.00  0.00    +0.160 HD
ENDBRANCH  28  29
ENDBRANCH  27  28
ENDBRANCH  24  27
ENDBRANCH   4  24
TORSDOF 8
