REMARK  Name = ZINC14041293
REMARK  13 active torsions:
REMARK  status: ('A' for Active; 'I' for Inactive)
REMARK    1  A    between atoms: C_1  and  C_2
REMARK    2  A    between atoms: C_2  and  C_3
REMARK    3  A    between atoms: C_3  and  C_4
REMARK    4  A    between atoms: C_4  and  O_5
REMARK    5  A    between atoms: O_5  and  C_6
REMARK    6  A    between atoms: C_9  and  C_13
REMARK    7  A    between atoms: N_15  and  N_16
REMARK    8  A    between atoms: C_17  and  C_19
REMARK    9  A    between atoms: C_22  and  N_25
REMARK   10  A    between atoms: C_26  and  C_28
REMARK   11  A    between atoms: C_28  and  C_29
REMARK   12  A    between atoms: C_29  and  C_30
REMARK   13  A    between atoms: C_29  and  C_31
REMARK                            x       y       z     vdW  Elec       q    Type
REMARK                         _______ _______ _______ _____ _____    ______ ____
ROOT
ATOM      1  N   UNL     1      -5.137   4.824  -0.283  0.00  0.00    -0.230 N 
ATOM      2  C   UNL     1      -5.056   3.484  -0.165  0.00  0.00    +0.260 C 
ATOM      3  O   UNL     1      -6.071   2.817  -0.095  0.00  0.00    -0.269 OA
ATOM      4  H   UNL     1      -4.328   5.356  -0.339  0.00  0.00    +0.173 HD
ENDROOT
BRANCH   2   5
ATOM      5  C   UNL     1      -3.736   2.825  -0.119  0.00  0.00    +0.038 A 
ATOM      6  C   UNL     1      -3.651   1.436   0.004  0.00  0.00    +0.015 A 
ATOM      7  C   UNL     1      -2.418   0.824   0.045  0.00  0.00    +0.024 A 
ATOM      8  C   UNL     1      -1.258   1.588  -0.035  0.00  0.00    +0.033 A 
ATOM      9  C   UNL     1      -1.340   2.972  -0.152  0.00  0.00    +0.024 A 
ATOM     10  C   UNL     1      -2.569   3.589  -0.199  0.00  0.00    +0.015 A 
BRANCH   8  11
ATOM     11  N   UNL     1      -0.011   0.966   0.007  0.00  0.00    -0.285 N 
ATOM     12  C   UNL     1       1.025   1.575   0.617  0.00  0.00    +0.217 C 
ATOM     13  O   UNL     1       0.895   2.696   1.060  0.00  0.00    -0.275 OA
ATOM     14  H   UNL     1       0.112   0.097  -0.405  0.00  0.00    +0.155 HD
BRANCH  12  15
ATOM     15  C   UNL     1       2.347   0.862   0.748  0.00  0.00    +0.099 C 
BRANCH  15  16
ATOM     16  C   UNL     1       3.345   1.767   1.473  0.00  0.00    -0.008 C 
ATOM     17  C   UNL     1       4.646   0.999   1.717  0.00  0.00    +0.008 C 
ATOM     18  C   UNL     1       3.633   2.999   0.614  0.00  0.00    +0.008 C 
ENDBRANCH  15  16
ENDBRANCH  12  15
ENDBRANCH   8  11
ENDBRANCH   2   5
BRANCH   1  21
ATOM     19  C   UNL     1      -6.471   6.789  -0.445  0.00  0.00    +0.260 C 
ATOM     20  O   UNL     1      -5.456   7.456  -0.514  0.00  0.00    -0.269 OA
ATOM     21  N   UNL     1      -6.390   5.449  -0.326  0.00  0.00    -0.230 N 
ATOM     22  H   UNL     1      -7.200   4.918  -0.271  0.00  0.00    +0.173 HD
BRANCH  19  26
ATOM     23  C   UNL     1     -10.270   8.684  -0.576  0.00  0.00    +0.134 A 
ATOM     24  C   UNL     1     -10.188   7.302  -0.453  0.00  0.00    +0.047 A 
ATOM     25  C   UNL     1      -8.958   6.683  -0.416  0.00  0.00    +0.017 A 
ATOM     26  C   UNL     1      -7.791   7.448  -0.490  0.00  0.00    +0.039 A 
ATOM     27  C   UNL     1      -7.877   8.837  -0.613  0.00  0.00    +0.032 A 
ATOM     28  C   UNL     1      -9.111   9.448  -0.655  0.00  0.00    +0.060 A 
ATOM     29 BR   UNL     1      -9.229  11.328  -0.821  0.00  0.00    -0.046 Br
BRANCH  23  30
ATOM     30  O   UNL     1     -11.484   9.289  -0.617  0.00  0.00    -0.491 OA
BRANCH  30  31
ATOM     31  C   UNL     1     -12.633   8.444  -0.530  0.00  0.00    +0.229 C 
BRANCH  31  32
ATOM     32  C   UNL     1     -13.901   9.299  -0.594  0.00  0.00    +0.041 C 
BRANCH  32  34
ATOM     33  C   UNL     1     -16.398   9.249  -0.565  0.00  0.00    +0.004 C 
ATOM     34  C   UNL     1     -15.131   8.395  -0.501  0.00  0.00    -0.000 C 
ENDBRANCH  32  34
ENDBRANCH  31  32
ENDBRANCH  30  31
ENDBRANCH  23  30
ENDBRANCH  19  26
ENDBRANCH   1  21
TORSDOF 10
