REMARK  Name = ZINC13063766
REMARK  13 active torsions:
REMARK  status: ('A' for Active; 'I' for Inactive)
REMARK    1  A    between atoms: C_1  and  C_2
REMARK    2  A    between atoms: C_2  and  C_3
REMARK    3  A    between atoms: C_3  and  C_5
REMARK    4  A    between atoms: C_3  and  N_65
REMARK    5  A    between atoms: N_9  and  C_10
REMARK    6  A    between atoms: C_10  and  C_11
REMARK    7  A    between atoms: C_10  and  C_12
REMARK    8  A    between atoms: C_10  and  C_13
REMARK    9  A    between atoms: C_14  and  C_15
REMARK   10  A    between atoms: C_14  and  N_65
REMARK   11  A    between atoms: C_21  and  C_22
REMARK   12  A    between atoms: C_21  and  N_65
REMARK   13  A    between atoms: C_27  and  C_34
REMARK                            x       y       z     vdW  Elec       q    Type
REMARK                         _______ _______ _______ _____ _____    ______ ____
ROOT
ATOM      1  N   UNL     1       4.328  -1.008  -1.769  0.00  0.00    +0.392 N 
ATOM      2  H   UNL     1       3.525  -1.449  -2.232  0.00  0.00    -0.080 HD
ENDROOT
BRANCH   1   3
ATOM      3  C   UNL     1       4.669   0.240  -2.484  0.00  0.00    +0.003 C 
BRANCH   3   4
ATOM      4  C   UNL     1       3.403   0.826  -3.056  0.00  0.00    +0.139 A 
ATOM      5  N   UNL     1       2.218   0.827  -2.495  0.00  0.00    -0.115 NA
ATOM      6  N   UNL     1       1.401   1.421  -3.295  0.00  0.00    -0.023 NA
ATOM      7  N   UNL     1       2.034   1.799  -4.350  0.00  0.00    -0.043 NA
ATOM      8  N   UNL     1       3.272   1.455  -4.238  0.00  0.00    -0.226 N 
BRANCH   8   9
ATOM      9  C   UNL     1       4.335   1.700  -5.216  0.00  0.00    +0.059 C 
ATOM     10  C   UNL     1       4.808   0.368  -5.800  0.00  0.00    +0.036 C 
ATOM     11  C   UNL     1       3.798   2.588  -6.341  0.00  0.00    +0.036 C 
ATOM     12  C   UNL     1       5.508   2.401  -4.529  0.00  0.00    +0.036 C 
ENDBRANCH   8   9
ENDBRANCH   3   4
BRANCH   3  14
ATOM     13  C   UNL     1       6.621   0.673  -0.986  0.00  0.00    +0.002 C 
ATOM     14  C   UNL     1       5.309   1.246  -1.525  0.00  0.00    -0.011 C 
ENDBRANCH   3  14
ENDBRANCH   1   3
BRANCH   1  15
ATOM     15  C   UNL     1       3.968  -0.706  -0.368  0.00  0.00    -0.042 C 
BRANCH  15  16
ATOM     16  C   UNL     1       2.554  -0.186  -0.335  0.00  0.00    -0.064 A 
ATOM     17  C   UNL     1       1.495  -1.051  -0.535  0.00  0.00    +0.002 A 
ATOM     18  C   UNL     1       0.198  -0.573  -0.505  0.00  0.00    +0.000 A 
ATOM     19  C   UNL     1      -0.040   0.769  -0.274  0.00  0.00    +0.000 A 
ATOM     20  C   UNL     1       1.020   1.633  -0.073  0.00  0.00    +0.000 A 
ATOM     21  C   UNL     1       2.317   1.156  -0.103  0.00  0.00    +0.002 A 
ENDBRANCH  15  16
ENDBRANCH   1  15
BRANCH   1  22
ATOM     22  C   UNL     1       5.475  -1.940  -1.806  0.00  0.00    -0.036 C 
BRANCH  22  23
ATOM     23  C   UNL     1       5.574  -2.531  -3.189  0.00  0.00    +0.001 A 
ATOM     24  C   UNL     1       6.429  -1.994  -4.094  0.00  0.00    +0.017 A 
ATOM     25  C   UNL     1       6.501  -2.591  -5.428  0.00  0.00    -0.001 A 
ATOM     26  C   UNL     1       7.365  -2.081  -6.404  0.00  0.00    +0.010 A 
ATOM     27  C   UNL     1       7.409  -2.661  -7.639  0.00  0.00    +0.004 A 
ATOM     28  C   UNL     1       6.604  -3.753  -7.937  0.00  0.00    -0.048 A 
ATOM     29  C   UNL     1       5.746  -4.272  -6.992  0.00  0.00    +0.029 A 
ATOM     30  C   UNL     1       5.683  -3.697  -5.726  0.00  0.00    +0.049 A 
ATOM     31  N   UNL     1       4.834  -4.196  -4.761  0.00  0.00    -0.322 N 
ATOM     32  H   UNL     1       4.271  -4.959  -4.968  0.00  0.00    +0.169 HD
ATOM     33  C   UNL     1       4.779  -3.645  -3.537  0.00  0.00    +0.251 A 
ATOM     34  O   UNL     1       4.020  -4.115  -2.707  0.00  0.00    -0.268 OA
ATOM     35  C   UNL     1       6.669  -4.376  -9.307  0.00  0.00    +0.044 C 
ENDBRANCH  22  23
ENDBRANCH   1  22
TORSDOF 8
