REMARK  Name = ZINC50076321
REMARK  5 active torsions:
REMARK  status: ('A' for Active; 'I' for Inactive)
REMARK    1  A    between atoms: C_1  and  C_2
REMARK    2  A    between atoms: C_2  and  C_3
REMARK    3  A    between atoms: C_2  and  C_4
REMARK    4  A    between atoms: N_12  and  C_13
REMARK    5  A    between atoms: C_14  and  C_22
REMARK                            x       y       z     vdW  Elec       q    Type
REMARK                         _______ _______ _______ _____ _____    ______ ____
ROOT
ATOM      1  C   UNL     1      -1.412  -0.526   0.013  0.00  0.00    +0.106 A 
ATOM      2  N   UNL     1      -2.373  -0.344   0.896  0.00  0.00    -0.144 NA
ATOM      3  N   UNL     1      -3.498  -0.884   0.700  0.00  0.00    -0.126 NA
ATOM      4  C   UNL     1      -3.739  -1.626  -0.364  0.00  0.00    +0.189 A 
ATOM      5  S   UNL     1      -2.261  -1.559  -1.172  0.00  0.00    -0.035 S 
ATOM      6  N   UNL     1      -4.908  -2.286  -0.726  0.00  0.00    -0.247 N 
ATOM      7  C   UNL     1      -5.998  -2.209   0.063  0.00  0.00    +0.310 C 
ATOM      8  O   UNL     1      -5.958  -1.563   1.093  0.00  0.00    -0.252 OA
ATOM      9  N   UNL     1      -7.131  -2.849  -0.288  0.00  0.00    -0.262 N 
ATOM     10  H   UNL     1      -4.940  -2.801  -1.548  0.00  0.00    +0.158 HD
ATOM     11  H   UNL     1      -7.162  -3.364  -1.109  0.00  0.00    +0.157 HD
ENDROOT
BRANCH   9  12
ATOM     12  C   UNL     1      -8.253  -2.770   0.525  0.00  0.00    +0.091 A 
ATOM     13  C   UNL     1      -9.491  -3.361   0.328  0.00  0.00    +0.084 A 
ATOM     14  C   UNL     1     -10.506  -3.123   1.335  0.00  0.00    -0.022 A 
ATOM     15  C   UNL     1     -10.100  -2.334   2.357  0.00  0.00    -0.021 A 
ATOM     16  S   UNL     1      -8.419  -1.942   1.978  0.00  0.00    -0.079 S 
ATOM     17  C   UNL     1     -10.927  -1.915   3.531  0.00  0.00    -0.039 C 
ATOM     18  N   UNL     1     -12.344  -2.172   3.214  0.00  0.00    +0.382 N 
ATOM     19  C   UNL     1     -12.500  -3.549   2.728  0.00  0.00    -0.077 C 
ATOM     20  C   UNL     1     -11.922  -3.679   1.314  0.00  0.00    +0.018 C 
ATOM     21  H   UNL     1     -12.903  -2.044   4.045  0.00  0.00    -0.085 HD
ATOM     22  H   UNL     1     -12.651  -1.527   2.501  0.00  0.00    -0.085 HD
BRANCH  13  23
ATOM     23  C   UNL     1      -9.757  -4.173  -0.822  0.00  0.00    +0.102 C 
ATOM     24  N   UNL     1      -9.968  -4.816  -1.734  0.00  0.00    -0.191 NA
ENDBRANCH  13  23
ENDBRANCH   9  12
BRANCH   1  26
ATOM     25  C   UNL     1      -0.019   1.526   0.010  0.00  0.00    +0.014 C 
ATOM     26  C   UNL     1       0.002  -0.004   0.002  0.00  0.00    +0.040 C 
ATOM     27  C   UNL     1       0.742  -0.511   1.242  0.00  0.00    +0.014 C 
ENDBRANCH   1  26
TORSDOF 3
