REMARK  Name = ZINC11242851
REMARK  7 active torsions:
REMARK  status: ('A' for Active; 'I' for Inactive)
REMARK    1  A    between atoms: C_4  and  S_7
REMARK    2  A    between atoms: S_7  and  N_10
REMARK    3  A    between atoms: C_13  and  C_16
REMARK    4  A    between atoms: C_16  and  O_18
REMARK    5  A    between atoms: O_18  and  C_19
REMARK    6  A    between atoms: C_19  and  C_20
REMARK    7  A    between atoms: N_22  and  C_23
REMARK                            x       y       z     vdW  Elec       q    Type
REMARK                         _______ _______ _______ _____ _____    ______ ____
ROOT
ATOM      1  C   UNL     1       1.402   3.560  -0.027  0.00  0.00    +0.311 C 
ATOM      2  O   UNL     1       0.349   4.152  -0.035  0.00  0.00    -0.251 OA
ENDROOT
BRANCH   1   6
ATOM      3  N   UNL     1       0.824  -0.472   1.126  0.00  0.00    -0.177 NA
ATOM      4  C   UNL     1       0.002  -0.004   0.002  0.00  0.00    +0.110 C 
ATOM      5  C   UNL     1      -0.019   1.528   0.010  0.00  0.00    +0.032 C 
ATOM      6  C   UNL     1       1.419   2.053  -0.001  0.00  0.00    +0.100 C 
ATOM      7  C   UNL     1       2.149   1.573   1.256  0.00  0.00    +0.032 C 
ATOM      8  C   UNL     1       2.194   0.042   1.262  0.00  0.00    +0.110 C 
BRANCH   3   9
ATOM      9  S   UNL     1       0.219  -1.558   2.220  0.00  0.00    +0.061 S 
ATOM     10  O   UNL     1       0.963  -1.386   3.418  0.00  0.00    -0.153 OA
ATOM     11  O   UNL     1      -1.196  -1.431   2.177  0.00  0.00    -0.153 OA
BRANCH   9  15
ATOM     12  C   UNL     1       1.193  -5.700   0.674  0.00  0.00    +0.000 A 
ATOM     13  C   UNL     1       2.082  -5.046   1.507  0.00  0.00    +0.002 A 
ATOM     14  C   UNL     1       1.785  -3.781   1.978  0.00  0.00    +0.028 A 
ATOM     15  C   UNL     1       0.598  -3.170   1.618  0.00  0.00    +0.105 A 
ATOM     16  C   UNL     1      -0.294  -3.826   0.790  0.00  0.00    +0.028 A 
ATOM     17  C   UNL     1       0.006  -5.089   0.315  0.00  0.00    +0.002 A 
ENDBRANCH   9  15
ENDBRANCH   3   9
ENDBRANCH   1   6
BRANCH   1  18
ATOM     18  O   UNL     1       2.557   4.244  -0.040  0.00  0.00    -0.455 OA
BRANCH  18  19
ATOM     19  C   UNL     1       2.465   5.693  -0.065  0.00  0.00    +0.327 C 
BRANCH  19  20
ATOM     20  C   UNL     1       3.851   6.284  -0.077  0.00  0.00    +0.251 C 
ATOM     21  O   UNL     1       4.821   5.556  -0.065  0.00  0.00    -0.272 OA
ATOM     22  N   UNL     1       4.012   7.622  -0.100  0.00  0.00    -0.310 N 
ATOM     23  H   UNL     1       3.237   8.204  -0.109  0.00  0.00    +0.149 HD
BRANCH  22  24
ATOM     24  C   UNL     1       5.360   8.197  -0.112  0.00  0.00    +0.073 C 
ATOM     25  C   UNL     1       5.880   8.306   1.323  0.00  0.00    +0.022 C 
ATOM     26  C   UNL     1       7.395   8.521   1.301  0.00  0.00    +0.002 C 
ATOM     27  C   UNL     1       8.030   7.574   0.281  0.00  0.00    +0.000 C 
ATOM     28  C   UNL     1       8.605   8.387  -0.880  0.00  0.00    +0.000 C 
ATOM     29  C   UNL     1       7.466   8.856  -1.786  0.00  0.00    +0.000 C 
ATOM     30  C   UNL     1       6.733  10.023  -1.122  0.00  0.00    +0.002 C 
ATOM     31  C   UNL     1       5.315   9.589  -0.746  0.00  0.00    +0.022 C 
ENDBRANCH  22  24
ENDBRANCH  19  20
ENDBRANCH  18  19
ENDBRANCH   1  18
TORSDOF 7
