REMARK  Name = ZINC13729727
REMARK  13 active torsions:
REMARK  status: ('A' for Active; 'I' for Inactive)
REMARK    1  A    between atoms: C_1  and  O_2
REMARK    2  A    between atoms: O_2  and  C_3
REMARK    3  A    between atoms: C_5  and  C_21
REMARK    4  A    between atoms: C_8  and  O_9
REMARK    5  A    between atoms: O_9  and  C_10
REMARK    6  A    between atoms: N_14  and  C_15
REMARK    7  A    between atoms: C_21  and  N_61
REMARK    8  A    between atoms: C_22  and  C_23
REMARK    9  A    between atoms: C_22  and  N_61
REMARK   10  A    between atoms: C_23  and  C_24
REMARK   11  A    between atoms: C_24  and  S_25
REMARK   12  A    between atoms: S_25  and  C_26
REMARK   13  A    between atoms: N_30  and  C_31
REMARK                            x       y       z     vdW  Elec       q    Type
REMARK                         _______ _______ _______ _____ _____    ______ ____
ROOT
ATOM      1  C   UNL     1       3.629   4.508   0.204  0.00  0.00    +0.162 A 
ATOM      2  C   UNL     1       5.000   4.686   0.298  0.00  0.00    +0.051 A 
ATOM      3  C   UNL     1       5.842   3.589   0.283  0.00  0.00    -0.061 A 
ATOM      4  C   UNL     1       5.320   2.314   0.174  0.00  0.00    +0.005 A 
ATOM      5  C   UNL     1       3.953   2.129   0.085  0.00  0.00    +0.050 A 
ATOM      6  C   UNL     1       3.103   3.224   0.094  0.00  0.00    +0.173 A 
ENDROOT
BRANCH   1   8
ATOM      7  C   UNL     1       3.410   6.872   0.334  0.00  0.00    +0.277 C 
ATOM      8  O   UNL     1       2.800   5.585   0.218  0.00  0.00    -0.491 OA
ENDBRANCH   1   8
BRANCH   6   9
ATOM      9  O   UNL     1       1.759   3.044   0.001  0.00  0.00    -0.419 OA
BRANCH   9  10
ATOM     10  C   UNL     1       1.301   1.796  -0.261  0.00  0.00    +0.347 A 
ATOM     11  N   UNL     1       2.029   0.744  -0.557  0.00  0.00    -0.070 NA
ATOM     12  N   UNL     1       1.281  -0.282  -0.748  0.00  0.00    -0.019 NA
ATOM     13  N   UNL     1       0.041   0.032  -0.591  0.00  0.00    -0.036 NA
ATOM     14  N   UNL     1       0.006   1.399  -0.268  0.00  0.00    -0.162 N 
BRANCH  14  15
ATOM     15  C   UNL     1      -1.127   2.186  -0.012  0.00  0.00    +0.072 A 
ATOM     16  C   UNL     1      -1.072   3.198   0.936  0.00  0.00    +0.028 A 
ATOM     17  C   UNL     1      -2.188   3.974   1.181  0.00  0.00    +0.002 A 
ATOM     18  C   UNL     1      -3.363   3.736   0.491  0.00  0.00    +0.000 A 
ATOM     19  C   UNL     1      -3.422   2.725  -0.450  0.00  0.00    +0.002 A 
ATOM     20  C   UNL     1      -2.308   1.949  -0.703  0.00  0.00    +0.028 A 
ENDBRANCH  14  15
ENDBRANCH   9  10
ENDBRANCH   6   9
BRANCH   3  21
ATOM     21  C   UNL     1       7.333   3.785   0.387  0.00  0.00    -0.047 C 
BRANCH  21  22
ATOM     22  N   UNL     1       7.726   3.763   1.809  0.00  0.00    +0.382 N 
ATOM     23  H   UNL     1       7.463   2.859   2.219  0.00  0.00    -0.085 HD
ATOM     24  H   UNL     1       7.239   4.518   2.306  0.00  0.00    -0.085 HD
BRANCH  22  25
ATOM     25  C   UNL     1       9.182   3.953   1.941  0.00  0.00    -0.081 C 
BRANCH  25  26
ATOM     26  C   UNL     1       9.559   3.925   3.423  0.00  0.00    -0.008 C 
BRANCH  26  27
ATOM     27  C   UNL     1      11.070   4.121   3.569  0.00  0.00    +0.075 C 
BRANCH  27  28
ATOM     28  S   UNL     1      11.516   4.089   5.323  0.00  0.00    -0.084 S 
BRANCH  28  29
ATOM     29  C   UNL     1      13.257   4.330   5.201  0.00  0.00    +0.214 A 
ATOM     30  N   UNL     1      13.949   4.483   4.092  0.00  0.00    -0.101 NA
ATOM     31  N   UNL     1      15.196   4.637   4.359  0.00  0.00    -0.022 NA
ATOM     32  N   UNL     1      15.392   4.596   5.632  0.00  0.00    -0.038 NA
ATOM     33  N   UNL     1      14.136   4.400   6.232  0.00  0.00    -0.187 N 
BRANCH  33  34
ATOM     34  C   UNL     1      13.853   4.297   7.601  0.00  0.00    +0.070 A 
ATOM     35  C   UNL     1      12.668   4.814   8.107  0.00  0.00    +0.028 A 
ATOM     36  C   UNL     1      12.389   4.705   9.456  0.00  0.00    +0.002 A 
ATOM     37  C   UNL     1      13.294   4.093  10.303  0.00  0.00    +0.000 A 
ATOM     38  C   UNL     1      14.478   3.582   9.803  0.00  0.00    +0.002 A 
ATOM     39  C   UNL     1      14.759   3.683   8.454  0.00  0.00    +0.028 A 
ENDBRANCH  33  34
ENDBRANCH  28  29
ENDBRANCH  27  28
ENDBRANCH  26  27
ENDBRANCH  25  26
ENDBRANCH  22  25
ENDBRANCH  21  22
ENDBRANCH   3  21
TORSDOF 12
