REMARK  Name = ZINC63350899
REMARK  14 active torsions:
REMARK  status: ('A' for Active; 'I' for Inactive)
REMARK    1  A    between atoms: C_1  and  C_2
REMARK    2  A    between atoms: C_2  and  C_3
REMARK    3  A    between atoms: C_12  and  O_15
REMARK    4  A    between atoms: C_13  and  C_14
REMARK    5  A    between atoms: O_15  and  C_16
REMARK    6  A    between atoms: C_16  and  C_18
REMARK    7  A    between atoms: C_18  and  C_20
REMARK    8  A    between atoms: C_18  and  N_30
REMARK    9  A    between atoms: C_20  and  C_21
REMARK   10  A    between atoms: C_31  and  O_33
REMARK   11  A    between atoms: O_33  and  C_34
REMARK   12  A    between atoms: C_34  and  C_35
REMARK   13  A    between atoms: C_34  and  C_36
REMARK   14  A    between atoms: C_34  and  C_37
REMARK                            x       y       z     vdW  Elec       q    Type
REMARK                         _______ _______ _______ _____ _____    ______ ____
ROOT
ATOM      1  C   UNL     1       8.452  -1.000   0.092  0.00  0.00    +0.189 C 
ENDROOT
BRANCH   1   2
ATOM      2  N   UNL     1       8.865  -1.139  -1.307  0.00  0.00    -0.268 N 
ATOM      3  C   UNL     1       8.655  -0.129  -2.174  0.00  0.00    +0.401 C 
ATOM      4  O   UNL     1       8.123   0.896  -1.796  0.00  0.00    -0.226 OA
ATOM      5  H   UNL     1       9.290  -1.957  -1.609  0.00  0.00    +0.153 HD
BRANCH   3   6
ATOM      6  O   UNL     1       9.034  -0.256  -3.460  0.00  0.00    -0.445 OA
BRANCH   6   7
ATOM      7  C   UNL     1       8.780   0.854  -4.324  0.00  0.00    +0.107 C 
ATOM      8  C   UNL     1       9.516   2.088  -3.798  0.00  0.00    +0.055 C 
ATOM      9  C   UNL     1       9.276   0.527  -5.733  0.00  0.00    +0.055 C 
ATOM     10  C   UNL     1       7.277   1.135  -4.364  0.00  0.00    +0.055 C 
ENDBRANCH   6   7
ENDBRANCH   3   6
ENDBRANCH   1   2
BRANCH   1  11
ATOM     11  C   UNL     1       6.964  -0.769   0.157  0.00  0.00    +0.333 C 
ATOM     12  O   UNL     1       6.373  -0.368  -0.818  0.00  0.00    -0.248 OA
BRANCH  11  13
ATOM     13  O   UNL     1       6.296  -1.009   1.296  0.00  0.00    -0.424 OA
BRANCH  13  23
ATOM     14  C   UNL     1       0.728  -0.542   1.222  0.00  0.00    -0.030 A 
ATOM     15  C   UNL     1       0.014  -1.597   0.749  0.00  0.00    +0.096 A 
ATOM     16  C   UNL     1       0.684  -2.756   0.306  0.00  0.00    +0.337 A 
ATOM     17  O   UNL     1       0.032  -3.694  -0.115  0.00  0.00    -0.245 OA
ATOM     18  O   UNL     1       2.023  -2.851   0.337  0.00  0.00    -0.422 OA
ATOM     19  C   UNL     1       2.791  -1.839   0.794  0.00  0.00    +0.146 A 
ATOM     20  C   UNL     1       2.188  -0.651   1.247  0.00  0.00    +0.021 A 
ATOM     21  C   UNL     1       2.981   0.402   1.716  0.00  0.00    +0.015 A 
ATOM     22  C   UNL     1       4.340   0.275   1.729  0.00  0.00    +0.047 A 
ATOM     23  C   UNL     1       4.943  -0.897   1.278  0.00  0.00    +0.138 A 
ATOM     24  C   UNL     1       4.173  -1.954   0.819  0.00  0.00    +0.035 A 
ATOM     25  C   UNL     1       4.835  -3.217   0.333  0.00  0.00    +0.051 C 
BRANCH  14  27
ATOM     26  C   UNL     1      -0.150   0.638   3.218  0.00  0.00    +0.009 C 
ATOM     27  C   UNL     1       0.036   0.708   1.701  0.00  0.00    +0.033 C 
ENDBRANCH  14  27
ENDBRANCH  13  23
ENDBRANCH  11  13
ENDBRANCH   1  11
BRANCH   1  28
ATOM     28  C   UNL     1       9.181   0.187   0.724  0.00  0.00    +0.067 C 
BRANCH  28  29
ATOM     29  C   UNL     1      10.660  -0.098   0.771  0.00  0.00    -0.039 C 
ATOM     30  C   UNL     1      11.590   0.283  -0.134  0.00  0.00    -0.001 A 
ATOM     31  C   UNL     1      11.507   1.046  -1.385  0.00  0.00    +0.010 A 
ATOM     32  C   UNL     1      12.638   1.272  -2.091  0.00  0.00    +0.001 A 
ATOM     33  C   UNL     1      13.884   0.797  -1.660  0.00  0.00    +0.002 A 
ATOM     34  C   UNL     1      14.040   0.089  -0.521  0.00  0.00    +0.026 A 
ATOM     35  C   UNL     1      12.918  -0.207   0.300  0.00  0.00    +0.043 A 
ATOM     36  N   UNL     1      12.812  -0.865   1.429  0.00  0.00    -0.380 N 
ATOM     37  C   UNL     1      11.405  -0.862   1.843  0.00  0.00    +0.144 C 
ATOM     38  H   UNL     1      13.543  -1.281   1.913  0.00  0.00    +0.160 HD
ENDBRANCH  28  29
ENDBRANCH   1  28
TORSDOF 9
