REMARK  Name = ZINC20719356
REMARK  9 active torsions:
REMARK  status: ('A' for Active; 'I' for Inactive)
REMARK    1  A    between atoms: C_1  and  O_2
REMARK    2  A    between atoms: O_2  and  C_3
REMARK    3  A    between atoms: C_3  and  C_5
REMARK    4  A    between atoms: C_5  and  C_7
REMARK    5  A    between atoms: C_5  and  N_11
REMARK    6  A    between atoms: C_7  and  C_8
REMARK    7  A    between atoms: C_8  and  S_9
REMARK    8  A    between atoms: S_9  and  C_10
REMARK    9  A    between atoms: C_23  and  C_25
REMARK                            x       y       z     vdW  Elec       q    Type
REMARK                         _______ _______ _______ _____ _____    ______ ____
ROOT
ATOM      1  N   UNL     1      -0.602  -2.322  -3.519  0.00  0.00    -0.286 N 
ATOM      2  C   UNL     1       0.714  -2.613  -3.504  0.00  0.00    +0.304 C 
ATOM      3  O   UNL     1       1.360  -2.455  -2.486  0.00  0.00    -0.253 OA
ATOM      4  N   UNL     1       1.313  -3.078  -4.618  0.00  0.00    -0.273 N 
ATOM      5  C   UNL     1       2.720  -3.505  -4.594  0.00  0.00    +0.116 C 
ATOM      6  C   UNL     1       2.796  -5.008  -4.891  0.00  0.00    +0.076 C 
ATOM      7  C   UNL     1       1.900  -5.318  -6.064  0.00  0.00    +0.066 A 
ATOM      8  C   UNL     1       0.913  -4.508  -6.505  0.00  0.00    +0.064 A 
ATOM      9  N   UNL     1       0.329  -5.126  -7.566  0.00  0.00    -0.346 N 
ATOM     10  H   UNL     1      -0.413  -4.789  -8.093  0.00  0.00    +0.167 HD
ATOM     11  C   UNL     1       0.979  -6.298  -7.748  0.00  0.00    +0.197 A 
ATOM     12  N   UNL     1       1.917  -6.403  -6.844  0.00  0.00    -0.240 NA
ATOM     13  C   UNL     1       0.574  -3.178  -5.889  0.00  0.00    +0.156 C 
ATOM     14  H   UNL     1      -1.101  -2.374  -4.349  0.00  0.00    +0.151 HD
ENDROOT
BRANCH  13  15
ATOM     15  C   UNL     1       0.995  -2.067  -6.816  0.00  0.00    -0.020 A 
ATOM     16  C   UNL     1       0.080  -1.104  -7.201  0.00  0.00    +0.006 A 
ATOM     17  C   UNL     1       0.465  -0.084  -8.051  0.00  0.00    +0.002 A 
ATOM     18  C   UNL     1       1.765  -0.027  -8.517  0.00  0.00    +0.020 A 
ATOM     19  C   UNL     1       2.681  -0.990  -8.133  0.00  0.00    +0.041 A 
ATOM     20  C   UNL     1       2.296  -2.007  -7.277  0.00  0.00    +0.025 A 
ATOM     21 CL   UNL     1       4.314  -0.918  -8.718  0.00  0.00    -0.084 Cl
ENDBRANCH  13  15
BRANCH   1  22
ATOM     22  C   UNL     1      -1.279  -1.929  -2.280  0.00  0.00    +0.184 C 
BRANCH  22  23
ATOM     23  C   UNL     1      -1.708  -3.163  -1.528  0.00  0.00    +0.327 C 
ATOM     24  O   UNL     1      -1.471  -4.258  -1.980  0.00  0.00    -0.249 OA
BRANCH  23  26
ATOM     25  C   UNL     1      -2.728  -4.255   0.302  0.00  0.00    +0.280 C 
ATOM     26  O   UNL     1      -2.351  -3.044  -0.356  0.00  0.00    -0.467 OA
ENDBRANCH  23  26
ENDBRANCH  22  23
BRANCH  22  27
ATOM     27  C   UNL     1      -2.510  -1.085  -2.618  0.00  0.00    +0.044 C 
BRANCH  27  28
ATOM     28  C   UNL     1      -2.066   0.226  -3.271  0.00  0.00    +0.071 C 
BRANCH  28  29
ATOM     29  S   UNL     1      -3.525   1.227  -3.671  0.00  0.00    -0.164 S 
ATOM     30  C   UNL     1      -2.835   2.725  -4.427  0.00  0.00    +0.084 C 
ENDBRANCH  28  29
ENDBRANCH  27  28
ENDBRANCH  22  27
ENDBRANCH   1  22
TORSDOF 7
