REMARK  Name = ZINC11347394
REMARK  6 active torsions:
REMARK  status: ('A' for Active; 'I' for Inactive)
REMARK    1  A    between atoms: C_1  and  C_2
REMARK    2  A    between atoms: C_2  and  C_4
REMARK    3  A    between atoms: C_2  and  S_18
REMARK    4  A    between atoms: C_9  and  C_12
REMARK    5  A    between atoms: S_18  and  C_19
REMARK    6  A    between atoms: C_22  and  C_24
REMARK                            x       y       z     vdW  Elec       q    Type
REMARK                         _______ _______ _______ _____ _____    ______ ____
ROOT
ATOM      1  C   UNL     1       3.208  -6.309  -1.364  0.00  0.00    +0.029 C 
ATOM      2  C   UNL     1       3.988  -6.108  -0.063  0.00  0.00    +0.139 C 
ENDROOT
BRANCH   2   3
ATOM      3  C   UNL     1       5.062  -7.159   0.046  0.00  0.00    +0.232 C 
ATOM      4  O   UNL     1       6.208  -6.887  -0.242  0.00  0.00    -0.274 OA
ATOM      5  N   UNL     1       4.749  -8.401   0.465  0.00  0.00    -0.264 N 
ATOM      6  C   UNL     1       5.740  -9.370   0.566  0.00  0.00    +0.165 A 
ATOM      7  N   UNL     1       5.640 -10.629   0.951  0.00  0.00    -0.225 NA
ATOM      8  C   UNL     1       6.700 -11.423   0.987  0.00  0.00    +0.080 A 
ATOM      9  C   UNL     1       7.921 -10.929   0.620  0.00  0.00    +0.076 A 
ATOM     10  S   UNL     1       7.485  -9.246   0.202  0.00  0.00    -0.060 S 
ATOM     11  H   UNL     1       3.832  -8.618   0.696  0.00  0.00    +0.157 HD
BRANCH   8  12
ATOM     12  C   UNL     1       6.564 -12.834   1.424  0.00  0.00    +0.001 A 
ATOM     13  C   UNL     1       7.681 -13.667   1.456  0.00  0.00    +0.010 A 
ATOM     14  C   UNL     1       7.549 -14.977   1.867  0.00  0.00    +0.001 A 
ATOM     15  C   UNL     1       6.310 -15.468   2.238  0.00  0.00    +0.000 A 
ATOM     16  C   UNL     1       5.197 -14.647   2.203  0.00  0.00    +0.001 A 
ATOM     17  C   UNL     1       5.318 -13.333   1.798  0.00  0.00    +0.010 A 
ENDBRANCH   8  12
ENDBRANCH   2   3
BRANCH   2  18
ATOM     18  S   UNL     1       4.748  -4.465  -0.063  0.00  0.00    -0.053 S 
BRANCH  18  19
ATOM     19  C   UNL     1       3.303  -3.458  -0.046  0.00  0.00    +0.278 A 
ATOM     20  N   UNL     1       2.062  -3.883  -0.035  0.00  0.00    -0.101 NA
ATOM     21  N   UNL     1       1.264  -2.874  -0.018  0.00  0.00    -0.106 NA
ATOM     22  C   UNL     1       1.963  -1.764  -0.025  0.00  0.00    +0.251 A 
ATOM     23  O   UNL     1       3.269  -2.111  -0.040  0.00  0.00    -0.411 OA
BRANCH  22  24
ATOM     24  C   UNL     1       1.423  -0.391  -0.014  0.00  0.00    +0.063 A 
ATOM     25  C   UNL     1       2.140   0.763  -0.014  0.00  0.00    +0.097 A 
ATOM     26  N   UNL     1       1.292   1.832  -0.000  0.00  0.00    -0.360 N 
ATOM     27  H   UNL     1       1.571   2.761   0.002  0.00  0.00    +0.165 HD
ATOM     28  C   UNL     1      -0.017   1.401   0.010  0.00  0.00    +0.047 A 
ATOM     29  C   UNL     1       0.002  -0.004   0.002  0.00  0.00    +0.012 A 
ATOM     30  C   UNL     1      -1.194  -0.718   0.010  0.00  0.00    +0.011 A 
ATOM     31  C   UNL     1      -2.393  -0.040   0.025  0.00  0.00    +0.001 A 
ATOM     32  C   UNL     1      -2.413   1.347   0.034  0.00  0.00    +0.002 A 
ATOM     33  C   UNL     1      -1.238   2.067   0.030  0.00  0.00    +0.026 A 
ENDBRANCH  22  24
ENDBRANCH  18  19
ENDBRANCH   2  18
TORSDOF 5
