REMARK  Name = ZINC38943740
REMARK  7 active torsions:
REMARK  status: ('A' for Active; 'I' for Inactive)
REMARK    1  A    between atoms: C_1  and  C_2
REMARK    2  A    between atoms: C_2  and  C_3
REMARK    3  A    between atoms: C_2  and  C_4
REMARK    4  A    between atoms: C_2  and  C_5
REMARK    5  A    between atoms: C_13  and  N_16
REMARK    6  A    between atoms: N_19  and  C_20
REMARK    7  A    between atoms: C_20  and  C_21
REMARK                            x       y       z     vdW  Elec       q    Type
REMARK                         _______ _______ _______ _____ _____    ______ ____
ROOT
ATOM      1  C   UNL     1       0.714   0.118  -0.807  0.00  0.00    +0.225 C 
ATOM      2  O   UNL     1       0.945   1.065  -1.529  0.00  0.00    -0.275 OA
ATOM      3  N   UNL     1       0.921  -1.136  -1.254  0.00  0.00    -0.270 N 
ATOM      4  C   UNL     1       0.780  -2.350  -0.445  0.00  0.00    +0.118 C 
ATOM      5  C   UNL     1       1.120  -3.510  -1.395  0.00  0.00    +0.056 C 
ATOM      6  C   UNL     1       1.438  -2.841  -2.714  0.00  0.00    -0.024 A 
ATOM      7  C   UNL     1       1.297  -1.470  -2.558  0.00  0.00    +0.041 A 
ATOM      8  C   UNL     1       1.535  -0.636  -3.650  0.00  0.00    +0.047 A 
ATOM      9  C   UNL     1       1.902  -1.174  -4.872  0.00  0.00    +0.037 A 
ATOM     10  C   UNL     1       2.035  -2.549  -5.016  0.00  0.00    +0.024 A 
ATOM     11  C   UNL     1       1.809  -3.376  -3.933  0.00  0.00    +0.007 A 
ENDROOT
BRANCH   9  12
ATOM     12  N   UNL     1       2.138  -0.331  -5.965  0.00  0.00    -0.269 N 
ATOM     13  C   UNL     1       1.839  -0.744  -7.212  0.00  0.00    +0.304 C 
ATOM     14  O   UNL     1       1.269  -1.805  -7.380  0.00  0.00    -0.252 OA
ATOM     15  N   UNL     1       2.170   0.018  -8.272  0.00  0.00    -0.295 N 
ATOM     16  H   UNL     1       2.518   0.550  -5.824  0.00  0.00    +0.156 HD
ATOM     17  H   UNL     1       2.625   0.865  -8.138  0.00  0.00    +0.151 HD
BRANCH  15  18
ATOM     18  C   UNL     1       1.845  -0.431  -9.628  0.00  0.00    +0.148 C 
BRANCH  18  19
ATOM     19  C   UNL     1       2.319   0.595 -10.625  0.00  0.00    +0.007 A 
ATOM     20  C   UNL     1       3.516   0.683 -11.255  0.00  0.00    +0.013 A 
ATOM     21  C   UNL     1       3.732   1.722 -12.141  0.00  0.00    +0.008 A 
ATOM     22  C   UNL     1       2.741   2.622 -12.353  0.00  0.00    +0.045 A 
ATOM     23  S   UNL     1       1.448   2.005 -11.288  0.00  0.00    -0.100 S 
ENDBRANCH  18  19
ENDBRANCH  15  18
ENDBRANCH   9  12
BRANCH   1  25
ATOM     24  C   UNL     1       0.088   1.847   0.857  0.00  0.00    +0.020 C 
ATOM     25  C   UNL     1       0.195   0.345   0.590  0.00  0.00    +0.039 C 
ATOM     26  C   UNL     1       1.157  -0.285   1.600  0.00  0.00    +0.020 C 
ATOM     27  C   UNL     1      -1.186  -0.298   0.731  0.00  0.00    +0.020 C 
ENDBRANCH   1  25
TORSDOF 4
