REMARK  Name = ZINC05353771
REMARK  13 active torsions:
REMARK  status: ('A' for Active; 'I' for Inactive)
REMARK    1  A    between atoms: C_1  and  C_2
REMARK    2  A    between atoms: C_2  and  C_3
REMARK    3  A    between atoms: C_2  and  C_4
REMARK    4  A    between atoms: C_2  and  C_5
REMARK    5  A    between atoms: C_7  and  C_16
REMARK    6  A    between atoms: C_9  and  C_12
REMARK    7  A    between atoms: C_10  and  O_11
REMARK    8  A    between atoms: C_12  and  C_13
REMARK    9  A    between atoms: C_12  and  C_14
REMARK   10  A    between atoms: C_12  and  C_15
REMARK   11  A    between atoms: N_17  and  N_18
REMARK   12  A    between atoms: C_19  and  C_21
REMARK   13  A    between atoms: C_23  and  C_27
REMARK                            x       y       z     vdW  Elec       q    Type
REMARK                         _______ _______ _______ _____ _____    ______ ____
ROOT
ATOM      1  C   UNL     1       2.413   0.934  -4.260  0.00  0.00    +0.138 C 
ATOM      2  N   UNL     1       3.021   0.512  -5.327  0.00  0.00    -0.187 NA
ENDROOT
BRANCH   1   5
ATOM      3  C   UNL     1       0.707  -0.490  -1.238  0.00  0.00    +0.000 A 
ATOM      4  C   UNL     1       1.215   0.418  -2.141  0.00  0.00    +0.017 A 
ATOM      5  C   UNL     1       1.869  -0.034  -3.291  0.00  0.00    -0.005 A 
ATOM      6  C   UNL     1       2.006  -1.406  -3.518  0.00  0.00    +0.017 A 
ATOM      7  C   UNL     1       1.495  -2.307  -2.609  0.00  0.00    +0.000 A 
ATOM      8  C   UNL     1       0.850  -1.853  -1.465  0.00  0.00    +0.124 A 
BRANCH   3  10
ATOM      9  C   UNL     1      -0.019   1.526   0.010  0.00  0.00    +0.015 C 
ATOM     10  C   UNL     1       0.002  -0.004   0.002  0.00  0.00    -0.009 C 
ATOM     11  C   UNL     1       0.742  -0.511   1.242  0.00  0.00    +0.015 C 
ATOM     12  C   UNL     1      -1.433  -0.534   0.013  0.00  0.00    +0.015 C 
ENDBRANCH   3  10
BRANCH   7  13
ATOM     13  C   UNL     1       1.642  -3.787  -2.853  0.00  0.00    -0.009 C 
ATOM     14  C   UNL     1       2.389  -4.015  -4.168  0.00  0.00    +0.015 C 
ATOM     15  C   UNL     1       2.429  -4.418  -1.702  0.00  0.00    +0.015 C 
ATOM     16  C   UNL     1       0.256  -4.429  -2.935  0.00  0.00    +0.015 C 
ENDBRANCH   7  13
BRANCH   8  17
ATOM     17  O   UNL     1       0.353  -2.745  -0.569  0.00  0.00    -0.506 OA
ATOM     18  H   UNL     1      -0.560  -3.011  -0.745  0.00  0.00    +0.292 HD
ENDBRANCH   8  17
ENDBRANCH   1   5
BRANCH   2  19
ATOM     19  N   UNL     1       3.538   1.432  -6.249  0.00  0.00    -0.202 N 
ATOM     20  C   UNL     1       4.168   0.994  -7.356  0.00  0.00    +0.281 C 
ATOM     21  O   UNL     1       4.289  -0.200  -7.556  0.00  0.00    -0.267 OA
ATOM     22  H   UNL     1       3.442   2.384  -6.090  0.00  0.00    +0.178 HD
BRANCH  20  23
ATOM     23  C   UNL     1       4.712   1.960  -8.324  0.00  0.00    +0.122 A 
ATOM     24  C   UNL     1       5.375   1.668  -9.502  0.00  0.00    +0.062 A 
ATOM     25  C   UNL     1       5.691   2.916 -10.069  0.00  0.00    +0.095 A 
ATOM     26  N   UNL     1       5.234   3.848  -9.259  0.00  0.00    -0.173 NA
ATOM     27  N   UNL     1       4.655   3.323  -8.240  0.00  0.00    -0.272 N 
ATOM     28  H   UNL     1       4.242   3.820  -7.516  0.00  0.00    +0.189 HD
BRANCH  25  29
ATOM     29  C   UNL     1       6.410   3.141 -11.347  0.00  0.00    +0.020 A 
ATOM     30  C   UNL     1       6.836   2.056 -12.111  0.00  0.00    +0.011 A 
ATOM     31  C   UNL     1       7.504   2.271 -13.299  0.00  0.00    +0.001 A 
ATOM     32  C   UNL     1       7.752   3.561 -13.733  0.00  0.00    +0.001 A 
ATOM     33  C   UNL     1       7.332   4.642 -12.981  0.00  0.00    +0.020 A 
ATOM     34  C   UNL     1       6.658   4.439 -11.792  0.00  0.00    +0.050 A 
ATOM     35 CL   UNL     1       6.125   5.797 -10.851  0.00  0.00    -0.083 Cl
ENDBRANCH  25  29
ENDBRANCH  20  23
ENDBRANCH   2  19
TORSDOF 7
