REMARK  Name = ZINC35746453
REMARK  15 active torsions:
REMARK  status: ('A' for Active; 'I' for Inactive)
REMARK    1  A    between atoms: C_1  and  C_2
REMARK    2  A    between atoms: C_5  and  C_9
REMARK    3  A    between atoms: C_6  and  C_8
REMARK    4  A    between atoms: C_18  and  C_20
REMARK    5  A    between atoms: C_20  and  N_21
REMARK    6  A    between atoms: N_21  and  C_22
REMARK    7  A    between atoms: N_21  and  C_25
REMARK    8  A    between atoms: C_22  and  C_23
REMARK    9  A    between atoms: C_25  and  C_26
REMARK   10  A    between atoms: C_26  and  C_28
REMARK   11  A    between atoms: C_26  and  O_33
REMARK   12  A    between atoms: C_28  and  O_29
REMARK   13  A    between atoms: O_29  and  C_30
REMARK   14  A    between atoms: C_30  and  C_31
REMARK   15  A    between atoms: C_30  and  C_32
REMARK                            x       y       z     vdW  Elec       q    Type
REMARK                         _______ _______ _______ _____ _____    ______ ____
ROOT
ATOM      1  C   UNL     1      -0.147  -3.924   0.583  0.00  0.00    +0.004 A 
ATOM      2  C   UNL     1       0.923  -4.505  -0.011  0.00  0.00    +0.056 A 
ATOM      3  S   UNL     1       0.482  -6.231  -0.057  0.00  0.00    -0.076 S 
ATOM      4  C   UNL     1      -1.112  -6.134   0.715  0.00  0.00    +0.116 A 
ATOM      5  C   UNL     1      -1.263  -4.766   0.996  0.00  0.00    +0.080 A 
ATOM      6  C   UNL     1      -2.488  -4.396   1.638  0.00  0.00    +0.260 A 
ATOM      7  O   UNL     1      -2.713  -3.231   1.918  0.00  0.00    -0.267 OA
ATOM      8  N   UNL     1      -3.387  -5.355   1.928  0.00  0.00    -0.312 N 
ATOM      9  H   UNL     1      -4.219  -5.110   2.364  0.00  0.00    +0.170 HD
ATOM     10  C   UNL     1      -3.154  -6.657   1.623  0.00  0.00    +0.094 A 
ATOM     11  N   UNL     1      -2.051  -7.024   1.028  0.00  0.00    -0.229 NA
ENDROOT
BRANCH   1  16
ATOM     12  C   UNL     1      -0.275   1.762   1.484  0.00  0.00    +0.044 C 
ATOM     13  C   UNL     1      -0.241   0.274   1.248  0.00  0.00    -0.050 A 
ATOM     14  C   UNL     1      -0.235  -0.219  -0.045  0.00  0.00    +0.004 A 
ATOM     15  C   UNL     1      -0.204  -1.580  -0.267  0.00  0.00    +0.009 A 
ATOM     16  C   UNL     1      -0.180  -2.460   0.815  0.00  0.00    -0.014 A 
ATOM     17  C   UNL     1      -0.186  -1.957   2.115  0.00  0.00    -0.042 A 
ATOM     18  C   UNL     1      -0.212  -0.593   2.325  0.00  0.00    +0.007 A 
ATOM     19  C   UNL     1      -0.160  -2.901   3.290  0.00  0.00    +0.044 C 
ENDBRANCH   1  16
BRANCH  10  20
ATOM     20  C   UNL     1      -4.190  -7.696   1.967  0.00  0.00    -0.003 C 
BRANCH  20  21
ATOM     21  N   UNL     1      -3.666  -9.032   1.656  0.00  0.00    +0.388 N 
ATOM     22  H   UNL     1      -3.347  -9.054   0.699  0.00  0.00    -0.081 HD
BRANCH  21  23
ATOM     23  C   UNL     1      -4.728 -10.030   1.841  0.00  0.00    -0.051 C 
BRANCH  23  24
ATOM     24  C   UNL     1      -5.816  -9.801   0.824  0.00  0.00    -0.053 C 
ATOM     25  C   UNL     1      -6.189 -10.777   0.033  0.00  0.00    +0.002 C 
ENDBRANCH  23  24
ENDBRANCH  21  23
BRANCH  21  26
ATOM     26  C   UNL     1      -2.544  -9.339   2.553  0.00  0.00    -0.044 C 
BRANCH  26  27
ATOM     27  C   UNL     1      -1.919 -10.675   2.149  0.00  0.00    +0.124 C 
BRANCH  27  28
ATOM     28  O   UNL     1      -1.340 -10.557   0.848  0.00  0.00    -0.391 OA
ATOM     29  H   UNL     1      -0.646  -9.886   0.785  0.00  0.00    +0.210 HD
ENDBRANCH  27  28
BRANCH  27  30
ATOM     30  C   UNL     1      -0.832 -11.056   3.157  0.00  0.00    +0.189 C 
BRANCH  30  31
ATOM     31  O   UNL     1      -0.329 -12.357   2.847  0.00  0.00    -0.375 OA
BRANCH  31  32
ATOM     32  C   UNL     1       0.697 -12.810   3.733  0.00  0.00    +0.112 C 
ATOM     33  C   UNL     1       0.645 -14.335   3.835  0.00  0.00    +0.037 C 
ATOM     34  C   UNL     1       2.063 -12.380   3.194  0.00  0.00    +0.037 C 
ENDBRANCH  31  32
ENDBRANCH  30  31
ENDBRANCH  27  30
ENDBRANCH  26  27
ENDBRANCH  21  26
ENDBRANCH  20  21
ENDBRANCH  10  20
TORSDOF 11
