REMARK  Name = ZINC36038431
REMARK  12 active torsions:
REMARK  status: ('A' for Active; 'I' for Inactive)
REMARK    1  A    between atoms: C_1  and  C_2
REMARK    2  A    between atoms: C_2  and  C_3
REMARK    3  A    between atoms: C_3  and  C_5
REMARK    4  A    between atoms: C_3  and  C_6
REMARK    5  A    between atoms: C_6  and  N_7
REMARK    6  A    between atoms: C_10  and  C_32
REMARK    7  A    between atoms: N_16  and  S_19
REMARK    8  A    between atoms: S_19  and  C_22
REMARK    9  A    between atoms: C_26  and  C_28
REMARK   10  A    between atoms: C_32  and  C_33
REMARK   11  A    between atoms: C_33  and  C_34
REMARK   12  A    between atoms: C_33  and  C_35
REMARK                            x       y       z     vdW  Elec       q    Type
REMARK                         _______ _______ _______ _____ _____    ______ ____
ROOT
ATOM      1  N   UNL     1      -2.467  -2.522   0.203  0.00  0.00    -0.313 N 
ATOM      2  C   UNL     1      -3.323  -2.772   1.215  0.00  0.00    +0.200 C 
ATOM      3  O   UNL     1      -3.146  -2.484   2.380  0.00  0.00    -0.277 OA
ATOM      4  C   UNL     1      -4.542  -3.470   0.652  0.00  0.00    +0.019 C 
ATOM      5  N   UNL     1      -4.478  -3.223  -0.809  0.00  0.00    +0.401 N 
ATOM      6  C   UNL     1      -3.037  -3.018  -1.053  0.00  0.00    +0.006 C 
ATOM      7  C   UNL     1      -2.389  -4.347  -1.438  0.00  0.00    +0.023 C 
ATOM      8  C   UNL     1      -0.887  -4.137  -1.655  0.00  0.00    +0.109 C 
ATOM      9  N   UNL     1      -0.697  -3.057  -2.632  0.00  0.00    -0.177 NA
ATOM     10  C   UNL     1      -1.343  -1.760  -2.388  0.00  0.00    +0.109 C 
ATOM     11  C   UNL     1      -2.841  -1.990  -2.166  0.00  0.00    +0.023 C 
ATOM     12  H   UNL     1      -4.819  -4.024  -1.321  0.00  0.00    -0.082 HD
ATOM     13  H   UNL     1      -4.998  -2.394  -1.053  0.00  0.00    -0.082 HD
ENDROOT
BRANCH   9  14
ATOM     14  S   UNL     1       0.228  -3.297  -3.985  0.00  0.00    +0.061 S 
ATOM     15  O   UNL     1       0.677  -2.015  -4.403  0.00  0.00    -0.153 OA
ATOM     16  O   UNL     1       1.126  -4.356  -3.680  0.00  0.00    -0.153 OA
BRANCH  14  17
ATOM     17  C   UNL     1      -0.843  -3.893  -5.250  0.00  0.00    +0.106 A 
ATOM     18  C   UNL     1      -1.052  -5.252  -5.396  0.00  0.00    +0.028 A 
ATOM     19  C   UNL     1      -1.893  -5.720  -6.388  0.00  0.00    +0.002 A 
ATOM     20  C   UNL     1      -2.525  -4.829  -7.235  0.00  0.00    +0.012 A 
ATOM     21  C   UNL     1      -2.317  -3.470  -7.089  0.00  0.00    +0.057 A 
ATOM     22  C   UNL     1      -1.479  -3.002  -6.094  0.00  0.00    +0.041 A 
BRANCH  21  23
ATOM     23  C   UNL     1      -3.006  -2.499  -8.013  0.00  0.00    +0.417 C 
ATOM     24  F   UNL     1      -3.796  -3.205  -8.926  0.00  0.00    -0.166 F 
ATOM     25  F   UNL     1      -3.814  -1.637  -7.264  0.00  0.00    -0.166 F 
ATOM     26  F   UNL     1      -2.046  -1.753  -8.706  0.00  0.00    -0.166 F 
ENDBRANCH  21  23
ENDBRANCH  14  17
ENDBRANCH   9  14
BRANCH   1  27
ATOM     27  C   UNL     1      -1.171  -1.853   0.337  0.00  0.00    +0.109 C 
BRANCH  27  28
ATOM     28  C   UNL     1      -1.390  -0.353   0.542  0.00  0.00    +0.003 C 
ATOM     29  C   UNL     1      -2.310   0.183  -0.557  0.00  0.00    +0.009 C 
BRANCH  28  31
ATOM     30  C   UNL     1      -0.248   1.853   0.808  0.00  0.00    +0.004 C 
ATOM     31  C   UNL     1      -0.045   0.373   0.479  0.00  0.00    +0.001 C 
ENDBRANCH  28  31
ENDBRANCH  27  28
ENDBRANCH   1  27
BRANCH   4  32
ATOM     32  C   UNL     1      -5.820  -2.869   1.241  0.00  0.00    -0.004 C 
BRANCH  32  33
ATOM     33  C   UNL     1      -5.879  -3.165   2.741  0.00  0.00    -0.018 C 
ATOM     34  C   UNL     1      -7.107  -2.483   3.347  0.00  0.00    +0.007 C 
ATOM     35  C   UNL     1      -5.975  -4.676   2.959  0.00  0.00    +0.007 C 
ENDBRANCH  32  33
ENDBRANCH   4  32
TORSDOF 8
