REMARK  Name = ZINC63493350
REMARK  8 active torsions:
REMARK  status: ('A' for Active; 'I' for Inactive)
REMARK    1  A    between atoms: C_1  and  C_2
REMARK    2  A    between atoms: C_7  and  O_28
REMARK    3  A    between atoms: C_13  and  C_15
REMARK    4  A    between atoms: C_15  and  C_16
REMARK    5  A    between atoms: N_18  and  C_19
REMARK    6  A    between atoms: O_28  and  C_29
REMARK    7  A    between atoms: C_29  and  C_30
REMARK    8  A    between atoms: C_30  and  C_32
REMARK                            x       y       z     vdW  Elec       q    Type
REMARK                         _______ _______ _______ _____ _____    ______ ____
ROOT
ATOM      1  C   UNL     1      -0.019   1.526   0.010  0.00  0.00    +0.013 C 
ATOM      2  C   UNL     1       0.002  -0.004   0.002  0.00  0.00    +0.034 C 
ATOM      3  C   UNL     1      -1.413  -0.524   0.009  0.00  0.00    +0.000 A 
ATOM      4  C   UNL     1      -2.113  -0.549  -1.188  0.00  0.00    +0.031 A 
ATOM      5  C   UNL     1      -3.413  -1.010  -1.230  0.00  0.00    +0.083 A 
ATOM      6  C   UNL     1      -4.029  -1.452  -0.066  0.00  0.00    +0.143 A 
ATOM      7  C   UNL     1      -3.333  -1.432   1.131  0.00  0.00    +0.093 A 
ATOM      8  C   UNL     1      -2.021  -0.971   1.169  0.00  0.00    +0.139 A 
ATOM      9  O   UNL     1      -1.367  -0.986   2.362  0.00  0.00    -0.425 OA
ATOM     10  C   UNL     1      -0.179  -0.353   2.429  0.00  0.00    +0.316 C 
ATOM     11  O   UNL     1       0.133   0.308   3.392  0.00  0.00    -0.250 OA
ATOM     12  C   UNL     1       0.747  -0.510   1.241  0.00  0.00    +0.114 C 
ATOM     13 CL   UNL     1      -4.279  -1.037  -2.734  0.00  0.00    -0.080 Cl
ENDROOT
BRANCH  12  14
ATOM     14  C   UNL     1       1.114  -1.984   1.061  0.00  0.00    +0.111 C 
BRANCH  14  15
ATOM     15  C   UNL     1       1.951  -2.440   2.228  0.00  0.00    +0.217 C 
ATOM     16  O   UNL     1       2.227  -1.662   3.117  0.00  0.00    -0.276 OA
ATOM     17  N   UNL     1       2.393  -3.712   2.284  0.00  0.00    -0.278 N 
ATOM     18  H   UNL     1       2.173  -4.334   1.574  0.00  0.00    +0.152 HD
BRANCH  17  19
ATOM     19  C   UNL     1       3.207  -4.155   3.419  0.00  0.00    +0.269 C 
ATOM     20  N   UNL     1       4.590  -3.686   3.261  0.00  0.00    -0.348 N 
ATOM     21  C   UNL     1       5.355  -4.738   3.210  0.00  0.00    +0.061 A 
ATOM     22  C   UNL     1       6.807  -4.910   3.063  0.00  0.00    +0.027 A 
ATOM     23  C   UNL     1       7.330  -6.152   3.042  0.00  0.00    +0.002 A 
ATOM     24  C   UNL     1       6.540  -7.310   3.156  0.00  0.00    +0.002 A 
ATOM     25  C   UNL     1       5.200  -7.264   3.295  0.00  0.00    +0.027 A 
ATOM     26  C   UNL     1       4.519  -5.963   3.332  0.00  0.00    +0.061 A 
ATOM     27  N   UNL     1       3.268  -5.621   3.453  0.00  0.00    -0.348 N 
ATOM     28  H   UNL     1       2.515  -6.225   3.549  0.00  0.00    +0.163 HD
ATOM     29  H   UNL     1       4.879  -2.762   3.205  0.00  0.00    +0.163 HD
ENDBRANCH  17  19
ENDBRANCH  14  15
ENDBRANCH  12  14
BRANCH   6  30
ATOM     30  O   UNL     1      -5.311  -1.903  -0.101  0.00  0.00    -0.486 OA
BRANCH  30  31
ATOM     31  C   UNL     1      -5.878  -2.342   1.135  0.00  0.00    +0.259 C 
BRANCH  31  32
ATOM     32  C   UNL     1      -7.294  -2.803   0.901  0.00  0.00    -0.043 C 
ATOM     33  C   UNL     1      -7.808  -2.757  -0.303  0.00  0.00    +0.011 C 
ATOM     34  C   UNL     1      -8.118  -3.318   2.053  0.00  0.00    +0.042 C 
ENDBRANCH  31  32
ENDBRANCH  30  31
ENDBRANCH   6  30
TORSDOF 6
