REMARK  Name = ZINC32863259
REMARK  5 active torsions:
REMARK  status: ('A' for Active; 'I' for Inactive)
REMARK    1  A    between atoms: C_1  and  C_2
REMARK    2  A    between atoms: C_5  and  S_8
REMARK    3  A    between atoms: S_8  and  N_11
REMARK    4  A    between atoms: N_19  and  C_20
REMARK    5  A    between atoms: C_26  and  C_28
REMARK                            x       y       z     vdW  Elec       q    Type
REMARK                         _______ _______ _______ _____ _____    ______ ____
ROOT
ATOM      1  N   UNL     1      -3.149   0.588   1.602  0.00  0.00    -0.174 NA
ATOM      2  C   UNL     1      -2.692  -0.619   2.307  0.00  0.00    +0.128 C 
ATOM      3  C   UNL     1      -1.946  -0.184   3.579  0.00  0.00    +0.126 C 
ATOM      4  N   UNL     1      -2.780   0.786   4.303  0.00  0.00    -0.283 N 
ATOM      5  C   UNL     1      -3.241   1.989   3.597  0.00  0.00    +0.126 C 
ATOM      6  C   UNL     1      -3.983   1.557   2.326  0.00  0.00    +0.128 C 
ATOM      7  C   UNL     1      -3.115   0.575   5.592  0.00  0.00    +0.303 C 
ATOM      8  O   UNL     1      -3.727   1.427   6.207  0.00  0.00    -0.253 OA
ATOM      9  N   UNL     1      -2.772  -0.579   6.197  0.00  0.00    -0.296 N 
ATOM     10  H   UNL     1      -2.148  -1.314   5.668  0.00  0.00    +0.151 HD
ENDROOT
BRANCH   9  11
ATOM     11  C   UNL     1      -3.231  -0.855   7.561  0.00  0.00    +0.077 C 
ATOM     12  C   UNL     1      -2.268  -0.214   8.563  0.00  0.00    +0.022 C 
ATOM     13  C   UNL     1      -0.867  -0.797   8.368  0.00  0.00    +0.002 C 
ATOM     14  C   UNL     1      -0.908  -2.310   8.596  0.00  0.00    +0.000 C 
ATOM     15  C   UNL     1      -1.871  -2.950   7.594  0.00  0.00    +0.005 C 
ATOM     16  C   UNL     1      -3.272  -2.368   7.789  0.00  0.00    +0.006 C 
ATOM     17  C   UNL     1      -4.234  -3.008   6.787  0.00  0.00    +0.009 C 
ENDBRANCH   9  11
BRANCH   1  18
ATOM     18  S   UNL     1      -2.737   0.846   0.019  0.00  0.00    +0.061 S 
ATOM     19  O   UNL     1      -3.727   1.710  -0.522  0.00  0.00    -0.153 OA
ATOM     20  O   UNL     1      -2.451  -0.429  -0.539  0.00  0.00    -0.153 OA
BRANCH  18  25
ATOM     21  C   UNL     1       2.445   3.937  -0.005  0.00  0.00    +0.044 C 
ATOM     22  C   UNL     1       1.151   3.165   0.004  0.00  0.00    -0.050 A 
ATOM     23  C   UNL     1       1.170   1.783  -0.003  0.00  0.00    +0.005 A 
ATOM     24  C   UNL     1      -0.017   1.075   0.006  0.00  0.00    +0.029 A 
ATOM     25  C   UNL     1      -1.224   1.749   0.015  0.00  0.00    +0.105 A 
ATOM     26  C   UNL     1      -1.243   3.131   0.027  0.00  0.00    +0.029 A 
ATOM     27  C   UNL     1      -0.056   3.839   0.018  0.00  0.00    +0.005 A 
ENDBRANCH  18  25
ENDBRANCH   1  18
TORSDOF 3
