REMARK  Name = ZINC38700457
REMARK  11 active torsions:
REMARK  status: ('A' for Active; 'I' for Inactive)
REMARK    1  A    between atoms: C_1  and  C_2
REMARK    2  A    between atoms: C_2  and  C_3
REMARK    3  A    between atoms: C_6  and  C_9
REMARK    4  A    between atoms: C_14  and  O_23
REMARK    5  A    between atoms: C_18  and  N_22
REMARK    6  A    between atoms: C_19  and  C_20
REMARK    7  A    between atoms: O_23  and  C_24
REMARK    8  A    between atoms: C_24  and  C_26
REMARK    9  A    between atoms: C_27  and  C_37
REMARK   10  A    between atoms: C_29  and  C_36
REMARK   11  A    between atoms: C_31  and  C_35
REMARK                            x       y       z     vdW  Elec       q    Type
REMARK                         _______ _______ _______ _____ _____    ______ ____
ROOT
ATOM      1  C   UNL     1       2.990  -1.971   4.562  0.00  0.00    +0.098 C 
ATOM      2  C   UNL     1       2.413  -3.302   4.968  0.00  0.00    +0.008 A 
ATOM      3  C   UNL     1       2.723  -4.431   4.230  0.00  0.00    +0.012 A 
ATOM      4  C   UNL     1       2.204  -5.659   4.587  0.00  0.00    +0.047 A 
ATOM      5  C   UNL     1       1.368  -5.765   5.690  0.00  0.00    +0.136 A 
ATOM      6  C   UNL     1       1.055  -4.636   6.430  0.00  0.00    +0.093 A 
ATOM      7  C   UNL     1       1.578  -3.401   6.070  0.00  0.00    +0.138 A 
ATOM      8  O   UNL     1       1.263  -2.307   6.805  0.00  0.00    -0.441 OA
ATOM      9  C   UNL     1       2.031  -1.206   6.731  0.00  0.00    +0.199 C 
ATOM     10  C   UNL     1       2.869  -0.990   5.694  0.00  0.00    +0.098 C 
ENDROOT
BRANCH   1  14
ATOM     11  C   UNL     1       0.867  -0.487   1.166  0.00  0.00    -0.048 A 
ATOM     12  C   UNL     1       2.226  -0.726   1.081  0.00  0.00    +0.004 A 
ATOM     13  C   UNL     1       2.913  -1.206   2.180  0.00  0.00    +0.005 A 
ATOM     14  C   UNL     1       2.241  -1.447   3.364  0.00  0.00    -0.035 A 
ATOM     15  C   UNL     1       0.882  -1.207   3.449  0.00  0.00    +0.005 A 
ATOM     16  C   UNL     1       0.196  -0.722   2.351  0.00  0.00    +0.004 A 
BRANCH  11  18
ATOM     17  C   UNL     1       0.135   1.566  -0.017  0.00  0.00    +0.009 C 
ATOM     18  C   UNL     1       0.118   0.037  -0.033  0.00  0.00    +0.032 C 
ENDBRANCH  11  18
ENDBRANCH   1  14
BRANCH   9  19
ATOM     19  N   UNL     1       1.960  -0.276   7.738  0.00  0.00    -0.328 N 
ATOM     20  H   UNL     1       1.362  -0.418   8.488  0.00  0.00    +0.145 HD
ATOM     21  H   UNL     1       2.508   0.523   7.699  0.00  0.00    +0.145 HD
ENDBRANCH   9  19
BRANCH  10  22
ATOM     22  C   UNL     1       3.659   0.204   5.675  0.00  0.00    +0.101 C 
ATOM     23  N   UNL     1       4.287   1.151   5.660  0.00  0.00    -0.191 NA
ENDBRANCH  10  22
BRANCH   5  24
ATOM     24  O   UNL     1       0.856  -6.974   6.043  0.00  0.00    -0.420 OA
BRANCH  24  25
ATOM     25  C   UNL     1      -0.475  -7.157   5.923  0.00  0.00    +0.380 C 
ATOM     26  O   UNL     1      -1.165  -6.292   5.418  0.00  0.00    -0.241 OA
BRANCH  25  27
ATOM     27  C   UNL     1      -1.090  -8.401   6.400  0.00  0.00    +0.216 A 
ATOM     28  C   UNL     1      -2.415  -8.698   6.326  0.00  0.00    +0.010 A 
ATOM     29  C   UNL     1      -2.566 -10.027   6.917  0.00  0.00    +0.027 A 
ATOM     30  C   UNL     1      -3.653 -10.876   7.137  0.00  0.00    -0.039 A 
ATOM     31  C   UNL     1      -3.453 -12.091   7.731  0.00  0.00    +0.007 A 
ATOM     32  C   UNL     1      -2.179 -12.485   8.116  0.00  0.00    -0.047 A 
ATOM     33  C   UNL     1      -1.094 -11.661   7.908  0.00  0.00    +0.050 A 
ATOM     34  C   UNL     1      -1.272 -10.421   7.305  0.00  0.00    +0.137 A 
ATOM     35  O   UNL     1      -0.426  -9.427   6.973  0.00  0.00    -0.448 OA
ATOM     36  C   UNL     1      -1.980 -13.828   8.770  0.00  0.00    +0.044 C 
ATOM     37  C   UNL     1      -5.039 -10.455   6.723  0.00  0.00    +0.044 C 
ATOM     38  C   UNL     1      -3.506  -7.832   5.752  0.00  0.00    +0.048 C 
ENDBRANCH  25  27
ENDBRANCH  24  25
ENDBRANCH   5  24
TORSDOF 7
