REMARK  Name = ZINC08891591
REMARK  11 active torsions:
REMARK  status: ('A' for Active; 'I' for Inactive)
REMARK    1  A    between atoms: C_1  and  C_2
REMARK    2  A    between atoms: C_2  and  C_3
REMARK    3  A    between atoms: C_3  and  C_4
REMARK    4  A    between atoms: C_4  and  C_6
REMARK    5  A    between atoms: C_4  and  C_27
REMARK    6  A    between atoms: C_6  and  N_7
REMARK    7  A    between atoms: C_8  and  C_10
REMARK    8  A    between atoms: C_10  and  N_11
REMARK    9  A    between atoms: C_14  and  C_18
REMARK   10  A    between atoms: C_14  and  C_20
REMARK   11  A    between atoms: C_18  and  C_19
REMARK                            x       y       z     vdW  Elec       q    Type
REMARK                         _______ _______ _______ _____ _____    ______ ____
ROOT
ATOM      1  C   UNL     1       1.507   7.564   2.772  0.00  0.00    +0.213 C 
ENDROOT
BRANCH   1   2
ATOM      2  N   UNL     1       1.082   6.868   1.555  0.00  0.00    -0.215 N 
ATOM      3  C   UNL     1      -0.051   6.145   1.453  0.00  0.00    +0.251 C 
ATOM      4  O   UNL     1      -0.879   5.956   2.317  0.00  0.00    -0.272 OA
ATOM      5  C   UNL     1      -0.074   5.619   0.032  0.00  0.00    +0.138 C 
ATOM      6  N   UNL     1       1.164   6.157  -0.557  0.00  0.00    -0.281 N 
ATOM      7  C   UNL     1       1.770   6.872   0.408  0.00  0.00    +0.310 C 
ATOM      8  O   UNL     1       2.825   7.456   0.255  0.00  0.00    -0.252 OA
ATOM      9  H   UNL     1       1.481   6.022  -1.464  0.00  0.00    +0.152 HD
BRANCH   5  10
ATOM     10  C   UNL     1      -0.054   4.112   0.024  0.00  0.00    -0.015 A 
ATOM     11  C   UNL     1       1.153   3.438   0.009  0.00  0.00    +0.009 A 
ATOM     12  C   UNL     1       1.173   2.056   0.002  0.00  0.00    +0.039 A 
ATOM     13  C   UNL     1      -0.016   1.347   0.009  0.00  0.00    +0.123 A 
ATOM     14  C   UNL     1      -1.224   2.023   0.019  0.00  0.00    +0.039 A 
ATOM     15  C   UNL     1      -1.242   3.405   0.031  0.00  0.00    +0.009 A 
ATOM     16  F   UNL     1       0.002  -0.004   0.002  0.00  0.00    -0.205 F 
ENDBRANCH   5  10
BRANCH   5  17
ATOM     17  C   UNL     1      -1.302   6.143  -0.717  0.00  0.00    +0.037 C 
ATOM     18  C   UNL     1      -1.234   7.669  -0.802  0.00  0.00    +0.007 C 
ENDBRANCH   5  17
ENDBRANCH   1   2
BRANCH   1  20
ATOM     19  N   UNL     1       2.864   7.069   4.780  0.00  0.00    -0.313 N 
ATOM     20  C   UNL     1       2.357   6.641   3.607  0.00  0.00    +0.231 C 
ATOM     21  O   UNL     1       2.585   5.513   3.223  0.00  0.00    -0.274 OA
ATOM     22  H   UNL     1       2.682   7.971   5.087  0.00  0.00    +0.149 HD
BRANCH  19  23
ATOM     23  C   UNL     1       3.690   6.171   5.592  0.00  0.00    +0.112 C 
BRANCH  23  24
ATOM     24  C   UNL     1       4.134   6.898   6.863  0.00  0.00    +0.038 C 
BRANCH  24  25
ATOM     25  C   UNL     1       5.082   6.020   7.638  0.00  0.00    -0.024 A 
ATOM     26  C   UNL     1       4.665   4.781   8.089  0.00  0.00    +0.007 A 
ATOM     27  C   UNL     1       5.535   3.975   8.800  0.00  0.00    +0.020 A 
ATOM     28  C   UNL     1       6.823   4.408   9.061  0.00  0.00    +0.042 A 
ATOM     29  C   UNL     1       7.241   5.647   8.610  0.00  0.00    +0.040 A 
ATOM     30  C   UNL     1       6.372   6.450   7.893  0.00  0.00    +0.046 A 
ATOM     31 CL   UNL     1       6.898   8.002   7.319  0.00  0.00    -0.083 Cl
ATOM     32 CL   UNL     1       7.915   3.396   9.954  0.00  0.00    -0.083 Cl
ENDBRANCH  24  25
BRANCH  24  33
ATOM     33  C   UNL     1       2.910   7.212   7.726  0.00  0.00    +0.009 C 
BRANCH  33  35
ATOM     34  C   UNL     1       2.114   8.360   9.797  0.00  0.00    +0.004 C 
ATOM     35  C   UNL     1       3.338   8.046   8.934  0.00  0.00    -0.003 C 
ENDBRANCH  33  35
ENDBRANCH  24  33
ENDBRANCH  23  24
ENDBRANCH  19  23
ENDBRANCH   1  20
TORSDOF 9
