REMARK  Name = ZINC19584214
REMARK  10 active torsions:
REMARK  status: ('A' for Active; 'I' for Inactive)
REMARK    1  A    between atoms: C_1  and  C_2
REMARK    2  A    between atoms: C_3  and  C_9
REMARK    3  A    between atoms: N_5  and  C_7
REMARK    4  A    between atoms: C_9  and  N_10
REMARK    5  A    between atoms: C_14  and  C_16
REMARK    6  A    between atoms: C_18  and  N_29
REMARK    7  A    between atoms: C_23  and  C_25
REMARK    8  A    between atoms: C_25  and  C_26
REMARK    9  A    between atoms: C_25  and  C_27
REMARK   10  A    between atoms: C_25  and  C_28
REMARK                            x       y       z     vdW  Elec       q    Type
REMARK                         _______ _______ _______ _____ _____    ______ ____
ROOT
ATOM      1  C   UNL     1       4.042  -0.616  -0.017  0.00  0.00    +0.033 A 
ATOM      2  C   UNL     1       3.268  -1.530  -0.732  0.00  0.00    +0.065 A 
ATOM      3  C   UNL     1       1.903  -1.421  -0.704  0.00  0.00    +0.122 A 
ATOM      4  N   UNL     1       1.334  -0.413   0.027  0.00  0.00    -0.201 N 
ATOM      5  C   UNL     1       2.133   0.464   0.714  0.00  0.00    +0.158 A 
ATOM      6  N   UNL     1       3.468   0.343   0.677  0.00  0.00    -0.234 NA
ATOM      7  C   UNL     1       1.289   1.362   1.353  0.00  0.00    +0.073 A 
ATOM      8  C   UNL     1      -0.016   1.010   1.039  0.00  0.00    +0.071 A 
ATOM      9  N   UNL     1       0.004  -0.042   0.253  0.00  0.00    -0.168 NA
ENDROOT
BRANCH   1  14
ATOM     10  N   UNL     1       6.122   0.432  -0.746  0.00  0.00    +0.388 N 
ATOM     11  C   UNL     1       6.981   1.178   0.198  0.00  0.00    -0.077 C 
ATOM     12  C   UNL     1       7.392   0.135   1.267  0.00  0.00    -0.020 C 
ATOM     13  C   UNL     1       6.095  -0.705   1.401  0.00  0.00    -0.011 C 
ATOM     14  C   UNL     1       5.544  -0.727  -0.041  0.00  0.00    -0.018 C 
ATOM     15  H   UNL     1       6.721   0.083  -1.601  0.00  0.00    -0.080 HD
BRANCH  10  16
ATOM     16  C   UNL     1       5.066   1.296  -1.292  0.00  0.00    -0.039 C 
BRANCH  16  19
ATOM     17  C   UNL     1       5.801   0.633  -4.301  0.00  0.00    +0.068 C 
ATOM     18  C   UNL     1       5.992   1.963  -3.617  0.00  0.00    +0.062 A 
ATOM     19  C   UNL     1       5.667   2.254  -2.288  0.00  0.00    -0.023 A 
ATOM     20  C   UNL     1       5.981   3.550  -2.056  0.00  0.00    +0.115 A 
ATOM     21  N   UNL     1       6.498   4.059  -3.204  0.00  0.00    -0.247 N 
ATOM     22  N   UNL     1       6.489   3.041  -4.166  0.00  0.00    -0.172 NA
BRANCH  21  23
ATOM     23  C   UNL     1       6.953   5.365  -3.392  0.00  0.00    +0.104 C 
ATOM     24  C   UNL     1       7.429   5.734  -4.565  0.00  0.00    +0.029 C 
ENDBRANCH  21  23
ENDBRANCH  16  19
ENDBRANCH  10  16
ENDBRANCH   1  14
BRANCH   8  25
ATOM     25  C   UNL     1      -1.254   1.723   1.516  0.00  0.00    +0.006 C 
ATOM     26  C   UNL     1      -1.411   3.040   0.753  0.00  0.00    +0.017 C 
ATOM     27  C   UNL     1      -2.479   0.841   1.268  0.00  0.00    +0.017 C 
ATOM     28  C   UNL     1      -1.130   2.014   3.013  0.00  0.00    +0.017 C 
ENDBRANCH   8  25
BRANCH   3  29
ATOM     29  N   UNL     1       1.116  -2.312  -1.401  0.00  0.00    -0.343 N 
ATOM     30  H   UNL     1       0.020  -2.216  -1.373  0.00  0.00    +0.144 HD
ATOM     31  H   UNL     1       1.583  -3.118  -1.986  0.00  0.00    +0.144 HD
ENDBRANCH   3  29
TORSDOF 6
