REMARK  Name = ZINC09057567
REMARK  10 active torsions:
REMARK  status: ('A' for Active; 'I' for Inactive)
REMARK    1  A    between atoms: C_1  and  C_2
REMARK    2  A    between atoms: C_2  and  C_3
REMARK    3  A    between atoms: C_3  and  C_4
REMARK    4  A    between atoms: C_4  and  O_5
REMARK    5  A    between atoms: O_5  and  C_6
REMARK    6  A    between atoms: C_10  and  N_12
REMARK    7  A    between atoms: C_13  and  C_15
REMARK    8  A    between atoms: C_16  and  N_34
REMARK    9  A    between atoms: C_18  and  C_28
REMARK   10  A    between atoms: C_31  and  C_33
REMARK                            x       y       z     vdW  Elec       q    Type
REMARK                         _______ _______ _______ _____ _____    ______ ____
ROOT
ATOM      1  C   UNL     1       1.125   7.486   0.870  0.00  0.00    +0.097 A 
ATOM      2  C   UNL     1       2.187   8.358   0.747  0.00  0.00    +0.054 A 
ATOM      3  C   UNL     1       1.902   9.770   0.573  0.00  0.00    +0.040 A 
ATOM      4  C   UNL     1       2.815  10.857   0.428  0.00  0.00    +0.034 A 
ATOM      5  C   UNL     1       2.316  12.154   0.273  0.00  0.00    -0.015 A 
ATOM      6  C   UNL     1       0.955  12.368   0.255  0.00  0.00    +0.046 A 
ATOM      7  N   UNL     1       0.118  11.346   0.394  0.00  0.00    -0.244 NA
ATOM      8  C   UNL     1       0.531  10.109   0.546  0.00  0.00    +0.112 A 
ATOM      9  S   UNL     1      -0.298   8.552   0.745  0.00  0.00    -0.062 S 
ATOM     10  C   UNL     1       0.353  13.738   0.073  0.00  0.00    +0.056 C 
ATOM     11  C   UNL     1       1.387  14.822   0.368  0.00  0.00    +0.006 C 
ATOM     12  C   UNL     1       2.650  14.520  -0.447  0.00  0.00    +0.005 C 
ATOM     13  C   UNL     1       3.314  13.275   0.139  0.00  0.00    +0.038 C 
ENDROOT
BRANCH   4  14
ATOM     14  C   UNL     1       4.269  10.616   0.441  0.00  0.00    +0.136 A 
ATOM     15  C   UNL     1       5.133  10.991   1.425  0.00  0.00    +0.050 A 
ATOM     16  C   UNL     1       6.412  10.558   1.027  0.00  0.00    +0.045 A 
ATOM     17  C   UNL     1       6.271   9.954  -0.171  0.00  0.00    +0.103 A 
ATOM     18  O   UNL     1       4.976   9.991  -0.521  0.00  0.00    -0.460 OA
ATOM     19  C   UNL     1       7.383   9.341  -0.982  0.00  0.00    +0.086 C 
ENDBRANCH   4  14
BRANCH   1  21
ATOM     20  N   UNL     1       0.006   5.388   1.148  0.00  0.00    -0.281 N 
ATOM     21  C   UNL     1       1.157   6.081   1.046  0.00  0.00    +0.257 C 
ATOM     22  O   UNL     1       2.226   5.500   1.107  0.00  0.00    -0.269 OA
ATOM     23  H   UNL     1      -0.845   5.840   1.032  0.00  0.00    +0.155 HD
BRANCH  20  28
ATOM     24  C   UNL     1       1.084   1.870   1.176  0.00  0.00    +0.122 A 
ATOM     25  C   UNL     1       0.093   1.301   1.964  0.00  0.00    +0.046 A 
ATOM     26  C   UNL     1      -0.917   2.088   2.482  0.00  0.00    +0.005 A 
ATOM     27  C   UNL     1      -0.948   3.443   2.213  0.00  0.00    +0.023 A 
ATOM     28  C   UNL     1       0.037   4.017   1.420  0.00  0.00    +0.037 A 
ATOM     29  C   UNL     1       1.053   3.228   0.898  0.00  0.00    +0.069 A 
BRANCH  24  30
ATOM     30  O   UNL     1       2.080   1.096   0.672  0.00  0.00    -0.492 OA
BRANCH  30  31
ATOM     31  C   UNL     1       2.046  -0.296   0.994  0.00  0.00    +0.229 C 
BRANCH  31  32
ATOM     32  C   UNL     1       3.239  -0.999   0.342  0.00  0.00    +0.041 C 
BRANCH  32  34
ATOM     33  C   UNL     1       4.395  -3.193   0.036  0.00  0.00    +0.004 C 
ATOM     34  C   UNL     1       3.203  -2.490   0.687  0.00  0.00    -0.000 C 
ENDBRANCH  32  34
ENDBRANCH  31  32
ENDBRANCH  30  31
ENDBRANCH  24  30
ENDBRANCH  20  28
ENDBRANCH   1  21
BRANCH   2  35
ATOM     35  N   UNL     1       3.496   7.896   0.789  0.00  0.00    -0.356 N 
ATOM     36  H   UNL     1       3.673   6.942   0.793  0.00  0.00    +0.142 HD
ATOM     37  H   UNL     1       4.232   8.527   0.814  0.00  0.00    +0.142 HD
ENDBRANCH   2  35
TORSDOF 8
