REMARK  Name = ZINC40529878
REMARK  10 active torsions:
REMARK  status: ('A' for Active; 'I' for Inactive)
REMARK    1  A    between atoms: C_2  and  C_3
REMARK    2  A    between atoms: C_3  and  O_4
REMARK    3  A    between atoms: O_4  and  C_5
REMARK    4  A    between atoms: C_9  and  C_11
REMARK    5  A    between atoms: C_16  and  O_25
REMARK    6  A    between atoms: C_20  and  N_24
REMARK    7  A    between atoms: C_21  and  C_22
REMARK    8  A    between atoms: O_25  and  C_26
REMARK    9  A    between atoms: C_26  and  C_28
REMARK   10  A    between atoms: C_28  and  C_29
REMARK                            x       y       z     vdW  Elec       q    Type
REMARK                         _______ _______ _______ _____ _____    ______ ____
ROOT
ATOM      1  C   UNL     1      -3.454  -5.686  -3.070  0.00  0.00    +0.098 C 
ATOM      2  C   UNL     1      -4.554  -5.465  -4.074  0.00  0.00    +0.008 A 
ATOM      3  C   UNL     1      -4.420  -4.466  -5.022  0.00  0.00    +0.012 A 
ATOM      4  C   UNL     1      -5.419  -4.249  -5.951  0.00  0.00    +0.047 A 
ATOM      5  C   UNL     1      -6.563  -5.035  -5.936  0.00  0.00    +0.135 A 
ATOM      6  C   UNL     1      -6.700  -6.036  -4.988  0.00  0.00    +0.093 A 
ATOM      7  C   UNL     1      -5.695  -6.253  -4.054  0.00  0.00    +0.138 A 
ATOM      8  O   UNL     1      -5.845  -7.237  -3.134  0.00  0.00    -0.441 OA
ATOM      9  C   UNL     1      -4.769  -7.721  -2.490  0.00  0.00    +0.199 C 
ATOM     10  C   UNL     1      -3.608  -7.034  -2.423  0.00  0.00    +0.098 C 
ENDROOT
BRANCH   1  15
ATOM     11  C   UNL     1      -2.509  -2.780  -0.848  0.00  0.00    +0.121 A 
ATOM     12  C   UNL     1      -3.649  -2.648  -0.069  0.00  0.00    +0.045 A 
ATOM     13  C   UNL     1      -4.720  -3.498  -0.265  0.00  0.00    +0.004 A 
ATOM     14  C   UNL     1      -4.656  -4.480  -1.236  0.00  0.00    +0.005 A 
ATOM     15  C   UNL     1      -3.521  -4.614  -2.013  0.00  0.00    -0.031 A 
ATOM     16  C   UNL     1      -2.449  -3.763  -1.825  0.00  0.00    +0.050 A 
BRANCH  11  17
ATOM     17  O   UNL     1      -1.454  -1.944  -0.658  0.00  0.00    -0.488 OA
BRANCH  17  18
ATOM     18  C   UNL     1      -1.585  -0.956   0.366  0.00  0.00    +0.256 C 
BRANCH  18  20
ATOM     19  C   UNL     1      -0.405   1.175   0.522  0.00  0.00    +0.007 C 
ATOM     20  C   UNL     1      -0.327  -0.129   0.430  0.00  0.00    +0.006 C 
ENDBRANCH  18  20
ENDBRANCH  17  18
ENDBRANCH  11  17
ENDBRANCH   1  15
BRANCH   9  21
ATOM     21  N   UNL     1      -4.855  -8.948  -1.881  0.00  0.00    -0.328 N 
ATOM     22  H   UNL     1      -5.682  -9.453  -1.920  0.00  0.00    +0.145 HD
ATOM     23  H   UNL     1      -4.087  -9.312  -1.413  0.00  0.00    +0.145 HD
ENDBRANCH   9  21
BRANCH  10  24
ATOM     24  C   UNL     1      -2.500  -7.606  -1.721  0.00  0.00    +0.101 C 
ATOM     25  N   UNL     1      -1.620  -8.059  -1.163  0.00  0.00    -0.191 NA
ENDBRANCH  10  24
BRANCH   5  26
ATOM     26  O   UNL     1      -7.547  -4.822  -6.849  0.00  0.00    -0.425 OA
BRANCH  26  27
ATOM     27  C   UNL     1      -8.713  -4.317  -6.413  0.00  0.00    +0.317 C 
ATOM     28  O   UNL     1      -8.828  -3.969  -5.262  0.00  0.00    -0.250 OA
BRANCH  27  29
ATOM     29  C   UNL     1      -9.877  -4.185  -7.361  0.00  0.00    +0.156 C 
BRANCH  29  30
ATOM     30  C   UNL     1     -11.055  -3.596  -6.629  0.00  0.00    -0.029 A 
ATOM     31  C   UNL     1     -12.002  -4.411  -6.088  0.00  0.00    +0.005 A 
ATOM     32  C   UNL     1     -13.098  -3.885  -5.408  0.00  0.00    +0.001 A 
ATOM     33  C   UNL     1     -13.255  -2.541  -5.265  0.00  0.00    +0.008 A 
ATOM     34  C   UNL     1     -12.299  -1.667  -5.810  0.00  0.00    -0.018 A 
ATOM     35  C   UNL     1     -11.180  -2.203  -6.496  0.00  0.00    -0.014 A 
ATOM     36  C   UNL     1     -10.220  -1.329  -7.036  0.00  0.00    +0.009 A 
ATOM     37  C   UNL     1     -10.374   0.015  -6.888  0.00  0.00    +0.001 A 
ATOM     38  C   UNL     1     -11.471   0.541  -6.207  0.00  0.00    +0.001 A 
ATOM     39  C   UNL     1     -12.427  -0.274  -5.683  0.00  0.00    +0.008 A 
ENDBRANCH  29  30
ENDBRANCH  27  29
ENDBRANCH  26  27
ENDBRANCH   5  26
TORSDOF 10
