REMARK  Name = ZINC20418643
REMARK  10 active torsions:
REMARK  status: ('A' for Active; 'I' for Inactive)
REMARK    1  A    between atoms: C_1  and  C_2
REMARK    2  A    between atoms: C_7  and  C_8
REMARK    3  A    between atoms: C_8  and  O_9
REMARK    4  A    between atoms: O_9  and  C_10
REMARK    5  A    between atoms: C_13  and  C_16
REMARK    6  A    between atoms: C_19  and  C_30
REMARK    7  A    between atoms: C_25  and  N_29
REMARK    8  A    between atoms: C_26  and  C_27
REMARK    9  A    between atoms: C_34  and  O_36
REMARK   10  A    between atoms: O_36  and  C_37
REMARK                            x       y       z     vdW  Elec       q    Type
REMARK                         _______ _______ _______ _____ _____    ______ ____
ROOT
ATOM      1  C   UNL     1       0.059   1.331   8.891  0.00  0.00    +0.102 C 
ATOM      2  C   UNL     1       1.237   0.725   9.610  0.00  0.00    +0.054 A 
ATOM      3  C   UNL     1       2.602   0.973   9.437  0.00  0.00    +0.100 A 
ATOM      4  N   UNL     1       3.263   0.210  10.287  0.00  0.00    -0.171 NA
ATOM      5  N   UNL     1       2.334  -0.543  11.021  0.00  0.00    -0.246 N 
ATOM      6  H   UNL     1       2.543  -1.187  11.716  0.00  0.00    +0.192 HD
ATOM      7  C   UNL     1       1.098  -0.212  10.592  0.00  0.00    +0.223 A 
ATOM      8  O   UNL     1      -0.111  -0.670  11.002  0.00  0.00    -0.423 OA
ATOM      9  C   UNL     1      -1.204   0.016  10.611  0.00  0.00    +0.200 C 
ATOM     10  C   UNL     1      -1.195   0.959   9.641  0.00  0.00    +0.098 C 
ENDROOT
BRANCH   1  14
ATOM     11  C   UNL     1      -0.137  -0.196   4.904  0.00  0.00    +0.121 A 
ATOM     12  C   UNL     1      -0.075   1.173   5.122  0.00  0.00    +0.046 A 
ATOM     13  C   UNL     1      -0.012   1.664   6.411  0.00  0.00    +0.008 A 
ATOM     14  C   UNL     1      -0.010   0.793   7.485  0.00  0.00    -0.034 A 
ATOM     15  C   UNL     1      -0.072  -0.572   7.271  0.00  0.00    +0.008 A 
ATOM     16  C   UNL     1      -0.141  -1.067   5.983  0.00  0.00    +0.046 A 
BRANCH  11  17
ATOM     17  O   UNL     1      -0.200  -0.681   3.636  0.00  0.00    -0.487 OA
BRANCH  17  18
ATOM     18  C   UNL     1      -0.192   0.275   2.574  0.00  0.00    +0.264 C 
BRANCH  18  25
ATOM     19  C   UNL     1      -0.204   1.784   0.111  0.00  0.00    +0.044 C 
ATOM     20  C   UNL     1      -0.273   0.279   0.073  0.00  0.00    -0.044 A 
ATOM     21  C   UNL     1      -0.336  -0.381  -1.141  0.00  0.00    +0.004 A 
ATOM     22  C   UNL     1      -0.398  -1.761  -1.175  0.00  0.00    +0.000 A 
ATOM     23  C   UNL     1      -0.398  -2.482   0.004  0.00  0.00    +0.000 A 
ATOM     24  C   UNL     1      -0.334  -1.824   1.217  0.00  0.00    +0.007 A 
ATOM     25  C   UNL     1      -0.267  -0.443   1.252  0.00  0.00    -0.007 A 
ENDBRANCH  18  25
ENDBRANCH  17  18
ENDBRANCH  11  17
ENDBRANCH   1  14
BRANCH   3  26
ATOM     26  C   UNL     1       3.201   1.925   8.469  0.00  0.00    +0.006 A 
ATOM     27  C   UNL     1       2.633   3.184   8.285  0.00  0.00    +0.010 A 
ATOM     28  C   UNL     1       3.192   4.068   7.384  0.00  0.00    +0.004 A 
ATOM     29  C   UNL     1       4.316   3.708   6.664  0.00  0.00    +0.045 A 
ATOM     30  C   UNL     1       4.888   2.456   6.842  0.00  0.00    +0.121 A 
ATOM     31  C   UNL     1       4.336   1.565   7.748  0.00  0.00    +0.055 A 
BRANCH  30  32
ATOM     32  O   UNL     1       5.992   2.107   6.131  0.00  0.00    -0.495 OA
ATOM     33  C   UNL     1       6.511   3.077   5.219  0.00  0.00    +0.277 C 
ENDBRANCH  30  32
ENDBRANCH   3  26
BRANCH   9  34
ATOM     34  N   UNL     1      -2.397  -0.258  11.233  0.00  0.00    -0.328 N 
ATOM     35  H   UNL     1      -2.436  -0.928  11.933  0.00  0.00    +0.145 HD
ATOM     36  H   UNL     1      -3.200   0.219  10.974  0.00  0.00    +0.145 HD
ENDBRANCH   9  34
BRANCH  10  37
ATOM     37  C   UNL     1      -2.418   1.627   9.314  0.00  0.00    +0.101 C 
ATOM     38  N   UNL     1      -3.389   2.157   9.055  0.00  0.00    -0.191 NA
ENDBRANCH  10  37
TORSDOF 8
