REMARK  Name = ZINC03441998
REMARK  9 active torsions:
REMARK  status: ('A' for Active; 'I' for Inactive)
REMARK    1  A    between atoms: C_1  and  C_2
REMARK    2  A    between atoms: C_5  and  N_8
REMARK    3  A    between atoms: C_9  and  C_28
REMARK    4  A    between atoms: C_12  and  S_13
REMARK    5  A    between atoms: S_13  and  C_14
REMARK    6  A    between atoms: C_14  and  C_15
REMARK    7  A    between atoms: N_17  and  C_18
REMARK    8  A    between atoms: C_21  and  S_24
REMARK    9  A    between atoms: S_24  and  N_27
REMARK                            x       y       z     vdW  Elec       q    Type
REMARK                         _______ _______ _______ _____ _____    ______ ____
ROOT
ATOM      1  N   UNL     1      -3.559   1.648   0.340  0.00  0.00    -0.270 N 
ATOM      2  C   UNL     1      -2.393   0.916   0.280  0.00  0.00    +0.169 A 
ATOM      3  N   UNL     1      -2.733  -0.351   0.295  0.00  0.00    -0.128 NA
ATOM      4  N   UNL     1      -4.012  -0.463   0.354  0.00  0.00    -0.122 NA
ATOM      5  C   UNL     1      -4.570   0.726   0.380  0.00  0.00    +0.197 A 
ENDROOT
BRANCH   1  10
ATOM      6  C   UNL     1      -4.065   7.301   0.397  0.00  0.00    +0.044 C 
ATOM      7  C   UNL     1      -3.930   5.800   0.382  0.00  0.00    -0.050 A 
ATOM      8  C   UNL     1      -4.377   5.078  -0.710  0.00  0.00    +0.005 A 
ATOM      9  C   UNL     1      -4.255   3.702  -0.727  0.00  0.00    +0.026 A 
ATOM     10  C   UNL     1      -3.684   3.044   0.354  0.00  0.00    +0.051 A 
ATOM     11  C   UNL     1      -3.242   3.771   1.452  0.00  0.00    +0.026 A 
ATOM     12  C   UNL     1      -3.361   5.147   1.460  0.00  0.00    +0.005 A 
ENDBRANCH   1  10
BRANCH   2  13
ATOM     13  C   UNL     1      -1.019   1.457   0.217  0.00  0.00    +0.020 A 
ATOM     14  C   UNL     1      -0.805   2.784  -0.160  0.00  0.00    +0.014 A 
ATOM     15  C   UNL     1       0.479   3.285  -0.211  0.00  0.00    +0.039 A 
ATOM     16  C   UNL     1       1.556   2.472   0.106  0.00  0.00    +0.123 A 
ATOM     17  C   UNL     1       1.349   1.152   0.475  0.00  0.00    +0.039 A 
ATOM     18  C   UNL     1       0.070   0.641   0.529  0.00  0.00    +0.014 A 
ATOM     19  F   UNL     1       2.812   2.967   0.054  0.00  0.00    -0.205 F 
ENDBRANCH   2  13
BRANCH   5  20
ATOM     20  S   UNL     1      -6.296   1.070   0.459  0.00  0.00    -0.076 S 
BRANCH  20  21
ATOM     21  C   UNL     1      -6.952  -0.617   0.488  0.00  0.00    +0.173 C 
BRANCH  21  22
ATOM     22  C   UNL     1      -8.456  -0.570   0.557  0.00  0.00    +0.227 C 
ATOM     23  O   UNL     1      -9.029   0.499   0.584  0.00  0.00    -0.275 OA
ATOM     24  N   UNL     1      -9.165  -1.715   0.589  0.00  0.00    -0.285 N 
ATOM     25  H   UNL     1      -8.707  -2.569   0.638  0.00  0.00    +0.155 HD
BRANCH  24  26
ATOM     26  C   UNL     1     -10.564  -1.674   0.552  0.00  0.00    +0.034 A 
ATOM     27  C   UNL     1     -11.306  -2.633   1.228  0.00  0.00    +0.025 A 
ATOM     28  C   UNL     1     -12.686  -2.585   1.195  0.00  0.00    +0.030 A 
ATOM     29  C   UNL     1     -13.328  -1.592   0.478  0.00  0.00    +0.105 A 
ATOM     30  C   UNL     1     -12.591  -0.639  -0.201  0.00  0.00    +0.030 A 
ATOM     31  C   UNL     1     -11.211  -0.677  -0.166  0.00  0.00    +0.025 A 
BRANCH  29  32
ATOM     32  S   UNL     1     -15.089  -1.540   0.432  0.00  0.00    +0.056 S 
ATOM     33  O   UNL     1     -15.546  -2.218   1.594  0.00  0.00    -0.153 OA
ATOM     34  O   UNL     1     -15.448  -0.195   0.143  0.00  0.00    -0.153 OA
BRANCH  32  35
ATOM     35  N   UNL     1     -15.572  -2.447  -0.867  0.00  0.00    -0.204 NA
ATOM     36  H   UNL     1     -14.910  -2.881  -1.428  0.00  0.00    +0.144 HD
ATOM     37  H   UNL     1     -16.516  -2.544  -1.067  0.00  0.00    +0.144 HD
ENDBRANCH  32  35
ENDBRANCH  29  32
ENDBRANCH  24  26
ENDBRANCH  21  22
ENDBRANCH  20  21
ENDBRANCH   5  20
TORSDOF 8
