REMARK  Name = ZINC40321991
REMARK  11 active torsions:
REMARK  status: ('A' for Active; 'I' for Inactive)
REMARK    1  A    between atoms: C_1  and  C_2
REMARK    2  A    between atoms: C_2  and  N_3
REMARK    3  A    between atoms: N_3  and  C_4
REMARK    4  A    between atoms: N_3  and  C_6
REMARK    5  A    between atoms: C_4  and  C_5
REMARK    6  A    between atoms: C_6  and  C_8
REMARK    7  A    between atoms: C_6  and  C_27
REMARK    8  A    between atoms: C_8  and  N_9
REMARK    9  A    between atoms: C_10  and  C_12
REMARK   10  A    between atoms: C_15  and  S_17
REMARK   11  A    between atoms: S_17  and  C_20
REMARK                            x       y       z     vdW  Elec       q    Type
REMARK                         _______ _______ _______ _____ _____    ______ ____
ROOT
ATOM      1  N   UNL     1       1.585  -2.378   1.073  0.00  0.00    -0.310 N 
ATOM      2  C   UNL     1       0.754  -3.437   1.139  0.00  0.00    +0.279 C 
ATOM      3  O   UNL     1      -0.383  -3.295   1.548  0.00  0.00    -0.267 OA
ATOM      4  H   UNL     1       2.466  -2.476   0.680  0.00  0.00    +0.149 HD
ENDROOT
BRANCH   2   5
ATOM      5  C   UNL     1       1.221  -4.762   0.716  0.00  0.00    +0.192 A 
ATOM      6  C   UNL     1       0.460  -5.893   0.637  0.00  0.00    +0.056 A 
ATOM      7  C   UNL     1       1.307  -6.919   0.191  0.00  0.00    +0.070 A 
ATOM      8  C   UNL     1       2.533  -6.377   0.020  0.00  0.00    +0.246 A 
ATOM      9  O   UNL     1       2.475  -5.076   0.332  0.00  0.00    -0.433 OA
BRANCH   8  10
ATOM     10  S   UNL     1       3.968  -7.238  -0.530  0.00  0.00    +0.058 S 
ATOM     11  O   UNL     1       5.089  -6.507  -0.051  0.00  0.00    -0.161 OA
ATOM     12  O   UNL     1       3.764  -8.609  -0.219  0.00  0.00    -0.161 OA
BRANCH  10  13
ATOM     13  C   UNL     1       4.005  -7.120  -2.288  0.00  0.00    +0.097 A 
ATOM     14  C   UNL     1       3.378  -8.082  -3.058  0.00  0.00    +0.029 A 
ATOM     15  C   UNL     1       3.406  -7.990  -4.437  0.00  0.00    +0.022 A 
ATOM     16  C   UNL     1       4.063  -6.936  -5.046  0.00  0.00    +0.041 A 
ATOM     17  C   UNL     1       4.691  -5.974  -4.275  0.00  0.00    +0.022 A 
ATOM     18  C   UNL     1       4.657  -6.064  -2.896  0.00  0.00    +0.029 A 
ATOM     19 CL   UNL     1       4.100  -6.821  -6.778  0.00  0.00    -0.084 Cl
ENDBRANCH  10  13
ENDBRANCH   8  10
ENDBRANCH   2   5
BRANCH   1  20
ATOM     20  C   UNL     1       1.157  -1.078   1.597  0.00  0.00    +0.094 C 
BRANCH  20  21
ATOM     21  C   UNL     1       2.218  -0.024   1.274  0.00  0.00    -0.020 C 
BRANCH  21  22
ATOM     22  C   UNL     1       1.724   1.333   1.703  0.00  0.00    -0.059 A 
ATOM     23  C   UNL     1       0.743   1.438   2.671  0.00  0.00    +0.002 A 
ATOM     24  C   UNL     1       0.290   2.683   3.065  0.00  0.00    +0.000 A 
ATOM     25  C   UNL     1       0.818   3.824   2.491  0.00  0.00    +0.000 A 
ATOM     26  C   UNL     1       1.800   3.720   1.523  0.00  0.00    +0.000 A 
ATOM     27  C   UNL     1       2.256   2.474   1.133  0.00  0.00    +0.002 A 
ENDBRANCH  21  22
BRANCH  21  28
ATOM     28  N   UNL     1       2.477  -0.017  -0.172  0.00  0.00    +0.385 N 
ATOM     29  H   UNL     1       2.366  -0.950  -0.538  0.00  0.00    -0.081 HD
BRANCH  28  31
ATOM     30  C   UNL     1       0.096   0.449  -0.508  0.00  0.00    -0.017 C 
ATOM     31  C   UNL     1       1.526   0.885  -0.835  0.00  0.00    -0.081 C 
ENDBRANCH  28  31
BRANCH  28  32
ATOM     32  C   UNL     1       3.848   0.448  -0.422  0.00  0.00    -0.081 C 
ATOM     33  C   UNL     1       4.841  -0.601   0.082  0.00  0.00    -0.017 C 
ENDBRANCH  28  32
ENDBRANCH  21  28
ENDBRANCH  20  21
ENDBRANCH   1  20
TORSDOF 9
