REMARK  Name = ZINC40734201
REMARK  14 active torsions:
REMARK  status: ('A' for Active; 'I' for Inactive)
REMARK    1  A    between atoms: C_1  and  O_2
REMARK    2  A    between atoms: O_2  and  C_3
REMARK    3  A    between atoms: C_6  and  C_11
REMARK    4  A    between atoms: C_8  and  O_9
REMARK    5  A    between atoms: O_9  and  C_10
REMARK    6  A    between atoms: C_11  and  C_12
REMARK    7  A    between atoms: C_12  and  N_13
REMARK    8  A    between atoms: N_13  and  C_14
REMARK    9  A    between atoms: C_14  and  C_15
REMARK   10  A    between atoms: C_17  and  O_31
REMARK   11  A    between atoms: C_18  and  O_22
REMARK   12  A    between atoms: O_22  and  C_23
REMARK   13  A    between atoms: C_23  and  C_24
REMARK   14  A    between atoms: O_31  and  C_32
REMARK                            x       y       z     vdW  Elec       q    Type
REMARK                         _______ _______ _______ _____ _____    ______ ____
ROOT
ATOM      1  C   UNL     1       6.735  -4.242  -6.089  0.00  0.00    -0.060 A 
ATOM      2  C   UNL     1       6.780  -5.622  -6.167  0.00  0.00    +0.051 A 
ATOM      3  C   UNL     1       7.396  -6.236  -7.245  0.00  0.00    +0.163 A 
ATOM      4  C   UNL     1       7.968  -5.461  -8.250  0.00  0.00    +0.176 A 
ATOM      5  C   UNL     1       7.919  -4.078  -8.166  0.00  0.00    +0.063 A 
ATOM      6  C   UNL     1       7.298  -3.472  -7.089  0.00  0.00    +0.021 A 
ATOM      7 BR   UNL     1       8.694  -3.020  -9.528  0.00  0.00    -0.046 Br
ENDROOT
BRANCH   3   8
ATOM      8  O   UNL     1       7.441  -7.593  -7.323  0.00  0.00    -0.491 OA
ATOM      9  C   UNL     1       6.834  -8.324  -6.256  0.00  0.00    +0.277 C 
ENDBRANCH   3   8
BRANCH   1  10
ATOM     10  C   UNL     1       6.064  -3.577  -4.915  0.00  0.00    -0.047 C 
BRANCH  10  11
ATOM     11  N   UNL     1       4.642  -3.368  -5.217  0.00  0.00    +0.382 N 
ATOM     12  H   UNL     1       4.202  -4.258  -5.396  0.00  0.00    -0.085 HD
ATOM     13  H   UNL     1       4.555  -2.779  -6.032  0.00  0.00    -0.085 HD
BRANCH  11  14
ATOM     14  C   UNL     1       3.989  -2.719  -4.072  0.00  0.00    -0.077 C 
BRANCH  14  15
ATOM     15  C   UNL     1       2.507  -2.501  -4.386  0.00  0.00    +0.016 C 
BRANCH  15  19
ATOM     16  C   UNL     1       0.606  -0.608  -1.056  0.00  0.00    +0.161 A 
ATOM     17  C   UNL     1       1.173   0.159  -2.062  0.00  0.00    +0.049 A 
ATOM     18  C   UNL     1       1.787  -0.456  -3.137  0.00  0.00    +0.007 A 
ATOM     19  C   UNL     1       1.837  -1.836  -3.212  0.00  0.00    -0.045 A 
ATOM     20  C   UNL     1       1.273  -2.606  -2.212  0.00  0.00    +0.053 A 
ATOM     21  C   UNL     1       0.662  -1.996  -1.129  0.00  0.00    +0.162 A 
BRANCH  16  23
ATOM     22  C   UNL     1      -0.017   1.425   0.010  0.00  0.00    +0.277 C 
ATOM     23  O   UNL     1       0.002  -0.004   0.002  0.00  0.00    -0.491 OA
ENDBRANCH  16  23
BRANCH  21  24
ATOM     24  O   UNL     1       0.112  -2.753  -0.142  0.00  0.00    -0.491 OA
ATOM     25  C   UNL     1       0.206  -4.171  -0.283  0.00  0.00    +0.277 C 
ENDBRANCH  21  24
ENDBRANCH  15  19
ENDBRANCH  14  15
ENDBRANCH  11  14
ENDBRANCH  10  11
ENDBRANCH   1  10
BRANCH   4  26
ATOM     26  O   UNL     1       8.573  -6.059  -9.311  0.00  0.00    -0.483 OA
BRANCH  26  27
ATOM     27  C   UNL     1       7.757  -6.345 -10.447  0.00  0.00    +0.264 C 
BRANCH  27  28
ATOM     28  C   UNL     1       8.594  -7.002 -11.515  0.00  0.00    -0.009 A 
ATOM     29  C   UNL     1       9.242  -6.227 -12.459  0.00  0.00    +0.007 A 
ATOM     30  C   UNL     1      10.010  -6.828 -13.438  0.00  0.00    +0.002 A 
ATOM     31  C   UNL     1      10.130  -8.205 -13.475  0.00  0.00    +0.020 A 
ATOM     32  C   UNL     1       9.482  -8.981 -12.530  0.00  0.00    +0.041 A 
ATOM     33  C   UNL     1       8.718  -8.378 -11.547  0.00  0.00    +0.027 A 
ATOM     34 CL   UNL     1       9.632 -10.710 -12.575  0.00  0.00    -0.084 Cl
ENDBRANCH  27  28
ENDBRANCH  26  27
ENDBRANCH   4  26
TORSDOF 11
