REMARK  Name = ZINC06239206
REMARK  8 active torsions:
REMARK  status: ('A' for Active; 'I' for Inactive)
REMARK    1  A    between atoms: C_1  and  O_2
REMARK    2  A    between atoms: O_2  and  C_3
REMARK    3  A    between atoms: C_3  and  C_4
REMARK    4  A    between atoms: C_4  and  N_5
REMARK    5  A    between atoms: C_6  and  C_10
REMARK    6  A    between atoms: C_10  and  C_12
REMARK    7  A    between atoms: C_10  and  N_62
REMARK    8  A    between atoms: C_29  and  C_32
REMARK                            x       y       z     vdW  Elec       q    Type
REMARK                         _______ _______ _______ _____ _____    ______ ____
ROOT
ATOM      1  C   UNL     1       1.688   3.140   0.002  0.00  0.00    +0.039 C 
ENDROOT
BRANCH   1   2
ATOM      2  C   UNL     1       1.506   3.724   1.379  0.00  0.00    +0.011 A 
ATOM      3  C   UNL     1       2.591   4.097   2.104  0.00  0.00    +0.017 A 
ATOM      4  C   UNL     1       2.381   4.665   3.436  0.00  0.00    +0.002 A 
ATOM      5  C   UNL     1       3.464   5.072   4.226  0.00  0.00    +0.059 A 
ATOM      6  C   UNL     1       3.235   5.596   5.479  0.00  0.00    +0.167 A 
ATOM      7  C   UNL     1       1.927   5.723   5.963  0.00  0.00    +0.168 A 
ATOM      8  C   UNL     1       0.852   5.325   5.189  0.00  0.00    +0.075 A 
ATOM      9  C   UNL     1       1.066   4.794   3.923  0.00  0.00    +0.053 A 
ATOM     10  N   UNL     1       0.006   4.392   3.136  0.00  0.00    -0.322 N 
ATOM     11  H   UNL     1      -0.927   4.485   3.482  0.00  0.00    +0.169 HD
ATOM     12  C   UNL     1       0.210   3.876   1.912  0.00  0.00    +0.251 A 
ATOM     13  O   UNL     1      -0.750   3.531   1.245  0.00  0.00    -0.268 OA
ATOM     14  O   UNL     1       1.980   6.263   7.215  0.00  0.00    -0.453 OA
ATOM     15  C   UNL     1       3.338   6.084   7.656  0.00  0.00    +0.466 C 
ATOM     16  O   UNL     1       4.097   6.059   6.433  0.00  0.00    -0.453 OA
ENDBRANCH   1   2
BRANCH   1  22
ATOM     17  C   UNL     1       1.143   3.444  -2.340  0.00  0.00    -0.072 C 
ATOM     18  C   UNL     1       0.077   4.049  -3.257  0.00  0.00    +0.017 C 
ATOM     19  C   UNL     1      -0.022   5.529  -3.012  0.00  0.00    -0.048 C 
ATOM     20  C   UNL     1       0.472   6.105  -1.938  0.00  0.00    -0.041 C 
ATOM     21  C   UNL     1       1.188   5.347  -0.857  0.00  0.00    -0.049 C 
ATOM     22  N   UNL     1       0.873   3.910  -0.965  0.00  0.00    +0.392 N 
ATOM     23  H   UNL     1      -0.121   3.768  -0.751  0.00  0.00    -0.080 HD
BRANCH  19  24
ATOM     24  C   UNL     1      -0.702   6.370  -4.019  0.00  0.00    -0.022 A 
ATOM     25  C   UNL     1      -2.064   6.202  -4.267  0.00  0.00    +0.011 A 
ATOM     26  C   UNL     1      -2.695   6.994  -5.204  0.00  0.00    +0.039 A 
ATOM     27  C   UNL     1      -1.976   7.947  -5.906  0.00  0.00    +0.123 A 
ATOM     28  C   UNL     1      -0.621   8.115  -5.668  0.00  0.00    +0.039 A 
ATOM     29  C   UNL     1       0.018   7.332  -4.729  0.00  0.00    +0.011 A 
ATOM     30  F   UNL     1      -2.597   8.717  -6.827  0.00  0.00    -0.205 F 
ENDBRANCH  19  24
ENDBRANCH   1  22
BRANCH   1  32
ATOM     31  N   UNL     1       2.006   0.610  -0.014  0.00  0.00    -0.228 N 
ATOM     32  C   UNL     1       1.226   1.706  -0.001  0.00  0.00    +0.143 A 
ATOM     33  N   UNL     1      -0.015   1.284   0.009  0.00  0.00    -0.115 NA
ATOM     34  N   UNL     1       0.002  -0.004   0.002  0.00  0.00    -0.023 NA
ATOM     35  N   UNL     1       1.222  -0.415  -0.012  0.00  0.00    -0.044 NA
BRANCH  31  36
ATOM     36  C   UNL     1       3.471   0.584  -0.029  0.00  0.00    +0.175 C 
BRANCH  36  37
ATOM     37  C   UNL     1       3.966   0.583  -1.476  0.00  0.00    +0.183 C 
BRANCH  37  39
ATOM     38  C   UNL     1       5.963   0.555  -2.802  0.00  0.00    +0.194 C 
ATOM     39  O   UNL     1       5.395   0.558  -1.491  0.00  0.00    -0.381 OA
ENDBRANCH  37  39
ENDBRANCH  36  37
ENDBRANCH  31  36
ENDBRANCH   1  32
TORSDOF 7
