REMARK  Name = ZINC34747246
REMARK  8 active torsions:
REMARK  status: ('A' for Active; 'I' for Inactive)
REMARK    1  A    between atoms: C_1  and  C_2
REMARK    2  A    between atoms: C_2  and  C_3
REMARK    3  A    between atoms: C_2  and  C_4
REMARK    4  A    between atoms: C_4  and  N_5
REMARK    5  A    between atoms: N_24  and  C_25
REMARK    6  A    between atoms: C_25  and  C_26
REMARK    7  A    between atoms: C_26  and  C_27
REMARK    8  A    between atoms: C_27  and  C_28
REMARK                            x       y       z     vdW  Elec       q    Type
REMARK                         _______ _______ _______ _____ _____    ______ ____
ROOT
ATOM      1  N   UNL     1      -0.233  -2.603  -0.470  0.00  0.00    +0.382 N 
ATOM      2  C   UNL     1       0.101  -4.008  -0.733  0.00  0.00    -0.060 C 
ATOM      3  C   UNL     1      -1.187  -4.798  -0.994  0.00  0.00    +0.089 C 
ATOM      4  N   UNL     1      -2.098  -4.592   0.143  0.00  0.00    -0.304 N 
ATOM      5  C   UNL     1      -2.361  -3.212   0.580  0.00  0.00    +0.089 C 
ATOM      6  C   UNL     1      -1.018  -2.498   0.766  0.00  0.00    -0.060 C 
ATOM      7  C   UNL     1      -2.686  -5.658   0.777  0.00  0.00    +0.202 A 
ATOM      8  N   UNL     1      -2.041  -6.274   1.745  0.00  0.00    -0.208 NA
ATOM      9  C   UNL     1      -2.587  -7.308   2.376  0.00  0.00    +0.117 A 
ATOM     10  C   UNL     1      -3.864  -7.792   2.049  0.00  0.00    +0.076 A 
ATOM     11  C   UNL     1      -4.333  -8.938   2.831  0.00  0.00    -0.023 A 
ATOM     12  C   UNL     1      -3.501  -9.413   3.780  0.00  0.00    -0.004 A 
ATOM     13  S   UNL     1      -2.064  -8.378   3.692  0.00  0.00    -0.073 S 
ATOM     14  C   UNL     1      -3.743 -10.566   4.706  0.00  0.00    +0.043 C 
ATOM     15  C   UNL     1      -5.239 -10.909   4.672  0.00  0.00    +0.005 C 
ATOM     16  C   UNL     1      -5.693 -10.982   3.211  0.00  0.00    +0.005 C 
ATOM     17  C   UNL     1      -5.697  -9.582   2.597  0.00  0.00    +0.037 C 
ATOM     18  C   UNL     1      -4.541  -7.103   0.994  0.00  0.00    +0.264 A 
ATOM     19  O   UNL     1      -5.655  -7.452   0.642  0.00  0.00    -0.267 OA
ATOM     20  N   UNL     1      -3.934  -6.059   0.400  0.00  0.00    -0.280 N 
ATOM     21  H   UNL     1      -0.772  -2.238  -1.241  0.00  0.00    -0.082 HD
ENDROOT
BRANCH   1  22
ATOM     22  C   UNL     1       1.006  -1.825  -0.329  0.00  0.00    -0.076 C 
BRANCH  22  24
ATOM     23  C   UNL     1       1.940   0.457   0.071  0.00  0.00    +0.005 C 
ATOM     24  C   UNL     1       0.664  -0.339  -0.211  0.00  0.00    -0.034 C 
ATOM     25  C   UNL     1       0.039   0.147  -1.520  0.00  0.00    +0.005 C 
ENDBRANCH  22  24
ENDBRANCH   1  22
BRANCH  20  26
ATOM     26  C   UNL     1      -4.623  -5.345  -0.678  0.00  0.00    +0.128 C 
BRANCH  26  27
ATOM     27  C   UNL     1      -4.386  -6.071  -2.004  0.00  0.00    +0.026 C 
BRANCH  27  28
ATOM     28  C   UNL     1      -5.106  -5.325  -3.129  0.00  0.00    +0.037 C 
BRANCH  28  29
ATOM     29  C   UNL     1      -4.872  -6.039  -4.435  0.00  0.00    -0.047 A 
ATOM     30  C   UNL     1      -3.782  -5.708  -5.219  0.00  0.00    +0.003 A 
ATOM     31  C   UNL     1      -3.568  -6.363  -6.417  0.00  0.00    +0.000 A 
ATOM     32  C   UNL     1      -4.443  -7.350  -6.831  0.00  0.00    +0.000 A 
ATOM     33  C   UNL     1      -5.532  -7.682  -6.047  0.00  0.00    +0.000 A 
ATOM     34  C   UNL     1      -5.744  -7.029  -4.847  0.00  0.00    +0.003 A 
ENDBRANCH  28  29
ENDBRANCH  27  28
ENDBRANCH  26  27
ENDBRANCH  20  26
TORSDOF 6
