REMARK  Name = ZINC12928919
REMARK  9 active torsions:
REMARK  status: ('A' for Active; 'I' for Inactive)
REMARK    1  A    between atoms: C_1  and  C_2
REMARK    2  A    between atoms: C_2  and  C_3
REMARK    3  A    between atoms: C_6  and  C_9
REMARK    4  A    between atoms: C_9  and  C_11
REMARK    5  A    between atoms: C_9  and  N_12
REMARK    6  A    between atoms: C_13  and  C_15
REMARK    7  A    between atoms: C_15  and  S_16
REMARK    8  A    between atoms: S_16  and  C_17
REMARK    9  A    between atoms: C_23  and  N_25
REMARK                            x       y       z     vdW  Elec       q    Type
REMARK                         _______ _______ _______ _____ _____    ______ ____
ROOT
ATOM      1  N   UNL     1      -1.744   3.565   5.669  0.00  0.00    -0.308 N 
ATOM      2  C   UNL     1      -1.994   3.615   6.992  0.00  0.00    +0.224 C 
ATOM      3  O   UNL     1      -3.023   3.151   7.433  0.00  0.00    -0.275 OA
ATOM      4  H   UNL     1      -0.920   3.936   5.316  0.00  0.00    +0.149 HD
ENDROOT
BRANCH   1   5
ATOM      5  C   UNL     1      -2.717   2.949   4.763  0.00  0.00    +0.100 C 
ATOM      6  C   UNL     1      -3.777   3.982   4.375  0.00  0.00    +0.033 C 
BRANCH   5  10
ATOM      7  C   UNL     1      -0.718   1.572   1.248  0.00  0.00    -0.048 A 
ATOM      8  C   UNL     1      -0.360   2.779   1.819  0.00  0.00    +0.004 A 
ATOM      9  C   UNL     1      -1.010   3.227   2.953  0.00  0.00    +0.006 A 
ATOM     10  C   UNL     1      -2.012   2.463   3.523  0.00  0.00    -0.027 A 
ATOM     11  C   UNL     1      -2.366   1.254   2.955  0.00  0.00    +0.006 A 
ATOM     12  C   UNL     1      -1.719   0.808   1.818  0.00  0.00    +0.004 A 
BRANCH   7  14
ATOM     13  C   UNL     1      -0.753   1.593  -1.232  0.00  0.00    +0.009 C 
ATOM     14  C   UNL     1      -0.013   1.086   0.008  0.00  0.00    +0.032 C 
ENDBRANCH   7  14
ENDBRANCH   5  10
ENDBRANCH   1   5
BRANCH   2  15
ATOM     15  C   UNL     1      -0.993   4.248   7.924  0.00  0.00    +0.173 C 
BRANCH  15  16
ATOM     16  S   UNL     1      -1.611   4.162   9.623  0.00  0.00    -0.078 S 
BRANCH  16  17
ATOM     17  C   UNL     1      -0.283   4.950  10.472  0.00  0.00    +0.171 A 
ATOM     18  N   UNL     1      -0.353   5.102  11.824  0.00  0.00    -0.302 N 
ATOM     19  H   UNL     1      -1.128   4.777  12.309  0.00  0.00    +0.171 HD
ATOM     20  C   UNL     1       0.657   5.699  12.492  0.00  0.00    +0.254 A 
ATOM     21  O   UNL     1       0.604   5.835  13.704  0.00  0.00    -0.268 OA
ATOM     22  C   UNL     1       1.761   6.163  11.771  0.00  0.00    +0.113 A 
ATOM     23  C   UNL     1       1.781   5.989  10.394  0.00  0.00    +0.124 A 
ATOM     24  N   UNL     1       0.754   5.385   9.787  0.00  0.00    -0.209 NA
BRANCH  23  25
ATOM     25  N   UNL     1       2.858   6.436   9.655  0.00  0.00    -0.343 N 
ATOM     26  H   UNL     1       2.870   6.312   8.693  0.00  0.00    +0.144 HD
ATOM     27  H   UNL     1       3.602   6.873  10.097  0.00  0.00    +0.144 HD
ENDBRANCH  23  25
ENDBRANCH  16  17
ENDBRANCH  15  16
ENDBRANCH   2  15
TORSDOF 7
