REMARK  Name = ZINC12374891
REMARK  4 active torsions:
REMARK  status: ('A' for Active; 'I' for Inactive)
REMARK    1  A    between atoms: C_3  and  C_6
REMARK    2  A    between atoms: C_9  and  C_35
REMARK    3  A    between atoms: C_13  and  C_16
REMARK    4  A    between atoms: N_21  and  C_24
REMARK                            x       y       z     vdW  Elec       q    Type
REMARK                         _______ _______ _______ _____ _____    ______ ____
ROOT
ATOM      1  C   UNL     1       5.287   1.968   1.156  0.00  0.00    +0.140 C 
ATOM      2  C   UNL     1       5.161   1.876  -0.369  0.00  0.00    +0.066 C 
ATOM      3  C   UNL     1       6.321   1.050  -0.936  0.00  0.00    +0.215 C 
ATOM      4  N   UNL     1       6.427  -0.201  -0.179  0.00  0.00    -0.238 N 
ATOM      5  C   UNL     1       5.889  -0.382   1.050  0.00  0.00    +0.130 A 
ATOM      6  C   UNL     1       6.183  -1.672   1.449  0.00  0.00    +0.096 A 
ATOM      7  C   UNL     1       6.929  -2.265   0.399  0.00  0.00    +0.149 A 
ATOM      8  N   UNL     1       7.064  -1.383  -0.554  0.00  0.00    -0.177 NA
ATOM      9  N   UNL     1       5.189   0.608   1.721  0.00  0.00    -0.319 N 
ATOM     10  H   UNL     1       4.663   0.418   2.513  0.00  0.00    +0.148 HD
ENDROOT
BRANCH   6  11
ATOM     11  C   UNL     1       5.798  -2.307   2.716  0.00  0.00    +0.251 C 
ATOM     12  O   UNL     1       4.711  -2.072   3.208  0.00  0.00    -0.270 OA
ATOM     13  N   UNL     1       6.650  -3.149   3.333  0.00  0.00    -0.301 N 
ATOM     14  C   UNL     1       8.014  -3.356   2.822  0.00  0.00    +0.089 C 
ATOM     15  C   UNL     1       8.999  -3.179   3.983  0.00  0.00    -0.059 C 
ATOM     16  N   UNL     1       8.623  -4.074   5.084  0.00  0.00    +0.385 N 
ATOM     17  C   UNL     1       7.311  -3.687   5.617  0.00  0.00    -0.059 C 
ATOM     18  C   UNL     1       6.244  -3.884   4.541  0.00  0.00    +0.089 C 
ATOM     19  H   UNL     1       8.579  -5.023   4.744  0.00  0.00    -0.081 HD
BRANCH  16  20
ATOM     20  C   UNL     1       9.629  -3.985   6.151  0.00  0.00    -0.065 C 
ATOM     21  C   UNL     1       9.701  -2.546   6.665  0.00  0.00    -0.009 C 
ATOM     22  C   UNL     1      10.749  -2.453   7.776  0.00  0.00    -0.012 C 
ATOM     23  C   UNL     1      10.358  -3.385   8.924  0.00  0.00    +0.007 C 
ATOM     24  C   UNL     1      10.286  -4.825   8.410  0.00  0.00    -0.012 C 
ATOM     25  C   UNL     1       9.238  -4.918   7.299  0.00  0.00    -0.009 C 
ATOM     26  C   UNL     1      11.652  -5.239   7.859  0.00  0.00    +0.007 C 
ATOM     27  C   UNL     1      12.042  -4.307   6.711  0.00  0.00    -0.012 C 
ATOM     28  C   UNL     1      12.115  -2.867   7.224  0.00  0.00    +0.007 C 
ATOM     29  C   UNL     1      10.994  -4.399   5.600  0.00  0.00    -0.009 C 
ENDBRANCH  16  20
ENDBRANCH   6  11
BRANCH   1  32
ATOM     30  C   UNL     1       3.006   4.520   2.524  0.00  0.00    +0.041 A 
ATOM     31  C   UNL     1       4.283   4.115   2.071  0.00  0.00    +0.046 A 
ATOM     32  C   UNL     1       4.175   2.825   1.705  0.00  0.00    +0.125 A 
ATOM     33  O   UNL     1       2.908   2.430   1.912  0.00  0.00    -0.466 OA
ATOM     34  C   UNL     1       2.195   3.454   2.408  0.00  0.00    +0.195 A 
ENDBRANCH   1  32
BRANCH   3  35
ATOM     35  C   UNL     1       6.056   0.739  -2.411  0.00  0.00    +0.412 C 
ATOM     36  F   UNL     1       5.943   1.936  -3.127  0.00  0.00    -0.168 F 
ATOM     37  F   UNL     1       7.115  -0.014  -2.927  0.00  0.00    -0.168 F 
ATOM     38  F   UNL     1       4.866   0.012  -2.528  0.00  0.00    -0.168 F 
ENDBRANCH   3  35
TORSDOF 4
