REMARK  Name = ZINC06781129
REMARK  4 active torsions:
REMARK  status: ('A' for Active; 'I' for Inactive)
REMARK    1  A    between atoms: C_4  and  C_7
REMARK    2  A    between atoms: C_7  and  N_8
REMARK    3  A    between atoms: C_21  and  C_22
REMARK    4  A    between atoms: C_25  and  O_28
REMARK                            x       y       z     vdW  Elec       q    Type
REMARK                         _______ _______ _______ _____ _____    ______ ____
ROOT
ATOM      1  N   UNL     1       4.773  -1.782   0.804  0.00  0.00    -0.272 N 
ATOM      2  C   UNL     1       6.105  -1.617   0.945  0.00  0.00    +0.263 A 
ATOM      3  O   UNL     1       6.745  -1.010   0.108  0.00  0.00    -0.267 OA
ATOM      4  C   UNL     1       6.771  -2.186   2.132  0.00  0.00    +0.064 A 
ATOM      5  C   UNL     1       8.143  -2.046   2.330  0.00  0.00    +0.015 A 
ATOM      6  C   UNL     1       8.728  -2.592   3.453  0.00  0.00    +0.001 A 
ATOM      7  C   UNL     1       7.958  -3.276   4.382  0.00  0.00    +0.002 A 
ATOM      8  C   UNL     1       6.598  -3.420   4.197  0.00  0.00    +0.027 A 
ATOM      9  C   UNL     1       5.992  -2.878   3.073  0.00  0.00    +0.064 A 
ATOM     10  N   UNL     1       4.627  -3.006   2.858  0.00  0.00    -0.260 N 
ATOM     11  C   UNL     1       4.036  -2.464   1.753  0.00  0.00    +0.240 A 
ATOM     12  N   UNL     1       2.751  -2.740   1.831  0.00  0.00    -0.110 NA
ATOM     13  N   UNL     1       2.506  -3.406   2.902  0.00  0.00    -0.127 NA
ATOM     14  C   UNL     1       3.619  -3.607   3.571  0.00  0.00    +0.170 A 
ENDROOT
BRANCH  14  15
ATOM     15  C   UNL     1       3.757  -4.329   4.853  0.00  0.00    +0.020 A 
ATOM     16  C   UNL     1       4.314  -3.688   5.961  0.00  0.00    +0.015 A 
ATOM     17  C   UNL     1       4.441  -4.364   7.155  0.00  0.00    +0.046 A 
ATOM     18  C   UNL     1       4.016  -5.683   7.257  0.00  0.00    +0.117 A 
ATOM     19  C   UNL     1       3.462  -6.324   6.158  0.00  0.00    +0.046 A 
ATOM     20  C   UNL     1       3.325  -5.653   4.962  0.00  0.00    +0.015 A 
BRANCH  18  21
ATOM     21  O   UNL     1       4.144  -6.346   8.436  0.00  0.00    -0.507 OA
ATOM     22  H   UNL     1       3.378  -6.261   9.020  0.00  0.00    +0.292 HD
ENDBRANCH  18  21
ENDBRANCH  14  15
BRANCH   1  23
ATOM     23  C   UNL     1       4.098  -1.223  -0.369  0.00  0.00    +0.163 C 
BRANCH  23  27
ATOM     24  C   UNL     1       2.821   2.763   0.484  0.00  0.00    +0.000 A 
ATOM     25  C   UNL     1       4.074   2.539  -0.055  0.00  0.00    +0.000 A 
ATOM     26  C   UNL     1       4.487   1.249  -0.331  0.00  0.00    +0.005 A 
ATOM     27  C   UNL     1       3.647   0.183  -0.068  0.00  0.00    -0.028 A 
ATOM     28  C   UNL     1       2.394   0.407   0.472  0.00  0.00    +0.005 A 
ATOM     29  C   UNL     1       1.981   1.697   0.747  0.00  0.00    +0.000 A 
ENDBRANCH  23  27
ENDBRANCH   1  23
TORSDOF 4
