REMARK  Name = ZINC35646726
REMARK  10 active torsions:
REMARK  status: ('A' for Active; 'I' for Inactive)
REMARK    1  A    between atoms: C_1  and  C_2
REMARK    2  A    between atoms: C_2  and  O_3
REMARK    3  A    between atoms: O_3  and  C_4
REMARK    4  A    between atoms: C_4  and  C_6
REMARK    5  A    between atoms: C_7  and  C_25
REMARK    6  A    between atoms: N_8  and  C_24
REMARK    7  A    between atoms: C_12  and  C_14
REMARK    8  A    between atoms: C_19  and  C_20
REMARK    9  A    between atoms: C_25  and  N_26
REMARK   10  A    between atoms: C_32  and  C_34
REMARK                            x       y       z     vdW  Elec       q    Type
REMARK                         _______ _______ _______ _____ _____    ______ ____
ROOT
ATOM      1  C   UNL     1       2.256  -1.620   2.003  0.00  0.00    +0.080 C 
ATOM      2  C   UNL     1       2.667  -2.902   1.892  0.00  0.00    +0.041 C 
ATOM      3  N   UNL     1       3.110  -3.597   2.980  0.00  0.00    -0.260 N 
ATOM      4  C   UNL     1       3.172  -3.083   4.215  0.00  0.00    +0.307 C 
ATOM      5  O   UNL     1       3.581  -3.780   5.123  0.00  0.00    -0.252 OA
ATOM      6  N   UNL     1       2.796  -1.817   4.484  0.00  0.00    -0.288 N 
ATOM      7  C   UNL     1       2.308  -0.980   3.375  0.00  0.00    +0.144 C 
ATOM      8  C   UNL     1       3.542  -4.983   2.787  0.00  0.00    +0.139 C 
ATOM      9  H   UNL     1       2.848  -1.464   5.386  0.00  0.00    +0.151 HD
ENDROOT
BRANCH   7  10
ATOM     10  C   UNL     1       0.917  -0.518   3.725  0.00  0.00    -0.011 A 
ATOM     11  C   UNL     1      -0.043  -1.439   4.103  0.00  0.00    +0.006 A 
ATOM     12  C   UNL     1      -1.319  -1.015   4.424  0.00  0.00    +0.000 A 
ATOM     13  C   UNL     1      -1.635   0.330   4.368  0.00  0.00    +0.001 A 
ATOM     14  C   UNL     1      -0.676   1.250   3.991  0.00  0.00    +0.013 A 
ATOM     15  C   UNL     1       0.602   0.827   3.674  0.00  0.00    +0.060 A 
BRANCH  15  16
ATOM     16  C   UNL     1       1.649   1.831   3.268  0.00  0.00    +0.418 C 
ATOM     17  F   UNL     1       1.111   3.121   3.338  0.00  0.00    -0.166 F 
ATOM     18  F   UNL     1       2.745   1.737   4.132  0.00  0.00    -0.166 F 
ATOM     19  F   UNL     1       2.064   1.569   1.958  0.00  0.00    -0.166 F 
ENDBRANCH  15  16
ENDBRANCH   7  10
BRANCH   1  20
ATOM     20  C   UNL     1       1.797  -0.899   0.876  0.00  0.00    +0.339 C 
ATOM     21  O   UNL     1       2.530  -0.097   0.328  0.00  0.00    -0.245 OA
BRANCH  20  22
ATOM     22  O   UNL     1       0.547  -1.100   0.409  0.00  0.00    -0.462 OA
BRANCH  22  24
ATOM     23  C   UNL     1      -1.291  -0.671  -1.100  0.00  0.00    +0.048 C 
ATOM     24  C   UNL     1       0.188  -0.421  -0.796  0.00  0.00    +0.229 C 
ENDBRANCH  22  24
ENDBRANCH  20  22
ENDBRANCH   1  20
BRANCH   2  25
ATOM     25  C   UNL     1       2.637  -3.575   0.544  0.00  0.00    +0.136 C 
BRANCH  25  26
ATOM     26  N   UNL     1       1.667  -4.678   0.570  0.00  0.00    -0.294 NA
ATOM     27  C   UNL     1       0.290  -4.168   0.609  0.00  0.00    +0.104 C 
ATOM     28  C   UNL     1      -0.679  -5.337   0.817  0.00  0.00    +0.123 C 
ATOM     29  N   UNL     1      -0.420  -6.348  -0.218  0.00  0.00    -0.293 N 
ATOM     30  C   UNL     1       0.964  -6.810  -0.410  0.00  0.00    +0.123 C 
ATOM     31  C   UNL     1       1.868  -5.583  -0.570  0.00  0.00    +0.104 C 
ATOM     32  C   UNL     1      -1.424  -6.840  -0.972  0.00  0.00    +0.282 C 
ATOM     33  O   UNL     1      -2.541  -6.368  -0.880  0.00  0.00    -0.267 OA
BRANCH  32  34
ATOM     34  C   UNL     1      -1.169  -7.945  -1.901  0.00  0.00    +0.189 A 
ATOM     35  C   UNL     1      -2.053  -8.447  -2.813  0.00  0.00    +0.054 A 
ATOM     36  C   UNL     1      -1.394  -9.488  -3.485  0.00  0.00    +0.042 A 
ATOM     37  C   UNL     1      -0.151  -9.575  -2.961  0.00  0.00    +0.196 A 
ATOM     38  O   UNL     1      -0.018  -8.641  -2.010  0.00  0.00    -0.458 OA
ENDBRANCH  32  34
ENDBRANCH  25  26
ENDBRANCH   2  25
TORSDOF 8
