REMARK  Name = ZINC12498258
REMARK  9 active torsions:
REMARK  status: ('A' for Active; 'I' for Inactive)
REMARK    1  A    between atoms: C_1  and  C_2
REMARK    2  A    between atoms: C_7  and  C_8
REMARK    3  A    between atoms: N_16  and  C_19
REMARK    4  A    between atoms: C_23  and  C_25
REMARK    5  A    between atoms: C_25  and  C_27
REMARK    6  A    between atoms: C_28  and  C_29
REMARK    7  A    between atoms: C_28  and  C_35
REMARK    8  A    between atoms: C_35  and  O_37
REMARK    9  A    between atoms: O_37  and  C_38
REMARK                            x       y       z     vdW  Elec       q    Type
REMARK                         _______ _______ _______ _____ _____    ______ ____
ROOT
ATOM      1  C   UNL     1       0.529  -1.170  -2.053  0.00  0.00    -0.026 C 
ATOM      2  C   UNL     1      -0.804  -0.471  -2.174  0.00  0.00    +0.078 C 
ATOM      3  C   UNL     1      -1.222  -0.535  -0.651  0.00  0.00    +0.090 C 
ATOM      4  C   UNL     1      -2.597  -0.054  -0.757  0.00  0.00    +0.229 C 
ATOM      5  O   UNL     1      -3.199   0.643   0.030  0.00  0.00    -0.275 OA
ATOM      6  N   UNL     1      -3.058  -0.566  -1.945  0.00  0.00    -0.210 N 
ATOM      7  C   UNL     1      -2.048  -1.040  -2.740  0.00  0.00    +0.229 C 
ATOM      8  O   UNL     1      -2.151  -1.771  -3.702  0.00  0.00    -0.275 OA
ATOM      9  C   UNL     1       0.002  -0.004   0.002  0.00  0.00    +0.070 C 
ATOM     10  N   UNL     1       1.118  -0.508  -0.849  0.00  0.00    +0.398 N 
ATOM     11  H   UNL     1       1.713   0.275  -1.141  0.00  0.00    -0.083 HD
ATOM     12  H   UNL     1       1.679  -1.187  -0.320  0.00  0.00    -0.083 HD
ENDROOT
BRANCH   1  19
ATOM     13  C   UNL     1       0.376  -2.986  -4.294  0.00  0.00    +0.044 C 
ATOM     14  C   UNL     1       0.268  -3.515  -2.888  0.00  0.00    -0.049 A 
ATOM     15  C   UNL     1       0.100  -4.870  -2.669  0.00  0.00    +0.003 A 
ATOM     16  C   UNL     1      -0.005  -5.354  -1.379  0.00  0.00    +0.000 A 
ATOM     17  C   UNL     1       0.062  -4.484  -0.306  0.00  0.00    +0.000 A 
ATOM     18  C   UNL     1       0.235  -3.130  -0.524  0.00  0.00    +0.002 A 
ATOM     19  C   UNL     1       0.341  -2.646  -1.815  0.00  0.00    -0.058 A 
ENDBRANCH   1  19
BRANCH   6  20
ATOM     20  C   UNL     1      -4.413  -0.599  -2.304  0.00  0.00    +0.045 A 
ATOM     21  C   UNL     1      -5.374  -0.095  -1.437  0.00  0.00    +0.024 A 
ATOM     22  C   UNL     1      -6.712  -0.124  -1.785  0.00  0.00    +0.003 A 
ATOM     23  C   UNL     1      -7.103  -0.654  -2.997  0.00  0.00    +0.011 A 
ATOM     24  C   UNL     1      -6.144  -1.164  -3.878  0.00  0.00    +0.019 A 
ATOM     25  C   UNL     1      -4.792  -1.129  -3.526  0.00  0.00    +0.035 A 
BRANCH  24  26
ATOM     26  C   UNL     1      -6.557  -1.731  -5.172  0.00  0.00    +0.160 C 
ATOM     27  O   UNL     1      -5.723  -2.172  -5.934  0.00  0.00    -0.292 OA
ATOM     28  C   UNL     1      -8.015  -1.762  -5.550  0.00  0.00    +0.091 C 
ENDBRANCH  24  26
ENDBRANCH   6  20
BRANCH   9  29
ATOM     29  C   UNL     1      -0.018   1.503   0.010  0.00  0.00    -0.047 A 
ATOM     30  C   UNL     1      -0.604   2.180   1.064  0.00  0.00    +0.003 A 
ATOM     31  C   UNL     1      -0.618   3.562   1.073  0.00  0.00    +0.000 A 
ATOM     32  C   UNL     1      -0.056   4.267   0.025  0.00  0.00    +0.000 A 
ATOM     33  C   UNL     1       0.524   3.590  -1.030  0.00  0.00    +0.000 A 
ATOM     34  C   UNL     1       0.543   2.207  -1.038  0.00  0.00    +0.003 A 
ENDBRANCH   9  29
BRANCH   9  35
ATOM     35  C   UNL     1       0.123  -0.535   1.407  0.00  0.00    +0.301 C 
ATOM     36  O   UNL     1      -0.867  -0.859   2.018  0.00  0.00    -0.252 OA
BRANCH  35  37
ATOM     37  O   UNL     1       1.332  -0.647   1.980  0.00  0.00    -0.469 OA
ATOM     38  C   UNL     1       1.373  -1.166   3.336  0.00  0.00    +0.280 C 
ENDBRANCH  35  37
ENDBRANCH   9  35
TORSDOF 6
