REMARK  Name = ZINC21672480
REMARK  12 active torsions:
REMARK  status: ('A' for Active; 'I' for Inactive)
REMARK    1  A    between atoms: C_1  and  C_2
REMARK    2  A    between atoms: C_4  and  N_11
REMARK    3  A    between atoms: C_6  and  C_8
REMARK    4  A    between atoms: C_8  and  C_9
REMARK    5  A    between atoms: C_8  and  C_10
REMARK    6  A    between atoms: N_14  and  C_17
REMARK    7  A    between atoms: C_17  and  C_18
REMARK    8  A    between atoms: N_20  and  N_21
REMARK    9  A    between atoms: C_24  and  C_28
REMARK   10  A    between atoms: C_24  and  C_29
REMARK   11  A    between atoms: C_29  and  C_30
REMARK   12  A    between atoms: C_30  and  C_31
REMARK                            x       y       z     vdW  Elec       q    Type
REMARK                         _______ _______ _______ _____ _____    ______ ____
ROOT
ATOM      1  C   UNL     1       4.147   1.356  -1.158  0.00  0.00    +0.213 C 
ATOM      2  O   UNL     1       3.506   1.572  -2.165  0.00  0.00    -0.276 OA
ATOM      3  N   UNL     1       3.517   0.983  -0.027  0.00  0.00    -0.225 N 
ATOM      4  H   UNL     1       4.098   0.787   0.887  0.00  0.00    +0.173 HD
ENDROOT
BRANCH   3   5
ATOM      5  N   UNL     1       2.123   0.844  -0.014  0.00  0.00    -0.137 N 
ATOM      6  C   UNL     1       1.480  -0.340  -0.014  0.00  0.00    +0.263 C 
ATOM      7  O   UNL     1       1.980  -1.445  -0.025  0.00  0.00    -0.271 OA
ATOM      8  C   UNL     1       0.002  -0.004   0.002  0.00  0.00    +0.112 C 
ATOM      9  N   UNL     1      -0.018   1.469   0.010  0.00  0.00    -0.284 N 
ATOM     10  C   UNL     1       1.266   1.871   0.000  0.00  0.00    +0.326 C 
ATOM     11  O   UNL     1       1.608   3.037   0.003  0.00  0.00    -0.251 OA
ATOM     12  C   UNL     1      -0.666  -0.558   1.262  0.00  0.00    +0.041 C 
ATOM     13  H   UNL     1      -0.978   2.006   0.022  0.00  0.00    +0.151 HD
BRANCH   8  14
ATOM     14  C   UNL     1      -0.686  -0.545  -1.253  0.00  0.00    +0.040 C 
BRANCH  14  15
ATOM     15  C   UNL     1      -2.113   0.003  -1.328  0.00  0.00    +0.038 C 
BRANCH  15  16
ATOM     16  C   UNL     1      -2.791  -0.530  -2.564  0.00  0.00    -0.047 A 
ATOM     17  C   UNL     1      -2.712   0.172  -3.752  0.00  0.00    +0.003 A 
ATOM     18  C   UNL     1      -3.331  -0.319  -4.887  0.00  0.00    +0.000 A 
ATOM     19  C   UNL     1      -4.036  -1.506  -4.831  0.00  0.00    +0.000 A 
ATOM     20  C   UNL     1      -4.119  -2.205  -3.641  0.00  0.00    +0.000 A 
ATOM     21  C   UNL     1      -3.497  -1.717  -2.507  0.00  0.00    +0.003 A 
ENDBRANCH  15  16
ENDBRANCH  14  15
ENDBRANCH   8  14
ENDBRANCH   3   5
BRANCH   1  22
ATOM     22  C   UNL     1       5.646   1.506  -1.172  0.00  0.00    +0.020 C 
BRANCH  22  26
ATOM     23  N   UNL     1       7.647   1.740  -4.885  0.00  0.00    -0.319 N 
ATOM     24  C   UNL     1       7.899   2.800  -3.899  0.00  0.00    +0.088 C 
ATOM     25  C   UNL     1       7.503   2.302  -2.507  0.00  0.00    -0.059 C 
ATOM     26  N   UNL     1       6.085   1.918  -2.512  0.00  0.00    +0.387 N 
ATOM     27  C   UNL     1       5.833   0.858  -3.498  0.00  0.00    -0.059 C 
ATOM     28  C   UNL     1       6.229   1.356  -4.891  0.00  0.00    +0.088 C 
ATOM     29  H   UNL     1       5.495   2.800  -2.803  0.00  0.00    -0.081 HD
BRANCH  23  33
ATOM     30  C   UNL     1       8.206   0.814  -9.687  0.00  0.00    +0.066 C 
ATOM     31  C   UNL     1       8.342   1.703  -8.479  0.00  0.00    +0.044 A 
ATOM     32  C   UNL     1       7.920   1.267  -7.238  0.00  0.00    +0.066 A 
ATOM     33  C   UNL     1       8.061   2.129  -6.149  0.00  0.00    +0.125 A 
ATOM     34  N   UNL     1       8.604   3.327  -6.343  0.00  0.00    -0.217 NA
ATOM     35  C   UNL     1       8.999   3.700  -7.543  0.00  0.00    +0.134 A 
ATOM     36  N   UNL     1       8.874   2.912  -8.592  0.00  0.00    -0.237 NA
BRANCH  35  37
ATOM     37  C   UNL     1       9.610   5.066  -7.722  0.00  0.00    +0.051 C 
ATOM     38  C   UNL     1      11.034   4.921  -8.262  0.00  0.00    +0.015 C 
ATOM     39  C   UNL     1       8.769   5.876  -8.711  0.00  0.00    +0.015 C 
ENDBRANCH  35  37
ENDBRANCH  23  33
ENDBRANCH  22  26
ENDBRANCH   1  22
TORSDOF 8
