REMARK  Name = ZINC63294398
REMARK  8 active torsions:
REMARK  status: ('A' for Active; 'I' for Inactive)
REMARK    1  A    between atoms: C_1  and  C_2
REMARK    2  A    between atoms: C_4  and  C_13
REMARK    3  A    between atoms: C_13  and  C_14
REMARK    4  A    between atoms: C_14  and  N_15
REMARK    5  A    between atoms: C_16  and  C_18
REMARK    6  A    between atoms: C_24  and  C_26
REMARK    7  A    between atoms: C_26  and  C_27
REMARK    8  A    between atoms: C_26  and  C_33
REMARK                            x       y       z     vdW  Elec       q    Type
REMARK                         _______ _______ _______ _____ _____    ______ ____
ROOT
ATOM      1  C   UNL     1      -7.068  -0.591  -2.613  0.00  0.00    +0.078 C 
ATOM      2  C   UNL     1      -7.525   0.866  -2.710  0.00  0.00    +0.032 C 
ATOM      3  C   UNL     1      -8.668   0.973  -3.724  0.00  0.00    +0.108 C 
ATOM      4  N   UNL     1      -9.729   0.032  -3.341  0.00  0.00    -0.301 N 
ATOM      5  C   UNL     1      -9.381  -1.380  -3.133  0.00  0.00    +0.108 C 
ATOM      6  C   UNL     1      -8.230  -1.460  -2.125  0.00  0.00    +0.032 C 
ATOM      7  C   UNL     1     -10.999   0.456  -3.184  0.00  0.00    +0.227 C 
ATOM      8  O   UNL     1     -11.274   1.625  -3.358  0.00  0.00    -0.275 OA
ENDROOT
BRANCH   1  10
ATOM      9  N   UNL     1      -4.783  -0.009  -1.867  0.00  0.00    -0.315 N 
ATOM     10  C   UNL     1      -5.921  -0.694  -1.641  0.00  0.00    +0.216 C 
ATOM     11  O   UNL     1      -6.023  -1.394  -0.655  0.00  0.00    -0.276 OA
ATOM     12  H   UNL     1      -4.702   0.550  -2.655  0.00  0.00    +0.149 HD
BRANCH   9  13
ATOM     13  C   UNL     1      -3.668  -0.110  -0.922  0.00  0.00    +0.108 C 
BRANCH  13  14
ATOM     14  C   UNL     1      -2.506   0.759  -1.409  0.00  0.00    +0.052 C 
BRANCH  14  17
ATOM     15  C   UNL     1      -0.211   2.868  -0.523  0.00  0.00    +0.035 C 
ATOM     16  C   UNL     1      -0.020   1.350  -0.535  0.00  0.00    +0.103 C 
ATOM     17  C   UNL     1      -1.359   0.656  -0.437  0.00  0.00    -0.037 C 
ATOM     18  C   UNL     1      -1.320  -0.076   0.699  0.00  0.00    +0.002 A 
ATOM     19  C   UNL     1      -2.296  -0.962   1.345  0.00  0.00    +0.048 A 
ATOM     20  C   UNL     1      -1.962  -1.572   2.507  0.00  0.00    +0.124 A 
ATOM     21  C   UNL     1      -0.707  -1.378   3.107  0.00  0.00    +0.040 A 
ATOM     22  C   UNL     1       0.240  -0.579   2.572  0.00  0.00    +0.029 A 
ATOM     23  C   UNL     1      -0.005   0.111   1.352  0.00  0.00    +0.043 A 
ATOM     24  N   UNL     1       0.741   0.927   0.646  0.00  0.00    -0.378 N 
ATOM     25  F   UNL     1      -2.858  -2.388   3.104  0.00  0.00    -0.205 F 
ATOM     26  H   UNL     1       1.644   1.205   0.867  0.00  0.00    +0.160 HD
ENDBRANCH  14  17
ENDBRANCH  13  14
ENDBRANCH   9  13
ENDBRANCH   1  10
BRANCH   7  27
ATOM     27  C   UNL     1     -12.077  -0.521  -2.791  0.00  0.00    +0.135 C 
BRANCH  27  28
ATOM     28  C   UNL     1     -13.395   0.202  -2.682  0.00  0.00    -0.031 A 
ATOM     29  C   UNL     1     -14.120   0.143  -1.506  0.00  0.00    +0.005 A 
ATOM     30  C   UNL     1     -15.329   0.806  -1.406  0.00  0.00    +0.000 A 
ATOM     31  C   UNL     1     -15.812   1.528  -2.481  0.00  0.00    +0.000 A 
ATOM     32  C   UNL     1     -15.087   1.587  -3.656  0.00  0.00    +0.000 A 
ATOM     33  C   UNL     1     -13.876   0.928  -3.755  0.00  0.00    +0.005 A 
ENDBRANCH  27  28
BRANCH  27  34
ATOM     34  C   UNL     1     -12.181  -1.601  -3.836  0.00  0.00    -0.031 A 
ATOM     35  C   UNL     1     -12.255  -1.263  -5.175  0.00  0.00    +0.005 A 
ATOM     36  C   UNL     1     -12.351  -2.253  -6.134  0.00  0.00    +0.000 A 
ATOM     37  C   UNL     1     -12.372  -3.583  -5.755  0.00  0.00    +0.000 A 
ATOM     38  C   UNL     1     -12.296  -3.921  -4.417  0.00  0.00    +0.000 A 
ATOM     39  C   UNL     1     -12.196  -2.930  -3.458  0.00  0.00    +0.005 A 
ENDBRANCH  27  34
ENDBRANCH   7  27
TORSDOF 7
