REMARK  Name = ZINC19685035
REMARK  1 active torsions:
REMARK  status: ('A' for Active; 'I' for Inactive)
REMARK    1  A    between atoms: C_10  and  C_11
REMARK                            x       y       z     vdW  Elec       q    Type
REMARK                         _______ _______ _______ _____ _____    ______ ____
ROOT
ATOM      1  C   UNL     1      -3.622  -0.748  -0.052  0.00  0.00    +0.032 A 
ATOM      2  C   UNL     1      -2.404  -0.046   0.015  0.00  0.00    +0.003 A 
ATOM      3  C   UNL     1      -1.175  -0.723   0.008  0.00  0.00    +0.033 A 
ATOM      4  C   UNL     1       0.002  -0.006   0.075  0.00  0.00    +0.031 A 
ATOM      5  C   UNL     1      -0.018   1.390   0.148  0.00  0.00    -0.024 A 
ATOM      6  C   UNL     1      -1.205   2.065   0.154  0.00  0.00    +0.033 A 
ATOM      7  C   UNL     1      -2.421   1.369   0.091  0.00  0.00    +0.074 A 
ATOM      8  N   UNL     1      -3.587   2.028   0.098  0.00  0.00    -0.231 NA
ATOM      9  C   UNL     1      -4.739   1.397   0.035  0.00  0.00    +0.140 A 
ATOM     10  C   UNL     1      -4.801  -0.015  -0.041  0.00  0.00    +0.092 A 
ATOM     11  N   UNL     1      -5.914   2.127   0.045  0.00  0.00    -0.310 N 
ATOM     12  C   UNL     1      -5.990   3.019  -1.121  0.00  0.00    +0.134 C 
ATOM     13  C   UNL     1      -7.328   3.762  -1.103  0.00  0.00    +0.178 C 
ATOM     14  O   UNL     1      -7.456   4.473   0.132  0.00  0.00    -0.377 OA
ATOM     15  C   UNL     1      -7.388   3.635   1.288  0.00  0.00    +0.178 C 
ATOM     16  C   UNL     1      -6.050   2.891   1.294  0.00  0.00    +0.134 C 
ATOM     17  C   UNL     1       1.260   2.187   0.215  0.00  0.00    +0.038 C 
ATOM     18  C   UNL     1       2.414   1.309   0.697  0.00  0.00    +0.023 C 
ATOM     19  C   UNL     1       2.462   0.038  -0.161  0.00  0.00    +0.102 C 
ATOM     20  N   UNL     1       1.216  -0.705   0.069  0.00  0.00    -0.344 N 
ATOM     21  H   UNL     1       1.246  -1.793   0.232  0.00  0.00    +0.146 HD
ENDROOT
BRANCH  10  22
ATOM     22  C   UNL     1      -6.067  -0.681  -0.108  0.00  0.00    +0.103 C 
ATOM     23  N   UNL     1      -7.071  -1.209  -0.161  0.00  0.00    -0.191 NA
ENDBRANCH  10  22
TORSDOF 1
