REMARK  Name = ZINC27748156
REMARK  5 active torsions:
REMARK  status: ('A' for Active; 'I' for Inactive)
REMARK    1  A    between atoms: C_1  and  C_2
REMARK    2  A    between atoms: C_2  and  C_3
REMARK    3  A    between atoms: C_12  and  C_14
REMARK    4  A    between atoms: N_16  and  C_17
REMARK    5  A    between atoms: C_19  and  C_22
REMARK                            x       y       z     vdW  Elec       q    Type
REMARK                         _______ _______ _______ _____ _____    ______ ____
ROOT
ATOM      1  C   UNL     1      -2.508  -2.719   0.012  0.00  0.00    +0.286 C 
ATOM      2  O   UNL     1      -2.572  -3.932   0.007  0.00  0.00    -0.266 OA
ATOM      3  N   UNL     1      -3.638  -1.985   0.027  0.00  0.00    -0.248 N 
ATOM      4  H   UNL     1      -3.580  -0.886   0.032  0.00  0.00    +0.158 HD
ENDROOT
BRANCH   1  14
ATOM      5  C   UNL     1       2.387   1.424  -0.012  0.00  0.00    -0.047 A 
ATOM      6  C   UNL     1       1.169   2.089   0.002  0.00  0.00    +0.007 A 
ATOM      7  C   UNL     1      -0.017   1.387   0.010  0.00  0.00    +0.047 A 
ATOM      8  C   UNL     1       0.002  -0.004   0.002  0.00  0.00    +0.139 A 
ATOM      9  C   UNL     1       1.240  -0.670  -0.013  0.00  0.00    +0.064 A 
ATOM     10  C   UNL     1       2.429   0.058  -0.020  0.00  0.00    +0.019 A 
ATOM     11  C   UNL     1       1.242  -2.145  -0.021  0.00  0.00    +0.193 A 
ATOM     12  O   UNL     1       2.281  -2.782  -0.035  0.00  0.00    -0.287 OA
ATOM     13  C   UNL     1      -0.069  -2.811  -0.012  0.00  0.00    +0.103 A 
ATOM     14  C   UNL     1      -1.188  -2.047   0.003  0.00  0.00    +0.194 A 
ATOM     15  O   UNL     1      -1.147  -0.707   0.010  0.00  0.00    -0.450 OA
BRANCH   5  17
ATOM     16  C   UNL     1       4.092   2.489  -1.465  0.00  0.00    +0.009 C 
ATOM     17  C   UNL     1       3.671   2.213  -0.020  0.00  0.00    +0.032 C 
ENDBRANCH   5  17
ENDBRANCH   1  14
BRANCH   3  18
ATOM     18  C   UNL     1      -4.873  -2.613   0.036  0.00  0.00    +0.225 A 
ATOM     19  C   UNL     1      -6.096  -2.010   0.056  0.00  0.00    +0.097 A 
ATOM     20  C   UNL     1      -7.010  -3.095   0.054  0.00  0.00    +0.115 A 
ATOM     21  N   UNL     1      -6.284  -4.187   0.042  0.00  0.00    -0.076 NA
ATOM     22  O   UNL     1      -5.101  -3.936   0.032  0.00  0.00    -0.339 OA
BRANCH  20  23
ATOM     23  C   UNL     1      -8.492  -3.011   0.069  0.00  0.00    +0.004 A 
ATOM     24  C   UNL     1      -9.121  -1.768   0.086  0.00  0.00    +0.013 A 
ATOM     25  C   UNL     1     -10.499  -1.694   0.094  0.00  0.00    +0.039 A 
ATOM     26  C   UNL     1     -11.257  -2.854   0.097  0.00  0.00    +0.123 A 
ATOM     27  C   UNL     1     -10.635  -4.092   0.085  0.00  0.00    +0.039 A 
ATOM     28  C   UNL     1      -9.258  -4.175   0.071  0.00  0.00    +0.013 A 
ATOM     29  F   UNL     1     -12.605  -2.777   0.111  0.00  0.00    -0.205 F 
ENDBRANCH  20  23
ENDBRANCH   3  18
TORSDOF 4
