REMARK  Name = ZINC15731929
REMARK  5 active torsions:
REMARK  status: ('A' for Active; 'I' for Inactive)
REMARK    1  A    between atoms: C_5  and  C_7
REMARK    2  A    between atoms: C_10  and  S_13
REMARK    3  A    between atoms: S_13  and  C_14
REMARK    4  A    between atoms: C_14  and  C_15
REMARK    5  A    between atoms: C_23  and  C_25
REMARK                            x       y       z     vdW  Elec       q    Type
REMARK                         _______ _______ _______ _____ _____    ______ ____
ROOT
ATOM      1  C   UNL     1      -4.095   1.733   0.033  0.00  0.00    +0.060 A 
ATOM      2  C   UNL     1      -4.866   1.772  -1.110  0.00  0.00    +0.096 A 
ATOM      3  C   UNL     1      -6.115   2.391  -1.080  0.00  0.00    +0.275 A 
ATOM      4  O   UNL     1      -6.803   2.430  -2.089  0.00  0.00    -0.266 OA
ATOM      5  N   UNL     1      -6.569   2.955   0.078  0.00  0.00    -0.171 N 
ATOM      6  C   UNL     1      -5.740   2.871   1.163  0.00  0.00    +0.199 A 
ATOM      7  N   UNL     1      -4.568   2.287   1.146  0.00  0.00    -0.225 NA
ATOM      8  S   UNL     1      -6.677   3.701   2.428  0.00  0.00    -0.032 S 
ATOM      9  C   UNL     1      -8.105   4.105   1.434  0.00  0.00    +0.105 A 
ATOM     10  N   UNL     1      -7.782   3.606   0.279  0.00  0.00    -0.159 NA
ENDROOT
BRANCH   9  11
ATOM     11  C   UNL     1      -9.361   4.836   1.832  0.00  0.00    +0.047 C 
ATOM     12  C   UNL     1     -10.508   4.420   0.909  0.00  0.00    +0.010 C 
ATOM     13  C   UNL     1     -11.783   5.162   1.313  0.00  0.00    +0.001 C 
ATOM     14  C   UNL     1     -11.554   6.671   1.196  0.00  0.00    +0.000 C 
ATOM     15  C   UNL     1     -10.407   7.086   2.119  0.00  0.00    +0.001 C 
ATOM     16  C   UNL     1      -9.132   6.344   1.715  0.00  0.00    +0.010 C 
ENDBRANCH   9  11
BRANCH   1  17
ATOM     17  C   UNL     1      -2.742   1.069   0.022  0.00  0.00    +0.133 C 
BRANCH  17  18
ATOM     18  S   UNL     1      -1.448   2.336   0.022  0.00  0.00    -0.080 S 
BRANCH  18  22
ATOM     19  C   UNL     1       2.046   0.587  -0.014  0.00  0.00    +0.165 A 
ATOM     20  N   UNL     1       1.283   1.732  -0.001  0.00  0.00    -0.316 N 
ATOM     21  H   UNL     1       1.602   2.649   0.001  0.00  0.00    +0.169 HD
ATOM     22  C   UNL     1      -0.016   1.310   0.009  0.00  0.00    +0.190 A 
ATOM     23  N   UNL     1       0.002  -0.004   0.002  0.00  0.00    -0.122 NA
ATOM     24  N   UNL     1       1.215  -0.429  -0.012  0.00  0.00    -0.128 NA
BRANCH  19  29
ATOM     25  C   UNL     1       5.541  -0.785  -0.053  0.00  0.00    +0.001 A 
ATOM     26  C   UNL     1       6.289   0.379  -0.054  0.00  0.00    +0.003 A 
ATOM     27  C   UNL     1       5.663   1.611  -0.042  0.00  0.00    +0.039 A 
ATOM     28  C   UNL     1       4.282   1.688  -0.034  0.00  0.00    +0.134 A 
ATOM     29  C   UNL     1       3.522   0.515  -0.028  0.00  0.00    +0.054 A 
ATOM     30  C   UNL     1       4.163  -0.725  -0.041  0.00  0.00    +0.014 A 
ATOM     31  F   UNL     1       3.670   2.892  -0.028  0.00  0.00    -0.205 F 
ENDBRANCH  19  29
ENDBRANCH  18  22
ENDBRANCH  17  18
ENDBRANCH   1  17
TORSDOF 5
