REMARK  Name = ZINC05545318
REMARK  11 active torsions:
REMARK  status: ('A' for Active; 'I' for Inactive)
REMARK    1  A    between atoms: C_1  and  C_2
REMARK    2  A    between atoms: C_3  and  C_28
REMARK    3  A    between atoms: C_4  and  C_20
REMARK    4  A    between atoms: C_6  and  C_9
REMARK    5  A    between atoms: N_11  and  C_12
REMARK    6  A    between atoms: C_17  and  O_18
REMARK    7  A    between atoms: O_18  and  C_19
REMARK    8  A    between atoms: C_21  and  C_22
REMARK    9  A    between atoms: N_30  and  C_31
REMARK   10  A    between atoms: C_36  and  O_37
REMARK   11  A    between atoms: O_37  and  C_38
REMARK                            x       y       z     vdW  Elec       q    Type
REMARK                         _______ _______ _______ _____ _____    ______ ____
ROOT
ATOM      1  C   UNL     1      -4.314   3.760   6.781  0.00  0.00    +0.061 C 
ATOM      2  C   UNL     1      -2.905   4.238   6.546  0.00  0.00    +0.014 C 
ATOM      3  C   UNL     1      -2.241   3.834   5.450  0.00  0.00    +0.043 C 
ATOM      4  C   UNL     1      -0.836   4.287   5.173  0.00  0.00    +0.084 C 
ATOM      5  C   UNL     1      -0.212   4.875   6.405  0.00  0.00    +0.040 C 
ATOM      6  C   UNL     1      -0.956   5.237   7.463  0.00  0.00    +0.081 C 
ATOM      7  N   UNL     1      -2.316   5.079   7.452  0.00  0.00    -0.323 N 
ATOM      8  H   UNL     1      -2.935   5.630   8.174  0.00  0.00    +0.151 HD
ENDROOT
BRANCH   5   9
ATOM      9  C   UNL     1       1.193   5.046   6.454  0.00  0.00    +0.246 C 
ATOM     10  O   UNL     1       1.714   5.517   7.449  0.00  0.00    -0.270 OA
ATOM     11  N   UNL     1       1.953   4.686   5.401  0.00  0.00    -0.279 N 
ATOM     12  H   UNL     1       1.477   4.327   4.477  0.00  0.00    +0.155 HD
BRANCH  11  13
ATOM     13  C   UNL     1       3.349   4.771   5.483  0.00  0.00    +0.076 A 
ATOM     14  C   UNL     1       3.941   5.667   6.362  0.00  0.00    +0.027 A 
ATOM     15  C   UNL     1       5.318   5.748   6.442  0.00  0.00    +0.002 A 
ATOM     16  C   UNL     1       6.109   4.938   5.647  0.00  0.00    +0.004 A 
ATOM     17  C   UNL     1       5.526   4.044   4.769  0.00  0.00    +0.047 A 
ATOM     18  C   UNL     1       4.146   3.953   4.687  0.00  0.00    +0.141 A 
BRANCH  18  19
ATOM     19  O   UNL     1       3.572   3.069   3.827  0.00  0.00    -0.493 OA
ATOM     20  C   UNL     1       4.452   2.262   3.042  0.00  0.00    +0.277 C 
ENDBRANCH  18  19
ENDBRANCH  11  13
ENDBRANCH   5   9
BRANCH   3  21
ATOM     21  C   UNL     1      -2.879   2.957   4.538  0.00  0.00    +0.247 C 
ATOM     22  O   UNL     1      -4.047   2.654   4.700  0.00  0.00    -0.270 OA
ATOM     23  N   UNL     1      -2.192   2.458   3.492  0.00  0.00    -0.279 N 
ATOM     24  H   UNL     1      -1.114   2.654   3.397  0.00  0.00    +0.155 HD
BRANCH  23  25
ATOM     25  C   UNL     1      -2.851   1.688   2.525  0.00  0.00    +0.076 A 
ATOM     26  C   UNL     1      -4.215   1.843   2.324  0.00  0.00    +0.027 A 
ATOM     27  C   UNL     1      -4.864   1.078   1.373  0.00  0.00    +0.002 A 
ATOM     28  C   UNL     1      -4.157   0.162   0.617  0.00  0.00    +0.004 A 
ATOM     29  C   UNL     1      -2.796   0.006   0.807  0.00  0.00    +0.047 A 
ATOM     30  C   UNL     1      -2.138   0.769   1.758  0.00  0.00    +0.141 A 
BRANCH  30  31
ATOM     31  O   UNL     1      -0.800   0.617   1.947  0.00  0.00    -0.493 OA
ATOM     32  C   UNL     1      -0.135  -0.348   1.129  0.00  0.00    +0.277 C 
ENDBRANCH  30  31
ENDBRANCH  23  25
ENDBRANCH   3  21
BRANCH   4  33
ATOM     33  C   UNL     1      -0.856   5.331   4.087  0.00  0.00    -0.013 C 
ATOM     34  C   UNL     1      -0.199   5.122   2.955  0.00  0.00    +0.004 C 
BRANCH  34  35
ATOM     35  C   UNL     1      -0.218   6.146   1.889  0.00  0.00    -0.025 A 
ATOM     36  C   UNL     1      -0.932   7.332   2.070  0.00  0.00    +0.008 A 
ATOM     37  C   UNL     1      -0.943   8.286   1.073  0.00  0.00    +0.001 A 
ATOM     38  C   UNL     1      -0.256   8.065  -0.107  0.00  0.00    +0.000 A 
ATOM     39  C   UNL     1       0.450   6.890  -0.294  0.00  0.00    +0.001 A 
ATOM     40  C   UNL     1       0.472   5.929   0.696  0.00  0.00    +0.008 A 
ENDBRANCH  34  35
ENDBRANCH   4  33
TORSDOF 8
