REMARK  Name = ZINC14461758
REMARK  10 active torsions:
REMARK  status: ('A' for Active; 'I' for Inactive)
REMARK    1  A    between atoms: C_1  and  C_2
REMARK    2  A    between atoms: C_2  and  N_3
REMARK    3  A    between atoms: N_3  and  C_4
REMARK    4  A    between atoms: N_3  and  C_6
REMARK    5  A    between atoms: C_4  and  C_5
REMARK    6  A    between atoms: C_9  and  C_12
REMARK    7  A    between atoms: C_23  and  S_28
REMARK    8  A    between atoms: S_28  and  N_31
REMARK    9  A    between atoms: N_31  and  C_32
REMARK   10  A    between atoms: C_32  and  C_33
REMARK                            x       y       z     vdW  Elec       q    Type
REMARK                         _______ _______ _______ _____ _____    ______ ____
ROOT
ATOM      1  C   UNL     1       1.638  -1.794   0.334  0.00  0.00    +0.105 C 
ATOM      2  C   UNL     1       1.514  -0.322   0.683  0.00  0.00    +0.029 C 
ATOM      3  C   UNL     1       2.487   0.660   0.018  0.00  0.00    +0.033 C 
ATOM      4  C   UNL     1       1.653   1.942  -0.018  0.00  0.00    -0.030 C 
ATOM      5  C   UNL     1       0.360   1.643  -0.024  0.00  0.00    -0.023 C 
ATOM      6  C   UNL     1       0.215   0.165  -0.027  0.00  0.00    +0.049 C 
ATOM      7  C   UNL     1      -0.933  -0.510   0.617  0.00  0.00    -0.018 A 
ATOM      8  C   UNL     1      -2.157   0.104   0.776  0.00  0.00    +0.034 A 
ATOM      9  C   UNL     1      -3.204  -0.574   1.372  0.00  0.00    +0.106 A 
ATOM     10  C   UNL     1      -3.026  -1.873   1.811  0.00  0.00    +0.030 A 
ATOM     11  C   UNL     1      -1.814  -2.458   1.705  0.00  0.00    +0.025 A 
ATOM     12  C   UNL     1      -0.751  -1.799   1.099  0.00  0.00    +0.031 A 
ATOM     13  N   UNL     1       0.480  -2.455   0.975  0.00  0.00    -0.336 N 
ATOM     14  H   UNL     1       0.575  -3.358   1.316  0.00  0.00    +0.147 HD
ENDROOT
BRANCH   1  18
ATOM     15  C   UNL     1       1.479  -2.324  -3.905  0.00  0.00    +0.030 A 
ATOM     16  C   UNL     1       2.696  -2.093  -3.277  0.00  0.00    +0.023 A 
ATOM     17  C   UNL     1       2.744  -1.923  -1.908  0.00  0.00    +0.007 A 
ATOM     18  C   UNL     1       1.582  -1.981  -1.161  0.00  0.00    -0.027 A 
ATOM     19  C   UNL     1       0.369  -2.216  -1.782  0.00  0.00    +0.007 A 
ATOM     20  C   UNL     1       0.313  -2.382  -3.151  0.00  0.00    +0.023 A 
BRANCH  15  21
ATOM     21  N   UNL     1       1.427  -2.497  -5.290  0.00  0.00    -0.330 N 
BRANCH  21  23
ATOM     22  C   UNL     1      -0.487  -1.404  -6.350  0.00  0.00    +0.024 C 
ATOM     23  C   UNL     1       0.141  -2.740  -5.949  0.00  0.00    +0.102 C 
ENDBRANCH  21  23
BRANCH  21  24
ATOM     24  C   UNL     1       2.657  -2.436  -6.082  0.00  0.00    +0.102 C 
ATOM     25  C   UNL     1       3.266  -3.836  -6.187  0.00  0.00    +0.024 C 
ENDBRANCH  21  24
ENDBRANCH  15  21
ENDBRANCH   1  18
BRANCH   9  26
ATOM     26  S   UNL     1      -4.766   0.218   1.572  0.00  0.00    +0.059 S 
ATOM     27  O   UNL     1      -5.419  -0.439   2.650  0.00  0.00    -0.153 OA
ATOM     28  O   UNL     1      -4.514   1.617   1.572  0.00  0.00    -0.153 OA
BRANCH  26  29
ATOM     29  N   UNL     1      -5.655  -0.103   0.213  0.00  0.00    -0.186 NA
ATOM     30  H   UNL     1      -5.910   0.620  -0.382  0.00  0.00    +0.148 HD
BRANCH  29  31
ATOM     31  C   UNL     1      -6.058  -1.478  -0.091  0.00  0.00    +0.141 C 
BRANCH  31  32
ATOM     32  C   UNL     1      -7.140  -1.465  -1.140  0.00  0.00    -0.032 A 
ATOM     33  C   UNL     1      -8.468  -1.411  -0.762  0.00  0.00    +0.005 A 
ATOM     34  C   UNL     1      -9.460  -1.394  -1.724  0.00  0.00    +0.000 A 
ATOM     35  C   UNL     1      -9.124  -1.441  -3.064  0.00  0.00    +0.000 A 
ATOM     36  C   UNL     1      -7.796  -1.500  -3.442  0.00  0.00    +0.000 A 
ATOM     37  C   UNL     1      -6.804  -1.513  -2.480  0.00  0.00    +0.005 A 
ENDBRANCH  31  32
ENDBRANCH  29  31
ENDBRANCH  26  29
ENDBRANCH   9  26
TORSDOF 8
