REMARK  Name = ZINC59016975
REMARK  8 active torsions:
REMARK  status: ('A' for Active; 'I' for Inactive)
REMARK    1  A    between atoms: C_6  and  C_7
REMARK    2  A    between atoms: C_7  and  N_8
REMARK    3  A    between atoms: C_9  and  C_11
REMARK    4  A    between atoms: C_11  and  S_12
REMARK    5  A    between atoms: S_12  and  C_13
REMARK    6  A    between atoms: N_18  and  N_19
REMARK    7  A    between atoms: C_20  and  C_21
REMARK    8  A    between atoms: C_26  and  O_27
REMARK                            x       y       z     vdW  Elec       q    Type
REMARK                         _______ _______ _______ _____ _____    ______ ____
ROOT
ATOM      1  C   UNL     1      -5.256  -3.075  -4.723  0.00  0.00    +0.211 A 
ATOM      2  N   UNL     1      -6.333  -3.703  -5.206  0.00  0.00    -0.186 NA
ATOM      3  C   UNL     1      -6.308  -3.675  -6.522  0.00  0.00    +0.232 A 
ATOM      4  N   UNL     1      -5.193  -3.016  -6.904  0.00  0.00    -0.245 N 
ATOM      5  N   UNL     1      -4.534  -2.634  -5.725  0.00  0.00    -0.144 NA
ATOM      6  N   UNL     1      -7.256  -4.224  -7.365  0.00  0.00    -0.205 N 
ATOM      7  H   UNL     1      -7.151  -4.153  -8.327  0.00  0.00    +0.177 HD
ATOM      8  H   UNL     1      -4.906  -2.839  -7.814  0.00  0.00    +0.192 HD
ENDROOT
BRANCH   6   9
ATOM      9  N   UNL     1      -8.371  -4.884  -6.830  0.00  0.00    -0.187 NA
ATOM     10  C   UNL     1      -9.261  -5.400  -7.622  0.00  0.00    +0.142 C 
BRANCH  10  11
ATOM     11  C   UNL     1     -10.433  -6.094  -7.059  0.00  0.00    +0.037 A 
ATOM     12  C   UNL     1     -11.391  -6.656  -7.907  0.00  0.00    +0.028 A 
ATOM     13  C   UNL     1     -12.486  -7.305  -7.374  0.00  0.00    +0.019 A 
ATOM     14  C   UNL     1     -12.639  -7.402  -6.001  0.00  0.00    +0.019 A 
ATOM     15  C   UNL     1     -11.698  -6.850  -5.152  0.00  0.00    +0.047 A 
ATOM     16  C   UNL     1     -10.590  -6.200  -5.671  0.00  0.00    +0.126 A 
ATOM     17 BR   UNL     1     -13.782  -8.064  -8.522  0.00  0.00    -0.050 Br
BRANCH  16  18
ATOM     18  O   UNL     1      -9.662  -5.662  -4.837  0.00  0.00    -0.506 OA
ATOM     19  H   UNL     1      -9.842  -4.745  -4.588  0.00  0.00    +0.292 HD
ENDBRANCH  16  18
ENDBRANCH  10  11
ENDBRANCH   6   9
BRANCH   1  20
ATOM     20  S   UNL     1      -4.873  -2.866  -3.015  0.00  0.00    -0.075 S 
BRANCH  20  21
ATOM     21  C   UNL     1      -3.314  -1.940  -3.025  0.00  0.00    +0.173 C 
BRANCH  21  23
ATOM     22  N   UNL     1      -1.727  -1.016  -1.368  0.00  0.00    -0.311 N 
ATOM     23  C   UNL     1      -2.868  -1.691  -1.607  0.00  0.00    +0.224 C 
ATOM     24  O   UNL     1      -3.537  -2.098  -0.681  0.00  0.00    -0.275 OA
ATOM     25  H   UNL     1      -1.192  -0.690  -2.109  0.00  0.00    +0.149 HD
BRANCH  22  26
ATOM     26  C   UNL     1      -1.294  -0.774   0.010  0.00  0.00    +0.139 C 
BRANCH  26  32
ATOM     27  C   UNL     1      -0.017   1.378   0.010  0.00  0.00    +0.009 A 
ATOM     28  C   UNL     1       1.170   2.088   0.002  0.00  0.00    +0.050 A 
ATOM     29  C   UNL     1       2.380   1.416  -0.013  0.00  0.00    +0.166 A 
ATOM     30  C   UNL     1       2.399   0.023  -0.021  0.00  0.00    +0.167 A 
ATOM     31  C   UNL     1       1.207  -0.682  -0.014  0.00  0.00    +0.054 A 
ATOM     32  C   UNL     1       0.002  -0.004   0.002  0.00  0.00    -0.027 A 
ATOM     33  O   UNL     1       3.698  -0.395  -0.036  0.00  0.00    -0.453 OA
ATOM     34  C   UNL     1       4.466   0.750  -0.450  0.00  0.00    +0.466 C 
ATOM     35  O   UNL     1       3.668   1.870  -0.024  0.00  0.00    -0.453 OA
ENDBRANCH  26  32
ENDBRANCH  22  26
ENDBRANCH  21  23
ENDBRANCH  20  21
ENDBRANCH   1  20
TORSDOF 8
