REMARK  Name = ZINC05081428
REMARK  3 active torsions:
REMARK  status: ('A' for Active; 'I' for Inactive)
REMARK    1  A    between atoms: C_3  and  N_24
REMARK    2  A    between atoms: C_6  and  C_7
REMARK    3  A    between atoms: C_10  and  C_17
REMARK                            x       y       z     vdW  Elec       q    Type
REMARK                         _______ _______ _______ _____ _____    ______ ____
ROOT
ATOM      1  C   UNL     1      -1.293  -0.775   0.010  0.00  0.00    +0.147 C 
ATOM      2  C   UNL     1      -1.349  -1.680   1.247  0.00  0.00    +0.087 C 
ATOM      3  C   UNL     1      -0.491  -2.900   1.063  0.00  0.00    +0.055 C 
ATOM      4  N   UNL     1      -0.328  -3.478  -0.097  0.00  0.00    -0.215 NA
ATOM      5  C   UNL     1      -0.897  -2.912  -1.195  0.00  0.00    +0.249 A 
ATOM      6  N   UNL     1      -1.369  -1.626  -1.177  0.00  0.00    -0.222 N 
ATOM      7  N   UNL     1      -1.881  -1.371  -2.445  0.00  0.00    -0.156 NA
ATOM      8  C   UNL     1      -1.688  -2.457  -3.156  0.00  0.00    +0.247 A 
ATOM      9  N   UNL     1      -1.089  -3.383  -2.401  0.00  0.00    -0.198 NA
ENDROOT
BRANCH   3  10
ATOM     10  C   UNL     1       0.191  -3.467   2.237  0.00  0.00    -0.003 A 
ATOM     11  C   UNL     1       0.032  -2.877   3.495  0.00  0.00    +0.011 A 
ATOM     12  C   UNL     1       0.674  -3.414   4.590  0.00  0.00    +0.020 A 
ATOM     13  C   UNL     1       1.475  -4.535   4.447  0.00  0.00    +0.041 A 
ATOM     14  C   UNL     1       1.637  -5.125   3.204  0.00  0.00    +0.020 A 
ATOM     15  C   UNL     1       0.996  -4.603   2.101  0.00  0.00    +0.011 A 
ATOM     16 CL   UNL     1       2.281  -5.204   5.832  0.00  0.00    -0.084 Cl
ENDBRANCH   3  10
BRANCH   1  22
ATOM     17  C   UNL     1      -0.017   1.378   0.010  0.00  0.00    +0.008 A 
ATOM     18  C   UNL     1       1.171   2.086   0.002  0.00  0.00    +0.033 A 
ATOM     19  C   UNL     1       2.377   1.411  -0.013  0.00  0.00    +0.126 A 
ATOM     20  C   UNL     1       2.396   0.029  -0.020  0.00  0.00    +0.033 A 
ATOM     21  C   UNL     1       1.208  -0.679  -0.012  0.00  0.00    +0.008 A 
ATOM     22  C   UNL     1       0.002  -0.004   0.002  0.00  0.00    -0.022 A 
BRANCH  19  23
ATOM     23  N   UNL     1       3.649   2.168  -0.022  0.00  0.00    +0.056 N 
ATOM     24  O   UNL     1       3.633   3.377  -0.016  0.00  0.00    -0.126 OA
ATOM     25  O   UNL     1       4.704   1.578  -0.035  0.00  0.00    -0.126 OA
ENDBRANCH  19  23
ENDBRANCH   1  22
TORSDOF 3
