REMARK  Name = ZINC40570596
REMARK  5 active torsions:
REMARK  status: ('A' for Active; 'I' for Inactive)
REMARK    1  A    between atoms: C_7  and  C_11
REMARK    2  A    between atoms: C_12  and  C_13
REMARK    3  A    between atoms: C_12  and  C_15
REMARK    4  A    between atoms: N_17  and  C_18
REMARK    5  A    between atoms: C_19  and  C_27
REMARK                            x       y       z     vdW  Elec       q    Type
REMARK                         _______ _______ _______ _____ _____    ______ ____
ROOT
ATOM      1  C   UNL     1       2.700  -4.705  -0.154  0.00  0.00    +0.259 C 
ATOM      2  O   UNL     1       3.453  -3.765   0.026  0.00  0.00    -0.269 OA
ATOM      3  N   UNL     1       3.201  -5.938  -0.368  0.00  0.00    -0.274 N 
ATOM      4  H   UNL     1       2.602  -6.687  -0.511  0.00  0.00    +0.156 HD
ENDROOT
BRANCH   3   5
ATOM      5  C   UNL     1       4.574  -6.136  -0.383  0.00  0.00    +0.090 A 
ATOM      6  C   UNL     1       5.262  -7.320  -0.591  0.00  0.00    +0.084 A 
ATOM      7  C   UNL     1       6.712  -7.261  -0.558  0.00  0.00    -0.018 A 
ATOM      8  C   UNL     1       7.210  -6.027  -0.323  0.00  0.00    -0.004 A 
ATOM      9  S   UNL     1       5.784  -4.993  -0.160  0.00  0.00    -0.077 S 
ATOM     10  C   UNL     1       8.654  -5.642  -0.228  0.00  0.00    +0.043 C 
ATOM     11  C   UNL     1       9.484  -6.924  -0.064  0.00  0.00    +0.005 C 
ATOM     12  C   UNL     1       9.031  -7.946  -1.110  0.00  0.00    +0.005 C 
ATOM     13  C   UNL     1       7.630  -8.457  -0.767  0.00  0.00    +0.037 C 
BRANCH   6  14
ATOM     14  C   UNL     1       4.571  -8.552  -0.829  0.00  0.00    +0.102 C 
ATOM     15  N   UNL     1       4.023  -9.529  -1.018  0.00  0.00    -0.191 NA
ENDBRANCH   6  14
ENDBRANCH   3   5
BRANCH   1  17
ATOM     16  C   UNL     1       0.734  -3.213  -0.050  0.00  0.00    +0.034 C 
ATOM     17  C   UNL     1       1.248  -4.496  -0.138  0.00  0.00    +0.114 C 
BRANCH  16  24
ATOM     18  C   UNL     1       1.134   0.759   2.336  0.00  0.00    +0.001 A 
ATOM     19  C   UNL     1       2.140   1.565   1.826  0.00  0.00    +0.002 A 
ATOM     20  C   UNL     1       2.883   1.159   0.739  0.00  0.00    +0.026 A 
ATOM     21  C   UNL     1       2.626  -0.072   0.143  0.00  0.00    +0.047 A 
ATOM     22  C   UNL     1       1.607  -0.886   0.661  0.00  0.00    +0.007 A 
ATOM     23  C   UNL     1       0.864  -0.464   1.759  0.00  0.00    +0.010 A 
ATOM     24  C   UNL     1       1.592  -2.099  -0.182  0.00  0.00    +0.001 A 
ATOM     25  C   UNL     1       2.586  -1.923  -1.126  0.00  0.00    +0.091 A 
ATOM     26  N   UNL     1       3.188  -0.734  -0.930  0.00  0.00    -0.360 N 
ATOM     27  H   UNL     1       3.917  -0.389  -1.470  0.00  0.00    +0.165 HD
ENDBRANCH  16  24
BRANCH  17  28
ATOM     28  C   UNL     1       0.362  -5.619  -0.213  0.00  0.00    +0.104 C 
ATOM     29  N   UNL     1      -0.341  -6.509  -0.273  0.00  0.00    -0.191 NA
ENDBRANCH  17  28
ENDBRANCH   1  17
TORSDOF 5
