REMARK  Name = ZINC13092943
REMARK  9 active torsions:
REMARK  status: ('A' for Active; 'I' for Inactive)
REMARK    1  A    between atoms: C_3  and  N_16
REMARK    2  A    between atoms: C_5  and  S_7
REMARK    3  A    between atoms: S_7  and  N_10
REMARK    4  A    between atoms: C_17  and  C_19
REMARK    5  A    between atoms: C_19  and  S_20
REMARK    6  A    between atoms: S_20  and  C_21
REMARK    7  A    between atoms: C_25  and  C_28
REMARK    8  A    between atoms: C_28  and  C_29
REMARK    9  A    between atoms: C_29  and  C_30
REMARK                            x       y       z     vdW  Elec       q    Type
REMARK                         _______ _______ _______ _____ _____    ______ ____
ROOT
ATOM      1  N   UNL     1       3.584   2.123  -0.021  0.00  0.00    -0.285 N 
ATOM      2  C   UNL     1       3.628   3.375   0.478  0.00  0.00    +0.227 C 
ATOM      3  O   UNL     1       2.649   3.848   1.016  0.00  0.00    -0.275 OA
ATOM      4  H   UNL     1       4.387   1.717  -0.382  0.00  0.00    +0.155 HD
ENDROOT
BRANCH   1   7
ATOM      5  C   UNL     1      -0.013   1.375  -0.179  0.00  0.00    +0.004 A 
ATOM      6  C   UNL     1       1.175   2.081  -0.182  0.00  0.00    +0.023 A 
ATOM      7  C   UNL     1       2.380   1.411  -0.018  0.00  0.00    +0.035 A 
ATOM      8  C   UNL     1       2.387   0.032   0.148  0.00  0.00    +0.052 A 
ATOM      9  C   UNL     1       1.197  -0.668   0.150  0.00  0.00    +0.114 A 
ATOM     10  C   UNL     1      -0.002   0.002  -0.014  0.00  0.00    +0.029 A 
BRANCH   9  11
ATOM     11  S   UNL     1       1.206  -2.417   0.360  0.00  0.00    +0.100 S 
ATOM     12  O   UNL     1       0.003  -2.902  -0.221  0.00  0.00    -0.146 OA
ATOM     13  O   UNL     1       2.487  -2.870  -0.054  0.00  0.00    -0.146 OA
BRANCH  11  14
ATOM     14  N   UNL     1       1.100  -2.716   1.985  0.00  0.00    -0.118 NA
ATOM     15  C   UNL     1       1.087  -3.934   2.420  0.00  0.00    +0.117 C 
ATOM     16  C   UNL     1       1.167  -5.169   1.550  0.00  0.00    +0.074 C 
ATOM     17  C   UNL     1       1.538  -6.304   2.531  0.00  0.00    +0.026 C 
ATOM     18  C   UNL     1       0.999  -5.761   3.872  0.00  0.00    +0.103 C 
ATOM     19  N   UNL     1       1.003  -4.300   3.735  0.00  0.00    -0.331 N 
ATOM     20  H   UNL     1       0.952  -3.677   4.477  0.00  0.00    +0.147 HD
ENDBRANCH  11  14
ENDBRANCH   9  11
ENDBRANCH   1   7
BRANCH   2  21
ATOM     21  C   UNL     1       4.893   4.186   0.368  0.00  0.00    +0.173 C 
BRANCH  21  22
ATOM     22  S   UNL     1       4.636   5.813   1.127  0.00  0.00    -0.075 S 
BRANCH  22  23
ATOM     23  C   UNL     1       6.184   6.629   0.920  0.00  0.00    +0.213 A 
ATOM     24  N   UNL     1       6.339   7.867   1.374  0.00  0.00    -0.180 NA
ATOM     25  C   UNL     1       7.509   8.477   1.215  0.00  0.00    +0.296 A 
ATOM     26  O   UNL     1       7.696   9.740   1.669  0.00  0.00    -0.264 OA
ATOM     27  C   UNL     1       8.540   7.792   0.572  0.00  0.00    +0.130 A 
ATOM     28  N   UNL     1       8.326   6.563   0.141  0.00  0.00    -0.146 NA
ATOM     29  N   UNL     1       7.183   5.998   0.316  0.00  0.00    -0.122 NA
BRANCH  27  30
ATOM     30  C   UNL     1       9.882   8.448   0.370  0.00  0.00    +0.074 C 
BRANCH  30  31
ATOM     31  C   UNL     1      10.781   8.149   1.571  0.00  0.00    +0.131 C 
BRANCH  31  32
ATOM     32  C   UNL     1      12.123   8.805   1.369  0.00  0.00    +0.356 C 
ATOM     33  O   UNL     1      12.339   9.452   0.359  0.00  0.00    -0.246 OA
ATOM     34  O   UNL     1      12.992   8.688   2.217  0.00  0.00    -0.246 OA
ENDBRANCH  31  32
ENDBRANCH  30  31
ENDBRANCH  27  30
ENDBRANCH  22  23
ENDBRANCH  21  22
ENDBRANCH   2  21
TORSDOF 9
