REMARK  Name = ZINC01036095
REMARK  8 active torsions:
REMARK  status: ('A' for Active; 'I' for Inactive)
REMARK    1  A    between atoms: C_1  and  N_2
REMARK    2  A    between atoms: C_3  and  C_25
REMARK    3  A    between atoms: C_6  and  S_7
REMARK    4  A    between atoms: S_7  and  C_8
REMARK    5  A    between atoms: C_8  and  C_9
REMARK    6  A    between atoms: N_11  and  C_12
REMARK    7  A    between atoms: C_13  and  C_23
REMARK    8  A    between atoms: N_16  and  C_17
REMARK                            x       y       z     vdW  Elec       q    Type
REMARK                         _______ _______ _______ _____ _____    ______ ____
ROOT
ATOM      1  C   UNL     1       0.388   2.003  -0.800  0.00  0.00    +0.229 C 
ATOM      2  O   UNL     1       1.462   2.316  -1.268  0.00  0.00    -0.275 OA
ATOM      3  N   UNL     1       0.317   1.043   0.142  0.00  0.00    -0.269 N 
ATOM      4  H   UNL     1      -0.539   0.810   0.534  0.00  0.00    +0.156 HD
ENDROOT
BRANCH   3   5
ATOM      5  C   UNL     1       1.468   0.387   0.552  0.00  0.00    +0.146 A 
ATOM      6  C   UNL     1       2.594   0.972   1.120  0.00  0.00    +0.111 A 
ATOM      7  C   UNL     1       3.515  -0.069   1.381  0.00  0.00    +0.155 A 
ATOM      8  N   UNL     1       2.982  -1.193   0.990  0.00  0.00    -0.172 NA
ATOM      9  N   UNL     1       1.708  -0.941   0.469  0.00  0.00    -0.217 N 
BRANCH   9  10
ATOM     10  C   UNL     1       0.830  -1.901  -0.050  0.00  0.00    +0.067 A 
ATOM     11  C   UNL     1      -0.504  -1.904   0.333  0.00  0.00    +0.028 A 
ATOM     12  C   UNL     1      -1.369  -2.849  -0.185  0.00  0.00    +0.002 A 
ATOM     13  C   UNL     1      -0.903  -3.799  -1.076  0.00  0.00    +0.000 A 
ATOM     14  C   UNL     1       0.427  -3.802  -1.455  0.00  0.00    +0.002 A 
ATOM     15  C   UNL     1       1.294  -2.857  -0.945  0.00  0.00    +0.028 A 
ENDBRANCH   9  10
BRANCH   6  16
ATOM     16  C   UNL     1       2.785   2.365   1.391  0.00  0.00    +0.104 C 
ATOM     17  N   UNL     1       2.936   3.470   1.607  0.00  0.00    -0.191 NA
ENDBRANCH   6  16
ENDBRANCH   3   5
BRANCH   1  18
ATOM     18  C   UNL     1      -0.868   2.685  -1.278  0.00  0.00    +0.173 C 
BRANCH  18  19
ATOM     19  S   UNL     1      -0.446   3.917  -2.535  0.00  0.00    -0.077 S 
BRANCH  19  25
ATOM     20  C   UNL     1      -1.416   6.254  -4.660  0.00  0.00    +0.153 C 
ATOM     21  N   UNL     1      -2.353   5.517  -3.809  0.00  0.00    -0.305 N 
ATOM     22  C   UNL     1      -3.720   5.666  -3.754  0.00  0.00    +0.165 A 
ATOM     23  N   UNL     1      -4.165   4.812  -2.861  0.00  0.00    -0.128 NA
ATOM     24  N   UNL     1      -3.185   4.146  -2.365  0.00  0.00    -0.122 NA
ATOM     25  C   UNL     1      -2.052   4.540  -2.905  0.00  0.00    +0.192 A 
BRANCH  22  26
ATOM     26  C   UNL     1      -4.533   6.609  -4.550  0.00  0.00    +0.022 A 
ATOM     27  C   UNL     1      -5.837   6.940  -4.161  0.00  0.00    +0.031 A 
ATOM     28  C   UNL     1      -6.558   7.829  -4.931  0.00  0.00    +0.111 A 
ATOM     29  N   UNL     1      -6.040   8.355  -6.024  0.00  0.00    -0.263 NA
ATOM     30  C   UNL     1      -4.817   8.066  -6.428  0.00  0.00    +0.111 A 
ATOM     31  C   UNL     1      -4.024   7.192  -5.716  0.00  0.00    +0.031 A 
ENDBRANCH  22  26
ENDBRANCH  19  25
ENDBRANCH  18  19
ENDBRANCH   1  18
TORSDOF 7
