REMARK  Name = ZINC05567135
REMARK  16 active torsions:
REMARK  status: ('A' for Active; 'I' for Inactive)
REMARK    1  A    between atoms: C_1  and  C_2
REMARK    2  A    between atoms: C_2  and  C_4
REMARK    3  A    between atoms: C_4  and  C_29
REMARK    4  A    between atoms: C_5  and  C_6
REMARK    5  A    between atoms: C_9  and  O_12
REMARK    6  A    between atoms: O_12  and  C_13
REMARK    7  A    between atoms: C_15  and  O_28
REMARK    8  A    between atoms: C_17  and  O_27
REMARK    9  A    between atoms: C_19  and  O_26
REMARK   10  A    between atoms: C_21  and  C_24
REMARK   11  A    between atoms: C_24  and  O_25
REMARK   12  A    between atoms: C_29  and  C_31
REMARK   13  A    between atoms: C_31  and  C_32
REMARK   14  A    between atoms: C_32  and  N_59
REMARK   15  A    between atoms: C_33  and  N_59
REMARK   16  A    between atoms: C_34  and  N_59
REMARK                            x       y       z     vdW  Elec       q    Type
REMARK                         _______ _______ _______ _____ _____    ______ ____
ROOT
ATOM      1  C   UNL     1       1.407  -6.718  -0.153  0.00  0.00    -0.024 A 
ATOM      2  C   UNL     1       1.892  -5.765  -1.064  0.00  0.00    +0.011 A 
ATOM      3  C   UNL     1       1.463  -4.471  -0.986  0.00  0.00    +0.046 A 
ATOM      4  C   UNL     1       0.548  -4.096  -0.006  0.00  0.00    +0.124 A 
ATOM      5  C   UNL     1       0.068  -5.035   0.903  0.00  0.00    +0.046 A 
ATOM      6  C   UNL     1       0.484  -6.333   0.833  0.00  0.00    +0.011 A 
ENDROOT
BRANCH   1   8
ATOM      7  C   UNL     1       2.059  -8.791   0.934  0.00  0.00    +0.060 C 
ATOM      8  C   UNL     1       1.848  -8.064  -0.229  0.00  0.00    +0.022 C 
BRANCH   7  10
ATOM      9  C   UNL     1       2.483 -11.034   2.122  0.00  0.00    +0.092 C 
ATOM     10  C   UNL     1       2.360 -10.221   0.858  0.00  0.00    +0.163 C 
ATOM     11  O   UNL     1       2.510 -10.753  -0.222  0.00  0.00    -0.292 OA
ENDBRANCH   7  10
BRANCH   7  12
ATOM     12  C   UNL     1       1.981  -8.128   2.236  0.00  0.00    +0.165 C 
ATOM     13  O   UNL     1       2.796  -7.280   2.536  0.00  0.00    -0.292 OA
BRANCH  12  14
ATOM     14  C   UNL     1       0.888  -8.498   3.206  0.00  0.00    +0.061 C 
BRANCH  14  15
ATOM     15  C   UNL     1       0.947  -7.569   4.420  0.00  0.00    -0.072 C 
BRANCH  15  18
ATOM     16  C   UNL     1       0.050  -7.223   6.642  0.00  0.00    -0.097 C 
ATOM     17  C   UNL     1      -1.444  -7.668   4.789  0.00  0.00    -0.097 C 
ATOM     18  N   UNL     1      -0.116  -7.958   5.370  0.00  0.00    +0.376 N 
ATOM     19  H   UNL     1      -0.045  -8.965   5.556  0.00  0.00    -0.083 HD
ENDBRANCH  15  18
ENDBRANCH  14  15
ENDBRANCH  12  14
ENDBRANCH   7  12
ENDBRANCH   1   8
BRANCH   4  20
ATOM     20  O   UNL     1       0.127  -2.809   0.067  0.00  0.00    -0.461 OA
BRANCH  20  21
ATOM     21  C   UNL     1      -0.813  -2.491   1.096  0.00  0.00    +0.339 C 
ATOM     22  C   UNL     1      -1.075  -0.983   1.099  0.00  0.00    +0.214 C 
ATOM     23  C   UNL     1      -1.697  -0.577  -0.240  0.00  0.00    +0.180 C 
ATOM     24  C   UNL     1      -2.977  -1.388  -0.462  0.00  0.00    +0.177 C 
ATOM     25  C   UNL     1      -2.642  -2.881  -0.406  0.00  0.00    +0.179 C 
ATOM     26  O   UNL     1      -2.038  -3.185   0.853  0.00  0.00    -0.331 OA
BRANCH  24  27
ATOM     27  O   UNL     1      -3.926  -1.072   0.558  0.00  0.00    -0.386 OA
ATOM     28  H   UNL     1      -4.181  -0.139   0.583  0.00  0.00    +0.210 HD
ENDBRANCH  24  27
BRANCH  23  29
ATOM     29  O   UNL     1      -2.012   0.817  -0.218  0.00  0.00    -0.386 OA
ATOM     30  H   UNL     1      -1.247   1.391  -0.081  0.00  0.00    +0.210 HD
ENDBRANCH  23  29
BRANCH  22  31
ATOM     31  O   UNL     1       0.159  -0.285   1.284  0.00  0.00    -0.383 OA
ATOM     32  H   UNL     1       0.609  -0.494   2.114  0.00  0.00    +0.210 HD
ENDBRANCH  22  31
BRANCH  25  33
ATOM     33  C   UNL     1      -3.925  -3.699  -0.568  0.00  0.00    +0.190 C 
BRANCH  33  34
ATOM     34  O   UNL     1      -3.599  -5.088  -0.632  0.00  0.00    -0.392 OA
ATOM     35  H   UNL     1      -4.367  -5.668  -0.735  0.00  0.00    +0.210 HD
ENDBRANCH  33  34
ENDBRANCH  25  33
ENDBRANCH  20  21
ENDBRANCH   4  20
TORSDOF 13
