REMARK  Name = ZINC35418826
REMARK  9 active torsions:
REMARK  status: ('A' for Active; 'I' for Inactive)
REMARK    1  A    between atoms: C_1  and  C_2
REMARK    2  A    between atoms: C_2  and  C_3
REMARK    3  A    between atoms: C_2  and  C_4
REMARK    4  A    between atoms: C_4  and  C_5
REMARK    5  A    between atoms: C_5  and  S_6
REMARK    6  A    between atoms: S_6  and  C_7
REMARK    7  A    between atoms: C_14  and  C_28
REMARK    8  A    between atoms: C_22  and  C_26
REMARK    9  A    between atoms: C_22  and  C_27
REMARK                            x       y       z     vdW  Elec       q    Type
REMARK                         _______ _______ _______ _____ _____    ______ ____
ROOT
ATOM      1  C   UNL     1      -4.215  -4.831   0.065  0.00  0.00    +0.171 A 
ATOM      2  N   UNL     1      -2.920  -4.914  -0.158  0.00  0.00    -0.208 NA
ATOM      3  C   UNL     1      -2.331  -6.094  -0.390  0.00  0.00    +0.131 A 
ATOM      4  C   UNL     1      -3.089  -7.252  -0.397  0.00  0.00    +0.065 A 
ATOM      5  C   UNL     1      -4.465  -7.156  -0.159  0.00  0.00    +0.258 A 
ATOM      6  O   UNL     1      -5.166  -8.156  -0.157  0.00  0.00    -0.267 OA
ATOM      7  N   UNL     1      -5.004  -5.941   0.074  0.00  0.00    -0.302 N 
ATOM      8  C   UNL     1      -2.476  -8.604  -0.650  0.00  0.00    +0.070 C 
ATOM      9  C   UNL     1      -0.971  -8.547  -0.392  0.00  0.00    +0.087 C 
ATOM     10  C   UNL     1      -0.390  -7.363  -1.182  0.00  0.00    +0.083 C 
ATOM     11  N   UNL     1      -0.966  -6.135  -0.621  0.00  0.00    -0.325 N 
ATOM     12  C   UNL     1       1.131  -7.369  -1.047  0.00  0.00    +0.029 C 
ATOM     13  C   UNL     1       1.699  -8.633  -1.697  0.00  0.00    -0.027 C 
ATOM     14  C   UNL     1       1.185  -9.871  -0.955  0.00  0.00    +0.081 C 
ATOM     15  C   UNL     1      -0.312  -9.818  -0.873  0.00  0.00    +0.140 C 
ATOM     16  O   UNL     1      -0.971 -10.768  -1.220  0.00  0.00    -0.297 OA
ATOM     17  C   UNL     1       1.255  -8.696  -3.160  0.00  0.00    +0.011 C 
ATOM     18  C   UNL     1       3.227  -8.597  -1.630  0.00  0.00    +0.011 C 
ATOM     19  H   UNL     1      -0.404  -5.371  -0.416  0.00  0.00    +0.148 HD
ATOM     20  H   UNL     1      -5.955  -5.858   0.244  0.00  0.00    +0.171 HD
ENDROOT
BRANCH   8  21
ATOM     21  C   UNL     1      -2.723  -9.004  -2.082  0.00  0.00    -0.039 A 
ATOM     22  C   UNL     1      -3.154 -10.284  -2.377  0.00  0.00    +0.004 A 
ATOM     23  C   UNL     1      -3.380 -10.652  -3.690  0.00  0.00    +0.000 A 
ATOM     24  C   UNL     1      -3.175  -9.739  -4.708  0.00  0.00    +0.000 A 
ATOM     25  C   UNL     1      -2.744  -8.460  -4.413  0.00  0.00    +0.000 A 
ATOM     26  C   UNL     1      -2.522  -8.091  -3.100  0.00  0.00    +0.004 A 
ENDBRANCH   8  21
BRANCH   1  27
ATOM     27  S   UNL     1      -4.941  -3.253   0.364  0.00  0.00    -0.088 S 
BRANCH  27  28
ATOM     28  C   UNL     1      -3.544  -2.100   0.257  0.00  0.00    +0.077 C 
BRANCH  28  29
ATOM     29  C   UNL     1      -4.041  -0.674   0.500  0.00  0.00    +0.014 C 
BRANCH  29  31
ATOM     30  C   UNL     1      -3.377   1.735   0.529  0.00  0.00    +0.007 C 
ATOM     31  C   UNL     1      -2.863   0.298   0.410  0.00  0.00    -0.016 C 
ATOM     32  C   UNL     1      -1.878   0.013   1.545  0.00  0.00    +0.007 C 
ENDBRANCH  29  31
ENDBRANCH  28  29
ENDBRANCH  27  28
ENDBRANCH   1  27
TORSDOF 5
