REMARK  Name = ZINC21252839
REMARK  7 active torsions:
REMARK  status: ('A' for Active; 'I' for Inactive)
REMARK    1  A    between atoms: C_1  and  C_2
REMARK    2  A    between atoms: C_5  and  C_8
REMARK    3  A    between atoms: C_13  and  C_23
REMARK    4  A    between atoms: C_26  and  O_31
REMARK    5  A    between atoms: C_28  and  O_29
REMARK    6  A    between atoms: O_29  and  C_30
REMARK    7  A    between atoms: O_31  and  C_32
REMARK                            x       y       z     vdW  Elec       q    Type
REMARK                         _______ _______ _______ _____ _____    ______ ____
ROOT
ATOM      1  C   UNL     1      -5.295  -0.176  -1.528  0.00  0.00    +0.032 C 
ATOM      2  C   UNL     1      -3.829  -0.259  -1.106  0.00  0.00    +0.059 C 
ATOM      3  C   UNL     1      -3.304   1.132  -0.791  0.00  0.00    +0.017 C 
ATOM      4  C   UNL     1      -3.762   2.201  -1.463  0.00  0.00    +0.037 C 
ATOM      5  C   UNL     1      -3.310   3.629  -1.272  0.00  0.00    +0.139 C 
ATOM      6  N   UNL     1      -2.495   3.850  -0.086  0.00  0.00    -0.331 N 
ATOM      7  C   UNL     1      -1.237   3.261   0.036  0.00  0.00    +0.049 A 
ATOM      8  C   UNL     1      -0.079   4.021   0.042  0.00  0.00    +0.025 A 
ATOM      9  C   UNL     1       1.151   3.386   0.078  0.00  0.00    +0.002 A 
ATOM     10  C   UNL     1       1.224   2.006   0.107  0.00  0.00    +0.002 A 
ATOM     11  C   UNL     1       0.068   1.244   0.118  0.00  0.00    +0.025 A 
ATOM     12  C   UNL     1      -1.163   1.878   0.094  0.00  0.00    +0.052 A 
ATOM     13  N   UNL     1      -2.360   1.177   0.183  0.00  0.00    -0.316 N 
ATOM     14  C   UNL     1      -4.765   2.045  -2.449  0.00  0.00    +0.163 C 
ATOM     15  O   UNL     1      -5.146   3.027  -3.056  0.00  0.00    -0.292 OA
ATOM     16  C   UNL     1      -5.374   0.714  -2.773  0.00  0.00    +0.088 C 
ATOM     17  H   UNL     1      -2.871   4.487   0.728  0.00  0.00    +0.147 HD
ATOM     18  H   UNL     1      -2.516   0.633   1.126  0.00  0.00    +0.152 HD
ENDROOT
BRANCH   1  23
ATOM     19  C   UNL     1      -7.276  -5.462  -2.766  0.00  0.00    +0.044 C 
ATOM     20  C   UNL     1      -6.760  -4.083  -2.444  0.00  0.00    -0.050 A 
ATOM     21  C   UNL     1      -7.350  -3.342  -1.437  0.00  0.00    +0.003 A 
ATOM     22  C   UNL     1      -6.876  -2.078  -1.141  0.00  0.00    +0.004 A 
ATOM     23  C   UNL     1      -5.812  -1.555  -1.851  0.00  0.00    -0.043 A 
ATOM     24  C   UNL     1      -5.225  -2.294  -2.861  0.00  0.00    +0.004 A 
ATOM     25  C   UNL     1      -5.697  -3.560  -3.155  0.00  0.00    +0.003 A 
ENDBRANCH   1  23
BRANCH   5  26
ATOM     26  C   UNL     1      -2.516   4.044  -2.484  0.00  0.00    +0.019 A 
ATOM     27  C   UNL     1      -2.015   3.084  -3.343  0.00  0.00    +0.013 A 
ATOM     28  C   UNL     1      -1.292   3.462  -4.458  0.00  0.00    +0.046 A 
ATOM     29  C   UNL     1      -1.055   4.806  -4.711  0.00  0.00    +0.124 A 
ATOM     30  C   UNL     1      -1.551   5.770  -3.847  0.00  0.00    +0.091 A 
ATOM     31  C   UNL     1      -2.282   5.389  -2.732  0.00  0.00    +0.129 A 
BRANCH  31  32
ATOM     32  O   UNL     1      -2.770   6.332  -1.884  0.00  0.00    -0.495 OA
ATOM     33  C   UNL     1      -2.491   7.697  -2.201  0.00  0.00    +0.277 C 
ENDBRANCH  31  32
BRANCH  29  34
ATOM     34  O   UNL     1      -0.338   5.177  -5.804  0.00  0.00    -0.495 OA
ATOM     35  C   UNL     1       0.142   4.130  -6.650  0.00  0.00    +0.277 C 
ENDBRANCH  29  34
ENDBRANCH   5  26
TORSDOF 4
