REMARK  Name = ZINC52131787
REMARK  4 active torsions:
REMARK  status: ('A' for Active; 'I' for Inactive)
REMARK    1  A    between atoms: C_4  and  C_7
REMARK    2  A    between atoms: N_12  and  C_13
REMARK    3  A    between atoms: C_13  and  C_14
REMARK    4  A    between atoms: N_16  and  C_17
REMARK                            x       y       z     vdW  Elec       q    Type
REMARK                         _______ _______ _______ _____ _____    ______ ____
ROOT
ATOM      1  C   UNL     1       4.274  -2.416  -2.671  0.00  0.00    +0.019 C 
ENDROOT
BRANCH   1   6
ATOM      2  C   UNL     1       2.858  -0.471  -2.662  0.00  0.00    -0.065 C 
ATOM      3  C   UNL     1       2.161  -0.003  -3.957  0.00  0.00    -0.017 C 
ATOM      4  C   UNL     1       2.335  -1.218  -4.906  0.00  0.00    -0.020 C 
ATOM      5  C   UNL     1       2.208  -2.406  -3.920  0.00  0.00    -0.078 C 
ATOM      6  N   UNL     1       2.883  -1.945  -2.684  0.00  0.00    +0.387 N 
ATOM      7  H   UNL     1       2.396  -2.304  -1.876  0.00  0.00    -0.081 HD
BRANCH   2  11
ATOM      8  C   UNL     1      -0.169   1.504  -0.282  0.00  0.00    +0.000 C 
ATOM      9  C   UNL     1       1.263   2.039  -0.216  0.00  0.00    +0.000 C 
ATOM     10  C   UNL     1       2.047   1.549  -1.435  0.00  0.00    +0.002 C 
ATOM     11  C   UNL     1       2.074   0.019  -1.443  0.00  0.00    -0.025 C 
ATOM     12  C   UNL     1       0.642  -0.516  -1.509  0.00  0.00    +0.002 C 
ATOM     13  C   UNL     1      -0.142  -0.026  -0.290  0.00  0.00    +0.000 C 
ENDBRANCH   2  11
ENDBRANCH   1   6
BRANCH   1  14
ATOM     14  C   UNL     1       4.294  -3.920  -2.568  0.00  0.00    +0.197 C 
ATOM     15  O   UNL     1       3.252  -4.537  -2.512  0.00  0.00    -0.278 OA
ATOM     16  N   UNL     1       5.470  -4.577  -2.540  0.00  0.00    -0.306 N 
ATOM     17  H   UNL     1       6.303  -4.083  -2.585  0.00  0.00    +0.149 HD
BRANCH  16  18
ATOM     18  C   UNL     1       5.490  -6.039  -2.441  0.00  0.00    +0.159 C 
ATOM     19  C   UNL     1       6.886  -6.507  -2.026  0.00  0.00    +0.032 C 
ATOM     20  C   UNL     1       7.955  -5.614  -2.631  0.00  0.00    +0.004 C 
ATOM     21  C   UNL     1       8.049  -5.710  -4.142  0.00  0.00    +0.019 C 
ATOM     22  C   UNL     1       6.790  -5.146  -4.804  0.00  0.00    +0.104 C 
ATOM     23  N   UNL     1       5.782  -6.216  -4.888  0.00  0.00    -0.314 N 
ATOM     24  C   UNL     1       5.155  -6.645  -3.787  0.00  0.00    +0.233 C 
ATOM     25  O   UNL     1       4.322  -7.523  -3.865  0.00  0.00    -0.274 OA
ATOM     26  H   UNL     1       5.570  -6.611  -5.747  0.00  0.00    +0.149 HD
ENDBRANCH  16  18
ENDBRANCH   1  14
TORSDOF 4
