REMARK  Name = ZINC20727533
REMARK  8 active torsions:
REMARK  status: ('A' for Active; 'I' for Inactive)
REMARK    1  A    between atoms: C_1  and  C_2
REMARK    2  A    between atoms: C_2  and  C_3
REMARK    3  A    between atoms: C_2  and  C_4
REMARK    4  A    between atoms: C_4  and  C_6
REMARK    5  A    between atoms: C_4  and  N_10
REMARK    6  A    between atoms: C_6  and  O_8
REMARK    7  A    between atoms: O_8  and  C_9
REMARK    8  A    between atoms: C_22  and  C_24
REMARK                            x       y       z     vdW  Elec       q    Type
REMARK                         _______ _______ _______ _____ _____    ______ ____
ROOT
ATOM      1  N   UNL     1      -1.242  -2.033   2.048  0.00  0.00    -0.286 N 
ATOM      2  C   UNL     1      -1.270  -2.814   0.950  0.00  0.00    +0.304 C 
ATOM      3  O   UNL     1      -1.429  -2.316  -0.147  0.00  0.00    -0.253 OA
ATOM      4  N   UNL     1      -1.121  -4.149   1.069  0.00  0.00    -0.273 N 
ATOM      5  C   UNL     1      -1.032  -5.006  -0.123  0.00  0.00    +0.116 C 
ATOM      6  C   UNL     1       0.355  -5.660  -0.167  0.00  0.00    +0.074 C 
ATOM      7  C   UNL     1       0.692  -6.177   1.207  0.00  0.00    +0.040 A 
ATOM      8  C   UNL     1       0.081  -5.791   2.348  0.00  0.00    +0.062 A 
ATOM      9  N   UNL     1       0.642  -6.451   3.363  0.00  0.00    -0.348 N 
ATOM     10  C   UNL     1       1.578  -7.237   2.898  0.00  0.00    +0.171 A 
ATOM     11  N   UNL     1       1.638  -7.093   1.554  0.00  0.00    -0.349 N 
ATOM     12  H   UNL     1       2.241  -7.556   0.951  0.00  0.00    +0.166 HD
ATOM     13  C   UNL     1      -1.038  -4.784   2.397  0.00  0.00    +0.159 C 
ATOM     14  H   UNL     1      -1.180  -2.435   2.928  0.00  0.00    +0.151 HD
ATOM     15  H   UNL     1       0.394  -6.362   4.297  0.00  0.00    +0.167 HD
ENDROOT
BRANCH  13  16
ATOM     16  C   UNL     1      -2.336  -5.480   2.714  0.00  0.00    +0.017 A 
ATOM     17  C   UNL     1      -2.423  -6.856   2.614  0.00  0.00    +0.011 A 
ATOM     18  C   UNL     1      -3.613  -7.498   2.905  0.00  0.00    +0.042 A 
ATOM     19  C   UNL     1      -4.719  -6.763   3.297  0.00  0.00    +0.161 A 
ATOM     20  C   UNL     1      -4.633  -5.384   3.398  0.00  0.00    +0.194 A 
ATOM     21  C   UNL     1      -3.438  -4.743   3.111  0.00  0.00    +0.167 A 
ATOM     22  F   UNL     1      -3.350  -3.399   3.215  0.00  0.00    -0.202 F 
ATOM     23  F   UNL     1      -5.711  -4.665   3.780  0.00  0.00    -0.199 F 
ATOM     24  F   UNL     1      -5.881  -7.391   3.580  0.00  0.00    -0.202 F 
ENDBRANCH  13  16
BRANCH   1  25
ATOM     25  C   UNL     1      -1.305  -0.576   1.911  0.00  0.00    +0.186 C 
BRANCH  25  27
ATOM     26  C   UNL     1      -2.833   1.387   1.671  0.00  0.00    +0.009 C 
ATOM     27  C   UNL     1      -2.767  -0.135   1.814  0.00  0.00    +0.014 C 
ATOM     28  C   UNL     1      -3.417  -0.790   0.593  0.00  0.00    +0.009 C 
ENDBRANCH  25  27
BRANCH  25  29
ATOM     29  C   UNL     1      -0.665   0.070   3.113  0.00  0.00    +0.328 C 
ATOM     30  O   UNL     1      -0.203  -0.617   3.993  0.00  0.00    -0.249 OA
BRANCH  29  31
ATOM     31  O   UNL     1      -0.607   1.408   3.205  0.00  0.00    -0.467 OA
ATOM     32  C   UNL     1       0.014   1.951   4.372  0.00  0.00    +0.280 C 
ENDBRANCH  29  31
ENDBRANCH  25  29
ENDBRANCH   1  25
TORSDOF 5
