REMARK  Name = ZINC36623060
REMARK  10 active torsions:
REMARK  status: ('A' for Active; 'I' for Inactive)
REMARK    1  A    between atoms: C_1  and  C_2
REMARK    2  A    between atoms: C_2  and  C_3
REMARK    3  A    between atoms: C_6  and  C_9
REMARK    4  A    between atoms: C_9  and  C_11
REMARK    5  A    between atoms: C_9  and  N_12
REMARK    6  A    between atoms: C_13  and  C_15
REMARK    7  A    between atoms: N_18  and  S_21
REMARK    8  A    between atoms: S_21  and  C_24
REMARK    9  A    between atoms: C_26  and  N_31
REMARK   10  A    between atoms: C_29  and  C_30
REMARK                            x       y       z     vdW  Elec       q    Type
REMARK                         _______ _______ _______ _____ _____    ______ ____
ROOT
ATOM      1  C   UNL     1      -8.330  -0.554  -1.977  0.00  0.00    +0.077 C 
ATOM      2  C   UNL     1      -7.859   0.895  -2.118  0.00  0.00    +0.030 C 
ATOM      3  C   UNL     1      -8.646   1.577  -3.240  0.00  0.00    +0.110 C 
ATOM      4  N   UNL     1     -10.083   1.433  -2.965  0.00  0.00    -0.177 NA
ATOM      5  C   UNL     1     -10.625   0.089  -2.724  0.00  0.00    +0.110 C 
ATOM      6  C   UNL     1      -9.815  -0.576  -1.607  0.00  0.00    +0.030 C 
ENDROOT
BRANCH   1   8
ATOM      7  N   UNL     1      -6.194  -1.340  -1.008  0.00  0.00    -0.309 N 
ATOM      8  C   UNL     1      -7.533  -1.239  -0.896  0.00  0.00    +0.217 C 
ATOM      9  O   UNL     1      -8.097  -1.698   0.074  0.00  0.00    -0.275 OA
ATOM     10  H   UNL     1      -5.742  -0.972  -1.784  0.00  0.00    +0.149 HD
BRANCH   7  11
ATOM     11  C   UNL     1      -5.419  -2.005   0.043  0.00  0.00    +0.100 C 
ATOM     12  C   UNL     1      -5.407  -3.514  -0.210  0.00  0.00    +0.033 C 
BRANCH  11  16
ATOM     13  C   UNL     1      -1.412  -0.526   0.013  0.00  0.00    -0.048 A 
ATOM     14  C   UNL     1      -2.051  -0.766   1.215  0.00  0.00    +0.004 A 
ATOM     15  C   UNL     1      -3.348  -1.244   1.225  0.00  0.00    +0.006 A 
ATOM     16  C   UNL     1      -4.006  -1.482   0.032  0.00  0.00    -0.027 A 
ATOM     17  C   UNL     1      -3.367  -1.241  -1.170  0.00  0.00    +0.006 A 
ATOM     18  C   UNL     1      -2.072  -0.758  -1.179  0.00  0.00    +0.004 A 
BRANCH  13  20
ATOM     19  C   UNL     1      -0.019   1.526   0.010  0.00  0.00    +0.009 C 
ATOM     20  C   UNL     1       0.002  -0.004   0.002  0.00  0.00    +0.032 C 
ENDBRANCH  13  20
ENDBRANCH  11  16
ENDBRANCH   7  11
ENDBRANCH   1   8
BRANCH   4  21
ATOM     21  S   UNL     1     -11.071   2.761  -2.926  0.00  0.00    +0.061 S 
ATOM     22  O   UNL     1     -12.190   2.411  -2.124  0.00  0.00    -0.153 OA
ATOM     23  O   UNL     1     -10.242   3.877  -2.632  0.00  0.00    -0.153 OA
BRANCH  21  24
ATOM     24  C   UNL     1     -11.681   3.005  -4.562  0.00  0.00    +0.111 A 
ATOM     25  C   UNL     1     -13.032   2.870  -4.823  0.00  0.00    +0.061 A 
ATOM     26  C   UNL     1     -13.510   3.061  -6.106  0.00  0.00    +0.128 A 
ATOM     27  C   UNL     1     -12.637   3.387  -7.127  0.00  0.00    +0.033 A 
ATOM     28  C   UNL     1     -11.287   3.522  -6.866  0.00  0.00    +0.007 A 
ATOM     29  C   UNL     1     -10.809   3.335  -5.582  0.00  0.00    -0.024 A 
ATOM     30  C   UNL     1      -9.337   3.488  -5.296  0.00  0.00    +0.046 C 
BRANCH  26  31
ATOM     31  N   UNL     1     -14.956   2.916  -6.386  0.00  0.00    +0.056 N 
ATOM     32  O   UNL     1     -15.719   2.631  -5.492  0.00  0.00    -0.126 OA
ATOM     33  O   UNL     1     -15.374   3.083  -7.508  0.00  0.00    -0.126 OA
ENDBRANCH  26  31
ENDBRANCH  21  24
ENDBRANCH   4  21
TORSDOF 7
