REMARK  Name = ZINC12245124
REMARK  13 active torsions:
REMARK  status: ('A' for Active; 'I' for Inactive)
REMARK    1  A    between atoms: C_1  and  C_2
REMARK    2  A    between atoms: C_2  and  O_3
REMARK    3  A    between atoms: O_3  and  C_4
REMARK    4  A    between atoms: C_9  and  C_10
REMARK    5  A    between atoms: C_10  and  N_66
REMARK    6  A    between atoms: C_12  and  N_29
REMARK    7  A    between atoms: C_15  and  C_17
REMARK    8  A    between atoms: N_19  and  C_20
REMARK    9  A    between atoms: C_20  and  C_21
REMARK   10  A    between atoms: C_21  and  C_22
REMARK   11  A    between atoms: C_31  and  C_34
REMARK   12  A    between atoms: C_34  and  O_36
REMARK   13  A    between atoms: O_36  and  C_37
REMARK                            x       y       z     vdW  Elec       q    Type
REMARK                         _______ _______ _______ _____ _____    ______ ____
ROOT
ATOM      1  C   UNL     1      -2.153   1.443   0.804  0.00  0.00    -0.050 C 
ATOM      2  C   UNL     1      -0.652   1.584   1.182  0.00  0.00    +0.091 C 
ATOM      3  C   UNL     1       0.040   1.138  -0.133  0.00  0.00    +0.019 C 
ATOM      4  C   UNL     1      -0.903   1.681  -1.228  0.00  0.00    +0.022 C 
ATOM      5  N   UNL     1      -2.220   1.883  -0.604  0.00  0.00    +0.391 N 
ATOM      6  H   UNL     1      -2.462   2.881  -0.637  0.00  0.00    -0.080 HD
ENDROOT
BRANCH   2   7
ATOM      7  N   UNL     1      -0.299   0.693   2.289  0.00  0.00    -0.250 N 
ATOM      8  C   UNL     1      -0.899  -0.472   2.605  0.00  0.00    +0.145 A 
ATOM      9  C   UNL     1      -0.250  -0.967   3.702  0.00  0.00    +0.189 A 
ATOM     10  N   UNL     1       0.727  -0.108   4.041  0.00  0.00    -0.123 NA
ATOM     11  N   UNL     1       0.731   0.884   3.221  0.00  0.00    -0.065 NA
BRANCH   9  12
ATOM     12  C   UNL     1      -0.569  -2.228   4.395  0.00  0.00    +0.361 C 
ATOM     13  O   UNL     1      -1.479  -2.927   3.997  0.00  0.00    -0.243 OA
BRANCH  12  14
ATOM     14  O   UNL     1       0.150  -2.605   5.471  0.00  0.00    -0.463 OA
ATOM     15  C   UNL     1      -0.220  -3.859   6.104  0.00  0.00    +0.280 C 
ENDBRANCH  12  14
ENDBRANCH   9  12
ENDBRANCH   2   7
BRANCH   4  16
ATOM     16  C   UNL     1      -0.999   0.689  -2.359  0.00  0.00    +0.200 C 
ATOM     17  O   UNL     1      -1.394  -0.437  -2.146  0.00  0.00    -0.278 OA
ATOM     18  N   UNL     1      -0.646   1.055  -3.607  0.00  0.00    -0.316 N 
ATOM     19  H   UNL     1      -0.331   1.956  -3.778  0.00  0.00    +0.149 HD
BRANCH  18  20
ATOM     20  C   UNL     1      -0.740   0.091  -4.707  0.00  0.00    +0.109 C 
BRANCH  20  21
ATOM     21  C   UNL     1      -0.284   0.755  -6.008  0.00  0.00    +0.054 C 
BRANCH  21  22
ATOM     22  C   UNL     1      -0.380  -0.236  -7.138  0.00  0.00    -0.045 A 
ATOM     23  C   UNL     1      -1.548  -0.337  -7.871  0.00  0.00    +0.004 A 
ATOM     24  C   UNL     1      -1.637  -1.246  -8.909  0.00  0.00    +0.002 A 
ATOM     25  C   UNL     1      -0.558  -2.054  -9.215  0.00  0.00    +0.020 A 
ATOM     26  C   UNL     1       0.611  -1.953  -8.482  0.00  0.00    +0.041 A 
ATOM     27  C   UNL     1       0.701  -1.039  -7.447  0.00  0.00    +0.023 A 
ATOM     28 CL   UNL     1       1.967  -2.967  -8.866  0.00  0.00    -0.084 Cl
ENDBRANCH  21  22
ENDBRANCH  20  21
ENDBRANCH  18  20
ENDBRANCH   4  16
BRANCH   5  29
ATOM     29  C   UNL     1      -3.258   1.108  -1.333  0.00  0.00    -0.038 C 
BRANCH  29  35
ATOM     30  C   UNL     1      -5.335   2.428  -0.854  0.00  0.00    +0.122 A 
ATOM     31  C   UNL     1      -6.558   2.583  -0.217  0.00  0.00    +0.046 A 
ATOM     32  C   UNL     1      -7.027   1.593   0.625  0.00  0.00    +0.004 A 
ATOM     33  C   UNL     1      -6.278   0.449   0.834  0.00  0.00    +0.000 A 
ATOM     34  C   UNL     1      -5.062   0.290   0.197  0.00  0.00    +0.005 A 
ATOM     35  C   UNL     1      -4.586   1.280  -0.643  0.00  0.00    -0.022 A 
BRANCH  30  36
ATOM     36  O   UNL     1      -4.872   3.400  -1.683  0.00  0.00    -0.492 OA
BRANCH  36  38
ATOM     37  C   UNL     1      -5.014   5.531  -2.814  0.00  0.00    +0.048 C 
ATOM     38  C   UNL     1      -5.696   4.555  -1.853  0.00  0.00    +0.225 C 
ENDBRANCH  36  38
ENDBRANCH  30  36
ENDBRANCH  29  35
ENDBRANCH   5  29
TORSDOF 11
