REMARK  Name = ZINC12859066
REMARK  10 active torsions:
REMARK  status: ('A' for Active; 'I' for Inactive)
REMARK    1  A    between atoms: C_1  and  C_2
REMARK    2  A    between atoms: C_2  and  C_4
REMARK    3  A    between atoms: C_10  and  C_44
REMARK    4  A    between atoms: N_22  and  O_23
REMARK    5  A    between atoms: O_23  and  C_24
REMARK    6  A    between atoms: C_24  and  C_25
REMARK    7  A    between atoms: N_27  and  C_28
REMARK    8  A    between atoms: C_28  and  C_29
REMARK    9  A    between atoms: C_29  and  C_30
REMARK   10  A    between atoms: C_42  and  C_43
REMARK                            x       y       z     vdW  Elec       q    Type
REMARK                         _______ _______ _______ _____ _____    ______ ____
ROOT
ATOM      1  C   UNL     1       0.068   0.468  -4.791  0.00  0.00    +0.061 C 
ATOM      2  C   UNL     1       1.450   1.005  -4.335  0.00  0.00    +0.012 C 
ATOM      3  C   UNL     1       1.260   1.547  -2.895  0.00  0.00    +0.005 C 
ATOM      4  C   UNL     1      -0.044   0.870  -2.434  0.00  0.00    -0.001 C 
ATOM      5  C   UNL     1      -0.908   0.949  -3.709  0.00  0.00    -0.019 C 
ATOM      6  C   UNL     1      -2.186   0.167  -3.538  0.00  0.00    +0.008 C 
ATOM      7  C   UNL     1      -2.440  -0.064  -2.033  0.00  0.00    +0.005 C 
ATOM      8  C   UNL     1      -2.192   1.241  -1.286  0.00  0.00    +0.002 C 
ATOM      9  C   UNL     1      -0.715   1.571  -1.257  0.00  0.00    -0.003 C 
ATOM     10  C   UNL     1      -0.013   1.087   0.008  0.00  0.00    +0.008 C 
ATOM     11  C   UNL     1      -0.711   1.571   1.270  0.00  0.00    +0.031 C 
ATOM     12  C   UNL     1      -2.152   1.103   1.226  0.00  0.00    -0.062 C 
ATOM     13  C   UNL     1      -2.635   0.477   2.294  0.00  0.00    +0.026 C 
ATOM     14  C   UNL     1      -4.053   0.091   2.364  0.00  0.00    +0.080 C 
ATOM     15  N   UNL     1      -4.495  -0.687   3.306  0.00  0.00    -0.089 NA
ATOM     16  C   UNL     1      -4.987   0.652   1.312  0.00  0.00    +0.059 C 
ATOM     17  C   UNL     1      -4.267   0.605  -0.035  0.00  0.00    +0.017 C 
ATOM     18  C   UNL     1      -2.958   1.376   0.001  0.00  0.00    -0.007 C 
ATOM     19  C   UNL     1      -3.352   2.858   0.083  0.00  0.00    +0.016 C 
ATOM     20  C   UNL     1      -1.251   2.414  -4.037  0.00  0.00    +0.012 C 
ENDROOT
BRANCH   1  22
ATOM     21  C   UNL     1       0.540  -1.697  -6.166  0.00  0.00    +0.086 C 
ATOM     22  C   UNL     1       0.125  -1.032  -4.878  0.00  0.00    +0.134 C 
ATOM     23  O   UNL     1      -0.161  -1.704  -3.917  0.00  0.00    -0.297 OA
ENDBRANCH   1  22
BRANCH  15  24
ATOM     24  O   UNL     1      -5.865  -1.042   3.348  0.00  0.00    -0.384 OA
BRANCH  24  25
ATOM     25  C   UNL     1      -6.210  -1.902   4.436  0.00  0.00    +0.358 C 
BRANCH  25  26
ATOM     26  C   UNL     1      -7.684  -2.212   4.382  0.00  0.00    +0.253 C 
ATOM     27  O   UNL     1      -8.371  -1.743   3.500  0.00  0.00    -0.272 OA
ATOM     28  N   UNL     1      -8.238  -3.011   5.316  0.00  0.00    -0.312 N 
ATOM     29  H   UNL     1      -7.689  -3.386   6.021  0.00  0.00    +0.149 HD
BRANCH  28  30
ATOM     30  C   UNL     1      -9.671  -3.313   5.264  0.00  0.00    +0.110 C 
BRANCH  30  31
ATOM     31  C   UNL     1     -10.040  -4.234   6.428  0.00  0.00    +0.072 C 
BRANCH  31  32
ATOM     32  C   UNL     1     -11.514  -4.545   6.375  0.00  0.00    +0.018 A 
ATOM     33  C   UNL     1     -12.482  -3.778   6.900  0.00  0.00    +0.031 A 
ATOM     34  C   UNL     1     -13.756  -4.445   6.620  0.00  0.00    -0.000 A 
ATOM     35  C   UNL     1     -15.091  -4.146   6.902  0.00  0.00    +0.010 A 
ATOM     36  C   UNL     1     -16.077  -5.001   6.497  0.00  0.00    +0.001 A 
ATOM     37  C   UNL     1     -15.763  -6.164   5.807  0.00  0.00    +0.002 A 
ATOM     38  C   UNL     1     -14.453  -6.478   5.519  0.00  0.00    +0.026 A 
ATOM     39  C   UNL     1     -13.433  -5.623   5.922  0.00  0.00    +0.047 A 
ATOM     40  N   UNL     1     -12.062  -5.653   5.790  0.00  0.00    -0.358 N 
ATOM     41  H   UNL     1     -11.561  -6.355   5.347  0.00  0.00    +0.166 HD
ENDBRANCH  31  32
ENDBRANCH  30  31
ENDBRANCH  28  30
ENDBRANCH  25  26
ENDBRANCH  24  25
ENDBRANCH  15  24
TORSDOF 7
