REMARK  Name = ZINC39988881
REMARK  5 active torsions:
REMARK  status: ('A' for Active; 'I' for Inactive)
REMARK    1  A    between atoms: C_1  and  C_2
REMARK    2  A    between atoms: C_5  and  S_8
REMARK    3  A    between atoms: S_8  and  N_11
REMARK    4  A    between atoms: N_11  and  C_12
REMARK    5  A    between atoms: C_14  and  C_25
REMARK                            x       y       z     vdW  Elec       q    Type
REMARK                         _______ _______ _______ _____ _____    ______ ____
ROOT
ATOM      1  C   UNL     1       2.537  -4.615   1.050  0.00  0.00    +0.193 C 
ATOM      2  C   UNL     1       3.853  -4.149   0.455  0.00  0.00    -0.004 C 
ATOM      3  C   UNL     1       5.009  -4.815   0.873  0.00  0.00    +0.003 A 
ATOM      4  C   UNL     1       6.274  -4.446   0.370  0.00  0.00    +0.025 A 
ATOM      5  C   UNL     1       7.384  -5.110   0.794  0.00  0.00    +0.019 A 
ATOM      6  C   UNL     1       7.297  -6.150   1.717  0.00  0.00    +0.017 A 
ATOM      7  C   UNL     1       6.104  -6.551   2.237  0.00  0.00    +0.025 A 
ATOM      8  C   UNL     1       4.915  -5.910   1.845  0.00  0.00    +0.041 A 
ATOM      9  N   UNL     1       3.745  -6.305   2.357  0.00  0.00    -0.283 N 
ATOM     10  C   UNL     1       2.590  -5.755   2.041  0.00  0.00    +0.240 C 
ATOM     11  O   UNL     1       1.562  -6.168   2.547  0.00  0.00    -0.273 OA
ATOM     12 BR   UNL     1       9.077  -4.611   0.117  0.00  0.00    -0.050 Br
ATOM     13  H   UNL     1       3.747  -7.036   2.995  0.00  0.00    +0.155 HD
ENDROOT
BRANCH   2  14
ATOM     14  C   UNL     1       3.907  -3.087  -0.482  0.00  0.00    -0.019 A 
ATOM     15  C   UNL     1       4.307  -3.333  -1.806  0.00  0.00    +0.008 A 
ATOM     16  C   UNL     1       4.356  -2.295  -2.709  0.00  0.00    +0.001 A 
ATOM     17  C   UNL     1       4.013  -1.011  -2.316  0.00  0.00    +0.000 A 
ATOM     18  C   UNL     1       3.617  -0.758  -1.013  0.00  0.00    +0.001 A 
ATOM     19  C   UNL     1       3.556  -1.784  -0.095  0.00  0.00    +0.008 A 
ENDBRANCH   2  14
BRANCH   1  20
ATOM     20  N   UNL     1       1.662  -5.017  -0.054  0.00  0.00    -0.174 NA
ATOM     21  H   UNL     1       2.015  -5.550  -0.783  0.00  0.00    +0.149 HD
BRANCH  20  22
ATOM     22  S   UNL     1       0.070  -4.561  -0.056  0.00  0.00    +0.059 S 
ATOM     23  O   UNL     1      -0.443  -4.870   1.232  0.00  0.00    -0.153 OA
ATOM     24  O   UNL     1      -0.500  -5.084  -1.248  0.00  0.00    -0.153 OA
BRANCH  22  29
ATOM     25  C   UNL     1      -0.068   1.449  -0.571  0.00  0.00    +0.044 C 
ATOM     26  C   UNL     1      -0.033  -0.052  -0.443  0.00  0.00    -0.050 A 
ATOM     27  C   UNL     1      -0.044  -0.844  -1.576  0.00  0.00    +0.005 A 
ATOM     28  C   UNL     1      -0.012  -2.221  -1.458  0.00  0.00    +0.029 A 
ATOM     29  C   UNL     1       0.031  -2.806  -0.207  0.00  0.00    +0.105 A 
ATOM     30  C   UNL     1       0.042  -2.015   0.927  0.00  0.00    +0.029 A 
ATOM     31  C   UNL     1       0.015  -0.638   0.809  0.00  0.00    +0.005 A 
ENDBRANCH  22  29
ENDBRANCH  20  22
ENDBRANCH   1  20
TORSDOF 4
