REMARK  Name = ZINC40369668
REMARK  5 active torsions:
REMARK  status: ('A' for Active; 'I' for Inactive)
REMARK    1  A    between atoms: C_5  and  C_6
REMARK    2  A    between atoms: N_8  and  C_9
REMARK    3  A    between atoms: C_9  and  C_11
REMARK    4  A    between atoms: C_9  and  C_17
REMARK    5  A    between atoms: N_18  and  O_19
REMARK                            x       y       z     vdW  Elec       q    Type
REMARK                         _______ _______ _______ _____ _____    ______ ____
ROOT
ATOM      1  C   UNL     1      -2.191  -3.096   0.016  0.00  0.00    +0.143 C 
ENDROOT
BRANCH   1   2
ATOM      2  C   UNL     1      -1.944  -4.450   0.683  0.00  0.00    +0.017 C 
ATOM      3  C   UNL     1      -3.270  -5.202   0.817  0.00  0.00    +0.006 C 
ATOM      4  C   UNL     1      -3.023  -6.557   1.484  0.00  0.00    +0.000 C 
ATOM      5  C   UNL     1      -2.418  -6.339   2.872  0.00  0.00    +0.000 C 
ATOM      6  C   UNL     1      -1.092  -5.587   2.738  0.00  0.00    +0.000 C 
ATOM      7  C   UNL     1      -1.339  -4.232   2.071  0.00  0.00    +0.006 C 
ENDBRANCH   1   2
BRANCH   1   8
ATOM      8  C   UNL     1      -2.729  -3.311  -1.375  0.00  0.00    +0.152 C 
ATOM      9  N   UNL     1      -3.846  -2.766  -1.727  0.00  0.00    -0.075 NA
ATOM     10  N   UNL     1      -2.030  -4.090  -2.271  0.00  0.00    -0.342 N 
ATOM     11  H   UNL     1      -1.229  -4.556  -1.986  0.00  0.00    +0.144 HD
ATOM     12  H   UNL     1      -2.339  -4.171  -3.186  0.00  0.00    +0.144 HD
BRANCH   9  13
ATOM     13  O   UNL     1      -4.352  -2.969  -3.034  0.00  0.00    -0.408 OA
ATOM     14  H   UNL     1      -5.192  -2.521  -3.204  0.00  0.00    +0.328 HD
ENDBRANCH   9  13
ENDBRANCH   1   8
BRANCH   1  17
ATOM     15  C   UNL     1      -0.948  -1.005  -0.120  0.00  0.00    +0.280 C 
ATOM     16  O   UNL     1      -2.008  -0.408  -0.116  0.00  0.00    -0.267 OA
ATOM     17  N   UNL     1      -0.932  -2.351  -0.057  0.00  0.00    -0.299 N 
ATOM     18  H   UNL     1      -0.086  -2.826  -0.061  0.00  0.00    +0.150 HD
BRANCH  15  23
ATOM     19  C   UNL     1       0.438   1.099  -0.262  0.00  0.00    +0.056 A 
ATOM     20  C   UNL     1       1.812   1.375  -0.316  0.00  0.00    +0.058 A 
ATOM     21  C   UNL     1       2.459   0.187  -0.280  0.00  0.00    +0.171 A 
ATOM     22  O   UNL     1       1.551  -0.795  -0.206  0.00  0.00    -0.444 OA
ATOM     23  C   UNL     1       0.312  -0.259  -0.194  0.00  0.00    +0.191 A 
ATOM     24 BR   UNL     1       4.335  -0.049  -0.326  0.00  0.00    -0.008 Br
ENDBRANCH  15  23
ENDBRANCH   1  17
TORSDOF 5
