REMARK  Name = ZINC06410046
REMARK  10 active torsions:
REMARK  status: ('A' for Active; 'I' for Inactive)
REMARK    1  A    between atoms: C_1  and  C_2
REMARK    2  A    between atoms: C_7  and  C_14
REMARK    3  A    between atoms: C_14  and  C_16
REMARK    4  A    between atoms: C_14  and  N_68
REMARK    5  A    between atoms: N_20  and  C_21
REMARK    6  A    between atoms: C_21  and  C_22
REMARK    7  A    between atoms: C_28  and  C_29
REMARK    8  A    between atoms: C_28  and  N_68
REMARK    9  A    between atoms: C_35  and  C_36
REMARK   10  A    between atoms: C_35  and  N_68
REMARK                            x       y       z     vdW  Elec       q    Type
REMARK                         _______ _______ _______ _____ _____    ______ ____
ROOT
ATOM      1  C   UNL     1       3.145   2.236  -0.557  0.00  0.00    +0.040 C 
ENDROOT
BRANCH   1   8
ATOM      2  C   UNL     1      -2.932   6.754   1.951  0.00  0.00    +0.044 C 
ATOM      3  C   UNL     1      -1.947   5.744   1.420  0.00  0.00    -0.048 A 
ATOM      4  C   UNL     1      -2.408   4.536   0.913  0.00  0.00    +0.004 A 
ATOM      5  C   UNL     1      -1.533   3.607   0.427  0.00  0.00    +0.010 A 
ATOM      6  C   UNL     1      -0.160   3.877   0.434  0.00  0.00    -0.001 A 
ATOM      7  C   UNL     1       0.806   2.901  -0.074  0.00  0.00    +0.017 A 
ATOM      8  C   UNL     1       2.124   3.215  -0.036  0.00  0.00    +0.011 A 
ATOM      9  C   UNL     1       2.545   4.456   0.488  0.00  0.00    +0.251 A 
ATOM     10  O   UNL     1       3.735   4.719   0.512  0.00  0.00    -0.268 OA
ATOM     11  N   UNL     1       1.665   5.356   0.962  0.00  0.00    -0.322 N 
ATOM     12  H   UNL     1       1.988   6.200   1.316  0.00  0.00    +0.169 HD
ATOM     13  C   UNL     1       0.311   5.098   0.952  0.00  0.00    +0.049 A 
ATOM     14  C   UNL     1      -0.599   6.029   1.442  0.00  0.00    +0.029 A 
ENDBRANCH   1   8
BRANCH   1  15
ATOM     15  C   UNL     1       4.076   1.839   0.560  0.00  0.00    +0.143 A 
ATOM     16  N   UNL     1       5.024   2.575   1.087  0.00  0.00    -0.115 NA
ATOM     17  N   UNL     1       5.594   1.885   2.014  0.00  0.00    -0.023 NA
ATOM     18  N   UNL     1       5.040   0.726   2.086  0.00  0.00    -0.044 NA
ATOM     19  N   UNL     1       4.099   0.659   1.206  0.00  0.00    -0.228 N 
BRANCH  19  20
ATOM     20  C   UNL     1       3.221  -0.488   0.956  0.00  0.00    +0.178 C 
BRANCH  20  21
ATOM     21  C   UNL     1       3.918  -1.466   0.008  0.00  0.00    +0.140 C 
ATOM     22  C   UNL     1       2.967  -2.635  -0.330  0.00  0.00    +0.035 C 
ATOM     23  C   UNL     1       3.930  -3.853  -0.332  0.00  0.00    +0.031 C 
ATOM     24  C   UNL     1       4.926  -3.443   0.782  0.00  0.00    +0.160 C 
ATOM     25  O   UNL     1       5.075  -2.020   0.647  0.00  0.00    -0.375 OA
ENDBRANCH  20  21
ENDBRANCH  19  20
ENDBRANCH   1  15
BRANCH   1  26
ATOM     26  N   UNL     1       3.930   2.884  -1.628  0.00  0.00    +0.397 N 
ATOM     27  H   UNL     1       4.413   3.702  -1.239  0.00  0.00    -0.079 HD
BRANCH  26  28
ATOM     28  C   UNL     1       3.031   3.329  -2.714  0.00  0.00    -0.041 C 
BRANCH  28  29
ATOM     29  C   UNL     1       2.600   4.745  -2.429  0.00  0.00    -0.064 A 
ATOM     30  C   UNL     1       1.321   4.998  -1.968  0.00  0.00    +0.002 A 
ATOM     31  C   UNL     1       0.927   6.296  -1.702  0.00  0.00    +0.000 A 
ATOM     32  C   UNL     1       1.808   7.341  -1.906  0.00  0.00    +0.000 A 
ATOM     33  C   UNL     1       3.084   7.089  -2.372  0.00  0.00    +0.000 A 
ATOM     34  C   UNL     1       3.481   5.790  -2.633  0.00  0.00    +0.002 A 
ENDBRANCH  28  29
ENDBRANCH  26  28
BRANCH  26  35
ATOM     35  C   UNL     1       4.935   1.940  -2.159  0.00  0.00    -0.001 C 
BRANCH  35  36
ATOM     36  C   UNL     1       6.112   1.910  -1.219  0.00  0.00    +0.089 A 
ATOM     37  C   UNL     1       6.417   0.911  -0.371  0.00  0.00    +0.042 A 
ATOM     38  C   UNL     1       7.593   1.296   0.311  0.00  0.00    +0.041 A 
ATOM     39  C   UNL     1       7.933   2.512  -0.154  0.00  0.00    +0.195 A 
ATOM     40  O   UNL     1       7.033   2.878  -1.081  0.00  0.00    -0.470 OA
ENDBRANCH  35  36
ENDBRANCH  26  35
ENDBRANCH   1  26
TORSDOF 9
