REMARK  Name = ZINC39558558
REMARK  12 active torsions:
REMARK  status: ('A' for Active; 'I' for Inactive)
REMARK    1  A    between atoms: C_1  and  C_2
REMARK    2  A    between atoms: C_5  and  S_8
REMARK    3  A    between atoms: S_8  and  N_11
REMARK    4  A    between atoms: N_11  and  C_12
REMARK    5  A    between atoms: C_12  and  C_14
REMARK    6  A    between atoms: C_12  and  C_18
REMARK    7  A    between atoms: C_14  and  C_15
REMARK    8  A    between atoms: C_15  and  C_16
REMARK    9  A    between atoms: C_15  and  C_17
REMARK   10  A    between atoms: N_20  and  C_21
REMARK   11  A    between atoms: C_21  and  C_22
REMARK   12  A    between atoms: N_24  and  C_25
REMARK                            x       y       z     vdW  Elec       q    Type
REMARK                         _______ _______ _______ _____ _____    ______ ____
ROOT
ATOM      1  C   UNL     1       3.889  -4.196   0.472  0.00  0.00    +0.232 C 
ATOM      2  O   UNL     1       3.986  -4.107  -0.733  0.00  0.00    -0.274 OA
ATOM      3  N   UNL     1       4.937  -3.879   1.258  0.00  0.00    -0.305 N 
ATOM      4  H   UNL     1       4.859  -3.950   2.223  0.00  0.00    +0.149 HD
ENDROOT
BRANCH   1   5
ATOM      5  C   UNL     1       2.596  -4.662   1.091  0.00  0.00    +0.162 C 
BRANCH   5   6
ATOM      6  N   UNL     1       1.621  -4.941   0.034  0.00  0.00    -0.178 NA
ATOM      7  H   UNL     1       1.616  -5.807  -0.404  0.00  0.00    +0.149 HD
BRANCH   6   8
ATOM      8  S   UNL     1       0.529  -3.780  -0.413  0.00  0.00    +0.059 S 
ATOM      9  O   UNL     1      -0.102  -3.334   0.780  0.00  0.00    -0.153 OA
ATOM     10  O   UNL     1      -0.203  -4.312  -1.509  0.00  0.00    -0.153 OA
BRANCH   8  15
ATOM     11  C   UNL     1       3.674   0.903  -2.553  0.00  0.00    +0.044 C 
ATOM     12  C   UNL     1       2.889  -0.266  -2.018  0.00  0.00    -0.050 A 
ATOM     13  C   UNL     1       2.480  -1.273  -2.873  0.00  0.00    +0.005 A 
ATOM     14  C   UNL     1       1.760  -2.346  -2.383  0.00  0.00    +0.029 A 
ATOM     15  C   UNL     1       1.448  -2.413  -1.038  0.00  0.00    +0.105 A 
ATOM     16  C   UNL     1       1.857  -1.407  -0.183  0.00  0.00    +0.029 A 
ATOM     17  C   UNL     1       2.581  -0.336  -0.672  0.00  0.00    +0.005 A 
ENDBRANCH   8  15
ENDBRANCH   6   8
ENDBRANCH   5   6
BRANCH   5  18
ATOM     18  C   UNL     1       2.848  -5.934   1.902  0.00  0.00    +0.032 C 
BRANCH  18  19
ATOM     19  C   UNL     1       1.546  -6.380   2.570  0.00  0.00    -0.015 C 
ATOM     20  C   UNL     1       1.771  -7.711   3.291  0.00  0.00    +0.007 C 
ATOM     21  C   UNL     1       1.102  -5.321   3.581  0.00  0.00    +0.007 C 
ENDBRANCH  18  19
ENDBRANCH   5  18
ENDBRANCH   1   5
BRANCH   3  22
ATOM     22  C   UNL     1       6.193  -3.426   0.657  0.00  0.00    +0.200 C 
BRANCH  22  23
ATOM     23  C   UNL     1       7.196  -3.138   1.744  0.00  0.00    +0.234 C 
ATOM     24  O   UNL     1       6.891  -3.296   2.908  0.00  0.00    -0.274 OA
ATOM     25  N   UNL     1       8.432  -2.706   1.424  0.00  0.00    -0.284 N 
ATOM     26  H   UNL     1       8.653  -2.511   0.500  0.00  0.00    +0.155 HD
BRANCH  25  27
ATOM     27  C   UNL     1       9.397  -2.539   2.426  0.00  0.00    +0.036 A 
ATOM     28  C   UNL     1      10.325  -1.509   2.330  0.00  0.00    +0.025 A 
ATOM     29  C   UNL     1      11.278  -1.339   3.314  0.00  0.00    +0.029 A 
ATOM     30  C   UNL     1      11.311  -2.197   4.402  0.00  0.00    +0.067 A 
ATOM     31  C   UNL     1      10.379  -3.233   4.502  0.00  0.00    +0.069 A 
ATOM     32  C   UNL     1       9.420  -3.398   3.515  0.00  0.00    +0.051 A 
ATOM     33  N   UNL     1      10.659  -3.915   5.684  0.00  0.00    -0.306 N 
ATOM     34  H   UNL     1      10.178  -4.686   6.022  0.00  0.00    +0.170 HD
ATOM     35  C   UNL     1      11.713  -3.321   6.277  0.00  0.00    +0.325 A 
ATOM     36  O   UNL     1      12.213  -3.671   7.330  0.00  0.00    -0.247 OA
ATOM     37  N   UNL     1      12.129  -2.282   5.529  0.00  0.00    -0.306 N 
ATOM     38  H   UNL     1      12.870  -1.693   5.737  0.00  0.00    +0.170 HD
ENDBRANCH  25  27
ENDBRANCH  22  23
ENDBRANCH   3  22
TORSDOF 9
