REMARK  Name = ZINC62198608
REMARK  5 active torsions:
REMARK  status: ('A' for Active; 'I' for Inactive)
REMARK    1  A    between atoms: C_1  and  C_2
REMARK    2  A    between atoms: C_5  and  C_19
REMARK    3  A    between atoms: C_10  and  C_12
REMARK    4  A    between atoms: C_14  and  N_18
REMARK    5  A    between atoms: N_15  and  C_17
REMARK                            x       y       z     vdW  Elec       q    Type
REMARK                         _______ _______ _______ _____ _____    ______ ____
ROOT
ATOM      1  C   UNL     1      -0.060   1.715   1.057  0.00  0.00    +0.009 C 
ATOM      2  C   UNL     1      -0.061   0.220   0.733  0.00  0.00    +0.004 C 
ATOM      3  C   UNL     1      -1.499  -0.305   0.746  0.00  0.00    +0.009 C 
ATOM      4  C   UNL     1      -1.503  -1.793   0.390  0.00  0.00    +0.004 C 
ATOM      5  C   UNL     1      -0.696  -2.567   1.436  0.00  0.00    +0.111 C 
ATOM      6  N   UNL     1       0.645  -1.974   1.533  0.00  0.00    -0.296 N 
ATOM      7  C   UNL     1       0.763  -0.531   1.783  0.00  0.00    +0.111 C 
ATOM      8  C   UNL     1       1.746  -2.740   1.395  0.00  0.00    +0.267 C 
ATOM      9  O   UNL     1       1.639  -3.947   1.302  0.00  0.00    -0.268 OA
ATOM     10  C   UNL     1      -2.944  -2.309   0.370  0.00  0.00    +0.009 C 
ENDROOT
BRANCH   8  11
ATOM     11  C   UNL     1       3.082  -2.111   1.357  0.00  0.00    +0.149 A 
ATOM     12  C   UNL     1       4.317  -2.791   1.352  0.00  0.00    +0.077 A 
ATOM     13  C   UNL     1       5.304  -1.859   1.312  0.00  0.00    +0.115 A 
ATOM     14  N   UNL     1       4.716  -0.633   1.293  0.00  0.00    -0.253 N 
ATOM     15  N   UNL     1       3.328  -0.816   1.316  0.00  0.00    -0.165 NA
ATOM     16  C   UNL     1       5.413   0.655   1.251  0.00  0.00    +0.174 C 
BRANCH  13  17
ATOM     17  N   UNL     1       6.673  -2.113   1.295  0.00  0.00    -0.343 N 
ATOM     18  H   UNL     1       6.997  -3.027   1.312  0.00  0.00    +0.144 HD
ATOM     19  H   UNL     1       7.303  -1.376   1.267  0.00  0.00    +0.144 HD
ENDBRANCH  13  17
ENDBRANCH   8  11
TORSDOF 2
