REMARK  Name = ZINC09100848
REMARK  12 active torsions:
REMARK  status: ('A' for Active; 'I' for Inactive)
REMARK    1  A    between atoms: C_1  and  C_2
REMARK    2  A    between atoms: C_2  and  C_4
REMARK    3  A    between atoms: C_2  and  N_14
REMARK    4  A    between atoms: C_15  and  C_17
REMARK    5  A    between atoms: C_17  and  S_18
REMARK    6  A    between atoms: S_18  and  C_19
REMARK    7  A    between atoms: C_22  and  C_31
REMARK    8  A    between atoms: N_23  and  C_24
REMARK    9  A    between atoms: C_31  and  C_33
REMARK   10  A    between atoms: C_31  and  N_62
REMARK   11  A    between atoms: C_34  and  N_62
REMARK   12  A    between atoms: C_35  and  N_62
REMARK                            x       y       z     vdW  Elec       q    Type
REMARK                         _______ _______ _______ _____ _____    ______ ____
ROOT
ATOM      1  S   UNL     1       2.642  11.326   2.983  0.00  0.00    -0.076 S 
ENDROOT
BRANCH   1   2
ATOM      2  C   UNL     1       4.048  11.671   3.987  0.00  0.00    +0.197 A 
ATOM      3  N   UNL     1       5.080  10.884   4.183  0.00  0.00    -0.122 NA
ATOM      4  N   UNL     1       5.921  11.452   4.971  0.00  0.00    -0.135 NA
ATOM      5  C   UNL     1       5.481  12.627   5.324  0.00  0.00    +0.125 A 
ATOM      6  N   UNL     1       4.273  12.813   4.706  0.00  0.00    -0.275 N 
BRANCH   6   7
ATOM      7  C   UNL     1       3.440  13.938   4.794  0.00  0.00    +0.050 A 
ATOM      8  C   UNL     1       3.868  15.160   4.294  0.00  0.00    +0.028 A 
ATOM      9  C   UNL     1       3.043  16.266   4.377  0.00  0.00    +0.022 A 
ATOM     10  C   UNL     1       1.797  16.157   4.968  0.00  0.00    +0.041 A 
ATOM     11  C   UNL     1       1.370  14.941   5.471  0.00  0.00    +0.022 A 
ATOM     12  C   UNL     1       2.189  13.832   5.386  0.00  0.00    +0.028 A 
ATOM     13 CL   UNL     1       0.765  17.550   5.076  0.00  0.00    -0.084 Cl
ENDBRANCH   6   7
BRANCH   5  14
ATOM     14  C   UNL     1       6.176  13.603   6.239  0.00  0.00    -0.003 C 
ATOM     15  C   UNL     1       7.337  14.264   5.492  0.00  0.00    -0.005 C 
BRANCH  14  18
ATOM     16  C   UNL     1       7.755  11.949   7.035  0.00  0.00    -0.096 C 
ATOM     17  C   UNL     1       7.165  13.833   8.437  0.00  0.00    -0.096 C 
ATOM     18  N   UNL     1       6.671  12.875   7.426  0.00  0.00    +0.382 N 
ATOM     19  H   UNL     1       5.899  12.332   7.830  0.00  0.00    -0.082 HD
ENDBRANCH  14  18
ENDBRANCH   5  14
ENDBRANCH   1   2
BRANCH   1  20
ATOM     20  C   UNL     1       3.081   9.675   2.384  0.00  0.00    +0.173 C 
BRANCH  20  22
ATOM     21  N   UNL     1       2.103   7.945   0.911  0.00  0.00    -0.308 N 
ATOM     22  C   UNL     1       1.992   9.163   1.478  0.00  0.00    +0.224 C 
ATOM     23  O   UNL     1       1.014   9.846   1.259  0.00  0.00    -0.275 OA
ATOM     24  H   UNL     1       2.885   7.399   1.086  0.00  0.00    +0.149 HD
BRANCH  21  26
ATOM     25  C   UNL     1       1.274   7.968  -1.390  0.00  0.00    +0.033 C 
ATOM     26  C   UNL     1       1.044   7.447   0.030  0.00  0.00    +0.100 C 
BRANCH  26  27
ATOM     27  C   UNL     1       1.064   5.940   0.022  0.00  0.00    -0.027 A 
ATOM     28  C   UNL     1       2.286   5.270   0.007  0.00  0.00    +0.006 A 
ATOM     29  C   UNL     1       2.340   3.910   0.001  0.00  0.00    +0.009 A 
ATOM     30  C   UNL     1       1.147   3.167   0.008  0.00  0.00    -0.018 A 
ATOM     31  C   UNL     1       1.163   1.762   0.000  0.00  0.00    +0.008 A 
ATOM     32  C   UNL     1      -0.013   1.076   0.008  0.00  0.00    +0.001 A 
ATOM     33  C   UNL     1      -1.235   1.746   0.017  0.00  0.00    +0.001 A 
ATOM     34  C   UNL     1      -1.288   3.106   0.031  0.00  0.00    +0.008 A 
ATOM     35  C   UNL     1      -0.096   3.849   0.023  0.00  0.00    -0.018 A 
ATOM     36  C   UNL     1      -0.111   5.254   0.030  0.00  0.00    +0.014 A 
ENDBRANCH  26  27
ENDBRANCH  21  26
ENDBRANCH  20  22
ENDBRANCH   1  20
TORSDOF 8
