REMARK  Name = ZINC09303732
REMARK  10 active torsions:
REMARK  status: ('A' for Active; 'I' for Inactive)
REMARK    1  A    between atoms: C_1  and  C_2
REMARK    2  A    between atoms: C_2  and  N_3
REMARK    3  A    between atoms: C_4  and  C_24
REMARK    4  A    between atoms: C_7  and  S_8
REMARK    5  A    between atoms: S_8  and  C_9
REMARK    6  A    between atoms: C_9  and  C_11
REMARK    7  A    between atoms: C_9  and  C_12
REMARK    8  A    between atoms: N_14  and  C_15
REMARK    9  A    between atoms: C_27  and  O_30
REMARK   10  A    between atoms: O_30  and  C_31
REMARK                            x       y       z     vdW  Elec       q    Type
REMARK                         _______ _______ _______ _____ _____    ______ ____
ROOT
ATOM      1  S   UNL     1       7.285  -3.613   3.618  0.00  0.00    -0.074 S 
ENDROOT
BRANCH   1   6
ATOM      2  N   UNL     1       9.797  -4.340   4.611  0.00  0.00    -0.302 N 
ATOM      3  C   UNL     1      10.889  -3.680   5.125  0.00  0.00    +0.165 A 
ATOM      4  N   UNL     1      10.601  -2.399   5.123  0.00  0.00    -0.128 NA
ATOM      5  N   UNL     1       9.422  -2.215   4.645  0.00  0.00    -0.122 NA
ATOM      6  C   UNL     1       8.886  -3.368   4.312  0.00  0.00    +0.193 A 
BRANCH   3   7
ATOM      7  C   UNL     1      12.147  -4.296   5.597  0.00  0.00    +0.020 A 
ATOM      8  C   UNL     1      12.992  -3.593   6.458  0.00  0.00    +0.015 A 
ATOM      9  C   UNL     1      14.161  -4.173   6.899  0.00  0.00    +0.046 A 
ATOM     10  C   UNL     1      14.505  -5.452   6.481  0.00  0.00    +0.120 A 
ATOM     11  C   UNL     1      13.671  -6.153   5.621  0.00  0.00    +0.046 A 
ATOM     12  C   UNL     1      12.497  -5.582   5.179  0.00  0.00    +0.015 A 
BRANCH  10  13
ATOM     13  O   UNL     1      15.662  -6.018   6.914  0.00  0.00    -0.495 OA
ATOM     14  C   UNL     1      16.474  -5.242   7.797  0.00  0.00    +0.277 C 
ENDBRANCH  10  13
ENDBRANCH   3   7
BRANCH   2  16
ATOM     15  C   UNL     1      10.036  -6.154   2.988  0.00  0.00    +0.027 C 
ATOM     16  C   UNL     1       9.646  -5.785   4.420  0.00  0.00    +0.122 C 
ENDBRANCH   2  16
ENDBRANCH   1   6
BRANCH   1  17
ATOM     17  C   UNL     1       6.711  -1.899   3.536  0.00  0.00    +0.137 C 
ATOM     18  C   UNL     1       6.574  -1.339   4.953  0.00  0.00    +0.029 C 
BRANCH  17  19
ATOM     19  C   UNL     1       5.373  -1.849   2.844  0.00  0.00    +0.230 C 
ATOM     20  O   UNL     1       4.652  -2.824   2.848  0.00  0.00    -0.274 OA
ATOM     21  N   UNL     1       4.978  -0.721   2.221  0.00  0.00    -0.284 N 
ATOM     22  H   UNL     1       5.581   0.036   2.161  0.00  0.00    +0.155 HD
BRANCH  21  23
ATOM     23  C   UNL     1       3.697  -0.643   1.661  0.00  0.00    +0.037 A 
ATOM     24  C   UNL     1       3.122  -1.766   1.083  0.00  0.00    +0.027 A 
ATOM     25  C   UNL     1       1.858  -1.691   0.530  0.00  0.00    +0.051 A 
ATOM     26  C   UNL     1       1.160  -0.494   0.551  0.00  0.00    +0.166 A 
ATOM     27  C   UNL     1       1.734   0.635   1.130  0.00  0.00    +0.168 A 
ATOM     28  C   UNL     1       3.001   0.559   1.684  0.00  0.00    +0.072 A 
ATOM     29  O   UNL     1       0.856   1.675   1.024  0.00  0.00    -0.453 OA
ATOM     30  C   UNL     1      -0.421   1.072   0.742  0.00  0.00    +0.466 C 
ATOM     31  O   UNL     1      -0.079  -0.161   0.082  0.00  0.00    -0.453 OA
ENDBRANCH  21  23
ENDBRANCH  17  19
ENDBRANCH   1  17
TORSDOF 7
