REMARK  Name = ZINC39325294
REMARK  6 active torsions:
REMARK  status: ('A' for Active; 'I' for Inactive)
REMARK    1  A    between atoms: C_1  and  C_2
REMARK    2  A    between atoms: C_5  and  N_8
REMARK    3  A    between atoms: C_11  and  C_13
REMARK    4  A    between atoms: C_14  and  C_22
REMARK    5  A    between atoms: C_16  and  C_20
REMARK    6  A    between atoms: C_17  and  N_19
REMARK                            x       y       z     vdW  Elec       q    Type
REMARK                         _______ _______ _______ _____ _____    ______ ____
ROOT
ATOM      1  N   UNL     1       0.057  -4.172  -0.021  0.00  0.00    -0.200 N 
ATOM      2  C   UNL     1       0.693  -4.966   0.868  0.00  0.00    +0.230 A 
ATOM      3  C   UNL     1       0.458  -6.262   0.504  0.00  0.00    +0.050 A 
ATOM      4  C   UNL     1      -0.338  -6.252  -0.634  0.00  0.00    +0.068 A 
ATOM      5  N   UNL     1      -0.588  -5.003  -0.951  0.00  0.00    -0.168 NA
ATOM      6  C   UNL     1      -0.836  -7.467  -1.374  0.00  0.00    +0.068 C 
ATOM      7  C   UNL     1       1.012  -7.435   1.271  0.00  0.00    +0.103 C 
ATOM      8  C   UNL     1       2.047  -6.918   2.238  0.00  0.00    +0.098 C 
ATOM      9  C   UNL     1       2.194  -5.603   2.509  0.00  0.00    +0.200 C 
ATOM     10  O   UNL     1       1.446  -4.632   1.946  0.00  0.00    -0.423 OA
ENDROOT
BRANCH   7  11
ATOM     11  C   UNL     1      -0.098  -8.117   2.028  0.00  0.00    -0.013 A 
ATOM     12  C   UNL     1      -0.825  -7.412   2.970  0.00  0.00    +0.055 A 
ATOM     13  C   UNL     1      -1.845  -8.037   3.668  0.00  0.00    +0.167 A 
ATOM     14  C   UNL     1      -2.138  -9.375   3.418  0.00  0.00    +0.168 A 
ATOM     15  C   UNL     1      -1.407 -10.076   2.472  0.00  0.00    +0.069 A 
ATOM     16  C   UNL     1      -0.392  -9.445   1.776  0.00  0.00    +0.049 A 
ATOM     17 CL   UNL     1       0.519 -10.323   0.587  0.00  0.00    -0.083 Cl
ATOM     18  O   UNL     1      -3.173  -9.754   4.224  0.00  0.00    -0.453 OA
ATOM     19  C   UNL     1      -3.240  -8.753   5.257  0.00  0.00    +0.466 C 
ATOM     20  O   UNL     1      -2.697  -7.576   4.631  0.00  0.00    -0.453 OA
ENDBRANCH   7  11
BRANCH   1  25
ATOM     21  C   UNL     1      -0.018   1.503   0.010  0.00  0.00    +0.044 C 
ATOM     22  C   UNL     1       0.002  -0.004   0.002  0.00  0.00    -0.050 A 
ATOM     23  C   UNL     1       0.006  -0.688  -1.200  0.00  0.00    +0.005 A 
ATOM     24  C   UNL     1       0.024  -2.068  -1.211  0.00  0.00    +0.028 A 
ATOM     25  C   UNL     1       0.039  -2.771  -0.013  0.00  0.00    +0.069 A 
ATOM     26  C   UNL     1       0.036  -2.082   1.192  0.00  0.00    +0.028 A 
ATOM     27  C   UNL     1       0.023  -0.700   1.196  0.00  0.00    +0.005 A 
ENDBRANCH   1  25
BRANCH   9  28
ATOM     28  N   UNL     1       3.163  -5.232   3.409  0.00  0.00    -0.328 N 
ATOM     29  H   UNL     1       3.717  -5.907   3.830  0.00  0.00    +0.145 HD
ATOM     30  H   UNL     1       3.292  -4.295   3.623  0.00  0.00    +0.145 HD
ENDBRANCH   9  28
BRANCH   8  31
ATOM     31  C   UNL     1       2.906  -7.857   2.895  0.00  0.00    +0.101 C 
ATOM     32  N   UNL     1       3.587  -8.602   3.417  0.00  0.00    -0.191 NA
ENDBRANCH   8  31
TORSDOF 4
