REMARK  Name = ZINC15023194
REMARK  9 active torsions:
REMARK  status: ('A' for Active; 'I' for Inactive)
REMARK    1  A    between atoms: C_1  and  O_2
REMARK    2  A    between atoms: O_2  and  C_3
REMARK    3  A    between atoms: C_6  and  C_11
REMARK    4  A    between atoms: C_8  and  O_9
REMARK    5  A    between atoms: O_9  and  C_10
REMARK    6  A    between atoms: C_13  and  C_32
REMARK    7  A    between atoms: C_26  and  C_27
REMARK    8  A    between atoms: C_26  and  C_29
REMARK    9  A    between atoms: C_32  and  C_34
REMARK                            x       y       z     vdW  Elec       q    Type
REMARK                         _______ _______ _______ _____ _____    ______ ____
ROOT
ATOM      1  C   UNL     1       2.145   4.176  -0.502  0.00  0.00    +0.078 C 
ATOM      2  C   UNL     1       2.348   3.947   1.016  0.00  0.00    +0.155 C 
ATOM      3  N   UNL     1       3.524   3.088   1.133  0.00  0.00    -0.310 N 
ATOM      4  C   UNL     1       4.273   3.113   2.283  0.00  0.00    +0.038 A 
ATOM      5  C   UNL     1       3.848   3.690   3.464  0.00  0.00    +0.024 A 
ATOM      6  C   UNL     1       4.671   3.674   4.575  0.00  0.00    +0.002 A 
ATOM      7  C   UNL     1       5.922   3.085   4.515  0.00  0.00    +0.001 A 
ATOM      8  C   UNL     1       6.365   2.502   3.343  0.00  0.00    +0.010 A 
ATOM      9  C   UNL     1       5.548   2.508   2.221  0.00  0.00    -0.004 A 
ATOM     10  C   UNL     1       5.975   1.887   0.945  0.00  0.00    +0.007 C 
ATOM     11  C   UNL     1       5.402   2.330  -0.188  0.00  0.00    -0.002 C 
ATOM     12  C   UNL     1       4.378   3.416  -0.039  0.00  0.00    +0.127 C 
ATOM     13  C   UNL     1       3.350   3.467  -1.182  0.00  0.00    +0.163 C 
ENDROOT
BRANCH   1  17
ATOM     14  C   UNL     1      -1.530   2.413  -1.795  0.00  0.00    +0.161 A 
ATOM     15  C   UNL     1      -0.723   1.750  -0.886  0.00  0.00    +0.049 A 
ATOM     16  C   UNL     1       0.466   2.321  -0.471  0.00  0.00    +0.008 A 
ATOM     17  C   UNL     1       0.849   3.558  -0.958  0.00  0.00    -0.036 A 
ATOM     18  C   UNL     1       0.045   4.227  -1.861  0.00  0.00    +0.053 A 
ATOM     19  C   UNL     1      -1.147   3.660  -2.281  0.00  0.00    +0.162 A 
BRANCH  14  21
ATOM     20  C   UNL     1      -3.028   0.571  -1.664  0.00  0.00    +0.277 C 
ATOM     21  O   UNL     1      -2.697   1.850  -2.208  0.00  0.00    -0.491 OA
ENDBRANCH  14  21
BRANCH  19  22
ATOM     22  O   UNL     1      -1.939   4.317  -3.170  0.00  0.00    -0.491 OA
ATOM     23  C   UNL     1      -1.480   5.589  -3.631  0.00  0.00    +0.277 C 
ENDBRANCH  19  22
ENDBRANCH   1  17
BRANCH  13  24
ATOM     24  C   UNL     1       2.974   2.078  -1.630  0.00  0.00    +0.233 C 
ATOM     25  O   UNL     1       3.445   1.111  -1.069  0.00  0.00    -0.274 OA
ATOM     26  N   UNL     1       2.115   1.910  -2.655  0.00  0.00    -0.328 N 
ATOM     27  H   UNL     1       1.796   2.680  -3.151  0.00  0.00    +0.145 HD
ATOM     28  H   UNL     1       1.815   1.020  -2.896  0.00  0.00    +0.145 HD
ENDBRANCH  13  24
BRANCH  13  29
ATOM     29  C   UNL     1       3.860   4.262  -2.311  0.00  0.00    +0.082 C 
ATOM     30  N   UNL     1       4.253   4.876  -3.183  0.00  0.00    -0.195 NA
ENDBRANCH  13  29
BRANCH   2  31
ATOM     31  C   UNL     1       2.589   5.261   1.713  0.00  0.00    +0.184 C 
ATOM     32  O   UNL     1       3.719   5.596   2.001  0.00  0.00    -0.290 OA
BRANCH  31  33
ATOM     33  C   UNL     1       1.456   6.137   2.043  0.00  0.00    +0.019 A 
ATOM     34  C   UNL     1       0.152   5.756   1.707  0.00  0.00    +0.014 A 
ATOM     35  C   UNL     1      -0.906   6.579   2.025  0.00  0.00    +0.039 A 
ATOM     36  C   UNL     1      -0.680   7.788   2.666  0.00  0.00    +0.123 A 
ATOM     37  C   UNL     1       0.610   8.174   2.997  0.00  0.00    +0.039 A 
ATOM     38  C   UNL     1       1.677   7.358   2.690  0.00  0.00    +0.014 A 
ATOM     39  F   UNL     1      -1.722   8.593   2.970  0.00  0.00    -0.205 F 
ENDBRANCH  31  33
ENDBRANCH   2  31
TORSDOF 7
