REMARK  Name = ZINC40065727
REMARK  11 active torsions:
REMARK  status: ('A' for Active; 'I' for Inactive)
REMARK    1  A    between atoms: C_1  and  C_2
REMARK    2  A    between atoms: C_2  and  O_3
REMARK    3  A    between atoms: O_3  and  C_4
REMARK    4  A    between atoms: C_7  and  C_13
REMARK    5  A    between atoms: C_9  and  O_10
REMARK    6  A    between atoms: O_10  and  C_11
REMARK    7  A    between atoms: C_11  and  C_12
REMARK    8  A    between atoms: C_21  and  C_40
REMARK    9  A    between atoms: C_22  and  C_39
REMARK   10  A    between atoms: N_28  and  C_29
REMARK   11  A    between atoms: C_29  and  C_30
REMARK                            x       y       z     vdW  Elec       q    Type
REMARK                         _______ _______ _______ _____ _____    ______ ____
ROOT
ATOM      1  C   UNL     1      -1.996  -6.097  -0.011  0.00  0.00    +0.145 C 
ATOM      2  C   UNL     1      -1.762  -6.637  -1.384  0.00  0.00    +0.072 A 
ATOM      3  C   UNL     1      -2.455  -6.387  -2.652  0.00  0.00    +0.199 A 
ATOM      4  O   UNL     1      -3.286  -5.508  -2.796  0.00  0.00    -0.287 OA
ATOM      5  C   UNL     1      -2.048  -7.308  -3.743  0.00  0.00    +0.065 A 
ATOM      6  C   UNL     1      -2.752  -7.332  -4.947  0.00  0.00    +0.015 A 
ATOM      7  C   UNL     1      -2.367  -8.189  -5.940  0.00  0.00    +0.004 A 
ATOM      8  C   UNL     1      -1.282  -9.034  -5.753  0.00  0.00    -0.044 A 
ATOM      9  C   UNL     1      -0.574  -9.021  -4.572  0.00  0.00    -0.005 A 
ATOM     10  C   UNL     1      -0.945  -8.154  -3.544  0.00  0.00    +0.143 A 
ATOM     11  O   UNL     1      -0.230  -8.152  -2.396  0.00  0.00    -0.449 OA
ATOM     12  C   UNL     1      -0.703  -7.497  -1.317  0.00  0.00    +0.199 A 
ATOM     13  C   UNL     1      -0.233  -7.545   0.078  0.00  0.00    +0.283 C 
ATOM     14  O   UNL     1       0.695  -8.220   0.477  0.00  0.00    -0.267 OA
ATOM     15  N   UNL     1      -0.983  -6.729   0.850  0.00  0.00    -0.279 N 
ATOM     16  C   UNL     1       0.601  -9.947  -4.389  0.00  0.00    +0.048 C 
ATOM     17  C   UNL     1      -0.872  -9.975  -6.856  0.00  0.00    +0.044 C 
ENDROOT
BRANCH   1  21
ATOM     18  C   UNL     1      -1.498  -1.849   0.006  0.00  0.00    +0.162 A 
ATOM     19  C   UNL     1      -0.389  -2.680  -0.003  0.00  0.00    +0.050 A 
ATOM     20  C   UNL     1      -0.553  -4.052  -0.008  0.00  0.00    +0.009 A 
ATOM     21  C   UNL     1      -1.823  -4.600  -0.005  0.00  0.00    -0.019 A 
ATOM     22  C   UNL     1      -2.934  -3.777   0.004  0.00  0.00    +0.055 A 
ATOM     23  C   UNL     1      -2.776  -2.400   0.016  0.00  0.00    +0.162 A 
BRANCH  18  24
ATOM     24  O   UNL     1      -1.339  -0.499   0.012  0.00  0.00    -0.489 OA
BRANCH  24  26
ATOM     25  C   UNL     1      -0.019   1.526   0.010  0.00  0.00    +0.048 C 
ATOM     26  C   UNL     1       0.002  -0.004   0.002  0.00  0.00    +0.226 C 
ENDBRANCH  24  26
ENDBRANCH  18  24
BRANCH  23  27
ATOM     27  O   UNL     1      -3.868  -1.589   0.030  0.00  0.00    -0.489 OA
BRANCH  27  28
ATOM     28  C   UNL     1      -5.148  -2.225   0.039  0.00  0.00    +0.226 C 
ATOM     29  C   UNL     1      -6.246  -1.159   0.055  0.00  0.00    +0.048 C 
ENDBRANCH  27  28
ENDBRANCH  23  27
ENDBRANCH   1  21
BRANCH  15  30
ATOM     30  C   UNL     1      -0.818  -6.510   2.289  0.00  0.00    +0.144 C 
BRANCH  30  31
ATOM     31  C   UNL     1      -1.656  -7.506   3.048  0.00  0.00    -0.026 A 
ATOM     32  C   UNL     1      -2.962  -7.199   3.379  0.00  0.00    +0.009 A 
ATOM     33  C   UNL     1      -3.735  -8.110   4.075  0.00  0.00    +0.050 A 
ATOM     34  C   UNL     1      -3.201  -9.334   4.442  0.00  0.00    +0.166 A 
ATOM     35  C   UNL     1      -1.885  -9.644   4.108  0.00  0.00    +0.167 A 
ATOM     36  C   UNL     1      -1.118  -8.728   3.406  0.00  0.00    +0.054 A 
ATOM     37  O   UNL     1      -1.598 -10.894   4.577  0.00  0.00    -0.453 OA
ATOM     38  C   UNL     1      -2.616 -11.181   5.554  0.00  0.00    +0.466 C 
ATOM     39  O   UNL     1      -3.739 -10.390   5.120  0.00  0.00    -0.453 OA
ENDBRANCH  30  31
ENDBRANCH  15  30
TORSDOF 7
