REMARK  Name = ZINC14013769
REMARK  6 active torsions:
REMARK  status: ('A' for Active; 'I' for Inactive)
REMARK    1  A    between atoms: C_4  and  C_7
REMARK    2  A    between atoms: C_7  and  C_8
REMARK    3  A    between atoms: C_7  and  N_14
REMARK    4  A    between atoms: C_15  and  C_17
REMARK    5  A    between atoms: C_17  and  N_51
REMARK    6  A    between atoms: C_22  and  C_24
REMARK                            x       y       z     vdW  Elec       q    Type
REMARK                         _______ _______ _______ _____ _____    ______ ____
ROOT
ATOM      1  N   UNL     1      -4.349  -0.252  -1.642  0.00  0.00    -0.306 N 
ATOM      2  C   UNL     1      -3.163   0.373  -1.785  0.00  0.00    +0.197 C 
ATOM      3  O   UNL     1      -2.923   0.992  -2.799  0.00  0.00    -0.278 OA
ATOM      4  H   UNL     1      -4.541  -0.748  -0.830  0.00  0.00    +0.150 HD
ENDROOT
BRANCH   1   5
ATOM      5  C   UNL     1      -5.347  -0.182  -2.711  0.00  0.00    +0.133 C 
BRANCH   5   9
ATOM      6  C   UNL     1      -4.554  -3.228  -5.600  0.00  0.00    +0.000 A 
ATOM      7  C   UNL     1      -4.955  -1.971  -6.013  0.00  0.00    +0.000 A 
ATOM      8  C   UNL     1      -5.211  -0.986  -5.078  0.00  0.00    +0.006 A 
ATOM      9  C   UNL     1      -5.068  -1.257  -3.730  0.00  0.00    -0.023 A 
ATOM     10  C   UNL     1      -4.662  -2.512  -3.317  0.00  0.00    +0.006 A 
ATOM     11  C   UNL     1      -4.410  -3.499  -4.252  0.00  0.00    +0.000 A 
ENDBRANCH   5   9
BRANCH   5  12
ATOM     12  C   UNL     1      -6.722  -0.388  -2.129  0.00  0.00    -0.023 A 
ATOM     13  C   UNL     1      -6.921  -1.335  -1.142  0.00  0.00    +0.006 A 
ATOM     14  C   UNL     1      -8.181  -1.520  -0.605  0.00  0.00    +0.000 A 
ATOM     15  C   UNL     1      -9.245  -0.765  -1.062  0.00  0.00    +0.000 A 
ATOM     16  C   UNL     1      -9.047   0.179  -2.053  0.00  0.00    +0.000 A 
ATOM     17  C   UNL     1      -7.786   0.367  -2.587  0.00  0.00    +0.006 A 
ENDBRANCH   5  12
ENDBRANCH   1   5
BRANCH   2  18
ATOM     18  C   UNL     1      -2.136   0.301  -0.684  0.00  0.00    +0.020 C 
BRANCH  18  24
ATOM     19  C   UNL     1      -0.193   0.348  -2.127  0.00  0.00    -0.077 C 
ATOM     20  C   UNL     1       0.960   1.228  -2.616  0.00  0.00    -0.019 C 
ATOM     21  C   UNL     1       1.881   1.556  -1.437  0.00  0.00    -0.003 C 
ATOM     22  C   UNL     1       1.067   2.250  -0.342  0.00  0.00    -0.006 C 
ATOM     23  C   UNL     1      -0.089   1.341   0.082  0.00  0.00    +0.020 C 
ATOM     24  N   UNL     1      -0.951   1.083  -1.092  0.00  0.00    +0.393 N 
ATOM     25  H   UNL     1      -1.261   1.981  -1.481  0.00  0.00    -0.080 HD
BRANCH  23  26
ATOM     26  C   UNL     1      -0.905   2.029   1.146  0.00  0.00    +0.197 C 
ATOM     27  O   UNL     1      -1.853   2.717   0.833  0.00  0.00    -0.278 OA
ATOM     28  N   UNL     1      -0.580   1.879   2.445  0.00  0.00    -0.331 N 
ATOM     29  H   UNL     1       0.178   1.329   2.696  0.00  0.00    +0.145 HD
ATOM     30  H   UNL     1      -1.105   2.322   3.130  0.00  0.00    +0.145 HD
ENDBRANCH  23  26
ENDBRANCH  18  24
ENDBRANCH   2  18
TORSDOF 6
