REMARK  Name = ZINC03381661
REMARK  7 active torsions:
REMARK  status: ('A' for Active; 'I' for Inactive)
REMARK    1  A    between atoms: C_1  and  C_2
REMARK    2  A    between atoms: C_2  and  C_4
REMARK    3  A    between atoms: C_2  and  S_16
REMARK    4  A    between atoms: N_6  and  C_7
REMARK    5  A    between atoms: S_16  and  C_17
REMARK    6  A    between atoms: C_20  and  C_29
REMARK    7  A    between atoms: N_21  and  C_22
REMARK                            x       y       z     vdW  Elec       q    Type
REMARK                         _______ _______ _______ _____ _____    ______ ____
ROOT
ATOM      1  C   UNL     1       8.285  -2.930   5.500  0.00  0.00    +0.197 A 
ATOM      2  N   UNL     1       9.230  -2.101   5.110  0.00  0.00    -0.122 NA
ATOM      3  N   UNL     1      10.266  -2.228   5.859  0.00  0.00    -0.128 NA
ATOM      4  C   UNL     1      10.053  -3.152   6.768  0.00  0.00    +0.169 A 
ATOM      5  N   UNL     1       8.776  -3.630   6.566  0.00  0.00    -0.270 N 
ENDROOT
BRANCH   5   6
ATOM      6  C   UNL     1       8.118  -4.627   7.301  0.00  0.00    +0.051 A 
ATOM      7  C   UNL     1       7.759  -4.395   8.622  0.00  0.00    +0.029 A 
ATOM      8  C   UNL     1       7.107  -5.377   9.342  0.00  0.00    +0.040 A 
ATOM      9  C   UNL     1       6.821  -6.596   8.751  0.00  0.00    +0.124 A 
ATOM     10  C   UNL     1       7.183  -6.831   7.435  0.00  0.00    +0.040 A 
ATOM     11  C   UNL     1       7.831  -5.850   6.710  0.00  0.00    +0.029 A 
ATOM     12  F   UNL     1       6.188  -7.557   9.459  0.00  0.00    -0.205 F 
ENDBRANCH   5   6
BRANCH   4  13
ATOM     13  C   UNL     1      11.002  -3.595   7.810  0.00  0.00    +0.022 A 
ATOM     14  C   UNL     1      12.118  -2.817   8.145  0.00  0.00    +0.031 A 
ATOM     15  C   UNL     1      12.975  -3.266   9.127  0.00  0.00    +0.111 A 
ATOM     16  N   UNL     1      12.761  -4.415   9.740  0.00  0.00    -0.263 NA
ATOM     17  C   UNL     1      11.725  -5.181   9.452  0.00  0.00    +0.111 A 
ATOM     18  C   UNL     1      10.814  -4.806   8.487  0.00  0.00    +0.031 A 
ENDBRANCH   4  13
BRANCH   1  19
ATOM     19  S   UNL     1       6.688  -3.109   4.778  0.00  0.00    -0.073 S 
BRANCH  19  21
ATOM     20  C   UNL     1       7.867  -2.297   2.451  0.00  0.00    +0.029 C 
ATOM     21  C   UNL     1       6.799  -1.873   3.460  0.00  0.00    +0.137 C 
BRANCH  21  22
ATOM     22  C   UNL     1       5.467  -1.760   2.764  0.00  0.00    +0.230 C 
ATOM     23  O   UNL     1       4.658  -2.659   2.853  0.00  0.00    -0.274 OA
ATOM     24  N   UNL     1       5.175  -0.659   2.043  0.00  0.00    -0.284 N 
ATOM     25  H   UNL     1       5.848   0.026   1.909  0.00  0.00    +0.155 HD
BRANCH  24  26
ATOM     26  C   UNL     1       3.898  -0.506   1.486  0.00  0.00    +0.037 A 
ATOM     27  C   UNL     1       3.745   0.149   0.271  0.00  0.00    +0.027 A 
ATOM     28  C   UNL     1       2.487   0.302  -0.280  0.00  0.00    +0.051 A 
ATOM     29  C   UNL     1       1.375  -0.199   0.378  0.00  0.00    +0.166 A 
ATOM     30  C   UNL     1       1.526  -0.857   1.596  0.00  0.00    +0.168 A 
ATOM     31  C   UNL     1       2.787  -1.009   2.148  0.00  0.00    +0.072 A 
ATOM     32  O   UNL     1       0.294  -1.250   2.035  0.00  0.00    -0.453 OA
ATOM     33  C   UNL     1      -0.563  -1.189   0.880  0.00  0.00    +0.466 C 
ATOM     34  O   UNL     1       0.049  -0.181   0.053  0.00  0.00    -0.453 OA
ENDBRANCH  24  26
ENDBRANCH  21  22
ENDBRANCH  19  21
ENDBRANCH   1  19
TORSDOF 6
