REMARK  Name = ZINC02906398
REMARK  4 active torsions:
REMARK  status: ('A' for Active; 'I' for Inactive)
REMARK    1  A    between atoms: C_1  and  C_2
REMARK    2  A    between atoms: C_2  and  S_3
REMARK    3  A    between atoms: S_3  and  C_4
REMARK    4  A    between atoms: C_17  and  C_20
REMARK                            x       y       z     vdW  Elec       q    Type
REMARK                         _______ _______ _______ _____ _____    ______ ____
ROOT
ATOM      1  C   UNL     1       5.606   6.316   2.052  0.00  0.00    +0.212 A 
ATOM      2  N   UNL     1       4.347   5.961   1.817  0.00  0.00    -0.184 NA
ATOM      3  C   UNL     1       4.069   4.693   1.567  0.00  0.00    +0.248 A 
ATOM      4  C   UNL     1       5.127   3.755   1.553  0.00  0.00    +0.156 A 
ATOM      5  N   UNL     1       6.359   4.175   1.798  0.00  0.00    -0.141 NA
ATOM      6  N   UNL     1       6.585   5.420   2.040  0.00  0.00    -0.122 NA
ATOM      7  C   UNL     1       4.839   2.334   1.267  0.00  0.00    +0.028 A 
ATOM      8  C   UNL     1       5.365   1.314   2.050  0.00  0.00    +0.012 A 
ATOM      9  C   UNL     1       5.099  -0.003   1.730  0.00  0.00    +0.001 A 
ATOM     10  C   UNL     1       4.311  -0.313   0.635  0.00  0.00    +0.002 A 
ATOM     11  C   UNL     1       3.775   0.693  -0.148  0.00  0.00    +0.024 A 
ATOM     12  C   UNL     1       4.028   2.017   0.162  0.00  0.00    +0.039 A 
ATOM     13  N   UNL     1       3.491   3.059  -0.599  0.00  0.00    -0.305 N 
ATOM     14  C   UNL     1       2.467   3.911  -0.001  0.00  0.00    +0.294 C 
ATOM     15  O   UNL     1       2.800   4.281   1.332  0.00  0.00    -0.449 OA
ATOM     16  H   UNL     1       3.792   3.213  -1.508  0.00  0.00    +0.150 HD
ENDROOT
BRANCH  14  17
ATOM     17  C   UNL     1       1.155   3.170   0.008  0.00  0.00    +0.012 A 
ATOM     18  C   UNL     1       0.811   2.369  -1.080  0.00  0.00    +0.009 A 
ATOM     19  C   UNL     1      -0.366   1.687  -1.104  0.00  0.00    +0.009 A 
ATOM     20  C   UNL     1      -1.253   1.793  -0.019  0.00  0.00    -0.018 A 
ATOM     21  C   UNL     1      -2.475   1.099  -0.005  0.00  0.00    +0.008 A 
ATOM     22  C   UNL     1      -3.306   1.221   1.066  0.00  0.00    +0.001 A 
ATOM     23  C   UNL     1      -2.962   2.020   2.154  0.00  0.00    +0.001 A 
ATOM     24  C   UNL     1      -1.785   2.703   2.178  0.00  0.00    +0.008 A 
ATOM     25  C   UNL     1      -0.900   2.602   1.090  0.00  0.00    -0.017 A 
ATOM     26  C   UNL     1       0.324   3.292   1.079  0.00  0.00    +0.017 A 
ENDBRANCH  14  17
BRANCH   1  27
ATOM     27  S   UNL     1       5.982   8.005   2.385  0.00  0.00    -0.085 S 
BRANCH  27  29
ATOM     28  C   UNL     1       8.339   9.276   2.926  0.00  0.00    +0.016 C 
ATOM     29  C   UNL     1       7.774   7.889   2.617  0.00  0.00    +0.074 C 
ENDBRANCH  27  29
ENDBRANCH   1  27
TORSDOF 3
