REMARK  Name = ZINC20692681
REMARK  9 active torsions:
REMARK  status: ('A' for Active; 'I' for Inactive)
REMARK    1  A    between atoms: C_1  and  O_2
REMARK    2  A    between atoms: O_2  and  C_3
REMARK    3  A    between atoms: C_6  and  N_9
REMARK    4  A    between atoms: N_9  and  S_10
REMARK    5  A    between atoms: S_10  and  C_13
REMARK    6  A    between atoms: C_26  and  C_29
REMARK    7  A    between atoms: C_32  and  O_37
REMARK    8  A    between atoms: C_33  and  O_35
REMARK    9  A    between atoms: O_35  and  C_36
REMARK                            x       y       z     vdW  Elec       q    Type
REMARK                         _______ _______ _______ _____ _____    ______ ____
ROOT
ATOM      1  C   UNL     1       3.200  -1.969   2.225  0.00  0.00    +0.109 A 
ATOM      2  C   UNL     1       2.070  -2.397   1.554  0.00  0.00    +0.030 A 
ATOM      3  C   UNL     1       1.155  -1.480   1.080  0.00  0.00    +0.025 A 
ATOM      4  C   UNL     1       1.361  -0.119   1.274  0.00  0.00    +0.031 A 
ATOM      5  C   UNL     1       2.499   0.307   1.968  0.00  0.00    -0.018 A 
ATOM      6  C   UNL     1       3.411  -0.617   2.429  0.00  0.00    +0.034 A 
ATOM      7  C   UNL     1       2.657   1.760   2.193  0.00  0.00    +0.049 C 
ATOM      8  C   UNL     1       3.991   2.386   2.380  0.00  0.00    -0.023 C 
ATOM      9  C   UNL     1       3.949   3.624   1.903  0.00  0.00    -0.030 C 
ATOM     10  C   UNL     1       2.565   3.913   1.319  0.00  0.00    +0.033 C 
ATOM     11  C   UNL     1       2.086   2.503   0.949  0.00  0.00    +0.029 C 
ATOM     12  C   UNL     1       0.589   2.249   0.978  0.00  0.00    +0.105 C 
ATOM     13  N   UNL     1       0.426   0.794   0.771  0.00  0.00    -0.336 N 
ATOM     14  H   UNL     1      -0.441   0.412   0.212  0.00  0.00    +0.147 HD
ENDROOT
BRANCH  12  15
ATOM     15  C   UNL     1      -0.090   3.013  -0.130  0.00  0.00    -0.023 A 
ATOM     16  C   UNL     1      -0.004   2.559  -1.433  0.00  0.00    +0.009 A 
ATOM     17  C   UNL     1      -0.630   3.252  -2.452  0.00  0.00    +0.049 A 
ATOM     18  C   UNL     1      -1.336   4.410  -2.170  0.00  0.00    +0.158 A 
ATOM     19  C   UNL     1      -1.418   4.870  -0.859  0.00  0.00    +0.162 A 
ATOM     20  C   UNL     1      -0.793   4.167   0.158  0.00  0.00    +0.054 A 
BRANCH  19  21
ATOM     21  O   UNL     1      -2.111   6.006  -0.578  0.00  0.00    -0.491 OA
ATOM     22  C   UNL     1      -2.153   6.418   0.790  0.00  0.00    +0.277 C 
ENDBRANCH  19  21
BRANCH  18  23
ATOM     23  O   UNL     1      -1.948   5.096  -3.172  0.00  0.00    -0.503 OA
ATOM     24  H   UNL     1      -2.508   6.016  -2.947  0.00  0.00    +0.292 HD
ENDBRANCH  18  23
ENDBRANCH  12  15
BRANCH   1  25
ATOM     25  S   UNL     1       4.370  -3.143   2.822  0.00  0.00    +0.072 S 
ATOM     26  O   UNL     1       5.148  -2.478   3.807  0.00  0.00    -0.150 OA
ATOM     27  O   UNL     1       3.645  -4.333   3.100  0.00  0.00    -0.150 OA
BRANCH  25  28
ATOM     28  N   UNL     1       5.393  -3.495   1.568  0.00  0.00    -0.216 N 
ATOM     29  H   UNL     1       5.433  -4.516   1.161  0.00  0.00    +0.174 HD
BRANCH  28  33
ATOM     30  C   UNL     1       7.816  -0.512  -0.045  0.00  0.00    +0.120 A 
ATOM     31  C   UNL     1       8.122  -1.060   1.192  0.00  0.00    +0.047 A 
ATOM     32  C   UNL     1       7.320  -2.049   1.727  0.00  0.00    +0.028 A 
ATOM     33  C   UNL     1       6.206  -2.494   1.026  0.00  0.00    +0.048 A 
ATOM     34  C   UNL     1       5.904  -1.948  -0.214  0.00  0.00    +0.028 A 
ATOM     35  C   UNL     1       6.704  -0.956  -0.746  0.00  0.00    +0.047 A 
BRANCH  30  37
ATOM     36  C   UNL     1       8.233   0.980  -1.850  0.00  0.00    +0.277 C 
ATOM     37  O   UNL     1       8.607   0.461  -0.572  0.00  0.00    -0.495 OA
ENDBRANCH  30  37
ENDBRANCH  28  33
ENDBRANCH  25  28
ENDBRANCH   1  25
TORSDOF 7
