REMARK  Name = ZINC43287423
REMARK  13 active torsions:
REMARK  status: ('A' for Active; 'I' for Inactive)
REMARK    1  A    between atoms: C_1  and  C_2
REMARK    2  A    between atoms: C_2  and  C_3
REMARK    3  A    between atoms: C_3  and  C_5
REMARK    4  A    between atoms: C_3  and  N_22
REMARK    5  A    between atoms: C_5  and  C_7
REMARK    6  A    between atoms: C_5  and  N_13
REMARK    7  A    between atoms: N_13  and  C_14
REMARK    8  A    between atoms: N_13  and  C_15
REMARK    9  A    between atoms: C_15  and  C_16
REMARK   10  A    between atoms: C_16  and  C_18
REMARK   11  A    between atoms: C_16  and  O_21
REMARK   12  A    between atoms: C_18  and  O_19
REMARK   13  A    between atoms: O_19  and  C_20
REMARK                            x       y       z     vdW  Elec       q    Type
REMARK                         _______ _______ _______ _____ _____    ______ ____
ROOT
ATOM      1  C   UNL     1       1.240  -1.968  -1.190  0.00  0.00    -0.046 C 
ENDROOT
BRANCH   1   2
ATOM      2  C   UNL     1       2.308  -2.681  -1.979  0.00  0.00    -0.024 A 
ATOM      3  C   UNL     1       2.198  -3.346  -3.156  0.00  0.00    +0.024 A 
ATOM      4  C   UNL     1       3.325  -3.931  -3.702  0.00  0.00    +0.025 A 
ATOM      5  C   UNL     1       4.506  -3.823  -3.045  0.00  0.00    +0.060 A 
ATOM      6  S   UNL     1       4.045  -2.864  -1.612  0.00  0.00    -0.102 S 
ATOM      7 BR   UNL     1       3.221  -4.869  -5.341  0.00  0.00    -0.050 Br
ENDBRANCH   1   2
BRANCH   1   8
ATOM      8  N   UNL     1       1.235  -2.469   0.191  0.00  0.00    +0.383 N 
ATOM      9  C   UNL     1       2.525  -2.168   0.826  0.00  0.00    -0.095 C 
ATOM     10  H   UNL     1       0.493  -2.022   0.708  0.00  0.00    -0.081 HD
BRANCH   8  11
ATOM     11  C   UNL     1       1.020  -3.922   0.183  0.00  0.00    -0.044 C 
BRANCH  11  12
ATOM     12  C   UNL     1      -0.393  -4.227  -0.316  0.00  0.00    +0.124 C 
BRANCH  12  13
ATOM     13  O   UNL     1      -1.349  -3.667   0.587  0.00  0.00    -0.391 OA
ATOM     14  H   UNL     1      -1.285  -4.010   1.489  0.00  0.00    +0.210 HD
ENDBRANCH  12  13
BRANCH  12  15
ATOM     15  C   UNL     1      -0.592  -5.742  -0.395  0.00  0.00    +0.188 C 
BRANCH  15  16
ATOM     16  O   UNL     1      -1.868  -6.026  -0.971  0.00  0.00    -0.381 OA
ATOM     17  C   UNL     1      -2.155  -7.421  -1.090  0.00  0.00    +0.194 C 
ENDBRANCH  15  16
ENDBRANCH  12  15
ENDBRANCH  11  12
ENDBRANCH   8  11
ENDBRANCH   1   8
BRANCH   1  18
ATOM     18  C   UNL     1       1.528  -0.465  -1.186  0.00  0.00    -0.085 C 
BRANCH  18  19
ATOM     19  N   UNL     1       1.434   0.055  -2.556  0.00  0.00    +0.379 N 
ATOM     20  H   UNL     1       2.109  -0.415  -3.141  0.00  0.00    -0.090 HD
ATOM     21  H   UNL     1       0.505  -0.108  -2.915  0.00  0.00    -0.090 HD
ATOM     22  H   UNL     1       1.624   1.046  -2.554  0.00  0.00    -0.090 HD
ENDBRANCH  18  19
BRANCH  18  24
ATOM     23  C   UNL     1       0.909   1.714  -0.131  0.00  0.00    +0.002 C 
ATOM     24  C   UNL     1       0.505   0.247  -0.298  0.00  0.00    -0.021 C 
ENDBRANCH  18  24
ENDBRANCH   1  18
TORSDOF 10
