REMARK  Name = ZINC35853287
REMARK  8 active torsions:
REMARK  status: ('A' for Active; 'I' for Inactive)
REMARK    1  A    between atoms: C_1  and  C_2
REMARK    2  A    between atoms: C_7  and  S_8
REMARK    3  A    between atoms: S_8  and  N_11
REMARK    4  A    between atoms: N_11  and  C_12
REMARK    5  A    between atoms: N_11  and  C_19
REMARK    6  A    between atoms: N_22  and  C_25
REMARK    7  A    between atoms: C_25  and  C_26
REMARK    8  A    between atoms: C_28  and  N_33
REMARK                            x       y       z     vdW  Elec       q    Type
REMARK                         _______ _______ _______ _____ _____    ______ ____
ROOT
ATOM      1  N   UNL     1       1.345   1.626   2.833  0.00  0.00    -0.200 N 
ENDROOT
BRANCH   1   2
ATOM      2  C   UNL     1       1.173   3.010   2.733  0.00  0.00    +0.052 A 
ATOM      3  C   UNL     1       0.238   3.654   3.533  0.00  0.00    +0.027 A 
ATOM      4  C   UNL     1       0.071   5.022   3.433  0.00  0.00    +0.040 A 
ATOM      5  C   UNL     1       0.833   5.750   2.536  0.00  0.00    +0.124 A 
ATOM      6  C   UNL     1       1.766   5.110   1.737  0.00  0.00    +0.040 A 
ATOM      7  C   UNL     1       1.940   3.744   1.837  0.00  0.00    +0.027 A 
ATOM      8  F   UNL     1       0.667   7.088   2.440  0.00  0.00    -0.205 F 
ENDBRANCH   1   2
BRANCH   1   9
ATOM      9  C   UNL     1       2.628   1.078   3.277  0.00  0.00    +0.095 C 
ATOM     10  C   UNL     1       2.926   1.558   4.700  0.00  0.00    +0.006 C 
ATOM     11  C   UNL     1       4.303   1.047   5.128  0.00  0.00    -0.077 C 
ATOM     12  N   UNL     1       5.327   1.564   4.212  0.00  0.00    +0.382 N 
ATOM     13  C   UNL     1       5.089   1.048   2.858  0.00  0.00    -0.077 C 
ATOM     14  C   UNL     1       3.742   1.560   2.343  0.00  0.00    +0.006 C 
ATOM     15  H   UNL     1       5.287   2.572   4.199  0.00  0.00    -0.081 HD
BRANCH  12  16
ATOM     16  C   UNL     1       6.654   1.135   4.671  0.00  0.00    -0.041 C 
BRANCH  16  17
ATOM     17  C   UNL     1       7.715   1.790   3.825  0.00  0.00    -0.043 A 
ATOM     18  C   UNL     1       8.345   1.071   2.826  0.00  0.00    +0.036 A 
ATOM     19  C   UNL     1       9.318   1.672   2.050  0.00  0.00    +0.126 A 
ATOM     20  C   UNL     1       9.662   2.993   2.272  0.00  0.00    +0.034 A 
ATOM     21  C   UNL     1       9.033   3.713   3.270  0.00  0.00    +0.022 A 
ATOM     22  C   UNL     1       8.054   3.114   4.043  0.00  0.00    +0.042 A 
ATOM     23 CL   UNL     1       7.258   4.019   5.292  0.00  0.00    -0.083 Cl
BRANCH  19  24
ATOM     24  N   UNL     1       9.993   0.902   0.982  0.00  0.00    +0.056 N 
ATOM     25  O   UNL     1       9.692  -0.253   0.788  0.00  0.00    -0.126 OA
ATOM     26  O   UNL     1      10.844   1.427   0.303  0.00  0.00    -0.126 OA
ENDBRANCH  19  24
ENDBRANCH  16  17
ENDBRANCH  12  16
ENDBRANCH   1   9
BRANCH   1  27
ATOM     27  S   UNL     1       0.097   0.607   2.449  0.00  0.00    +0.075 S 
ATOM     28  O   UNL     1      -1.084   1.398   2.435  0.00  0.00    -0.150 OA
ATOM     29  O   UNL     1       0.238  -0.538   3.279  0.00  0.00    -0.150 OA
BRANCH  27  36
ATOM     30  C   UNL     1      -0.067   2.407   0.024  0.00  0.00    +0.046 C 
ATOM     31  C   UNL     1       0.262   0.963  -0.253  0.00  0.00    -0.024 A 
ATOM     32  C   UNL     1       0.473   0.538  -1.551  0.00  0.00    +0.005 A 
ATOM     33  C   UNL     1       0.775  -0.787  -1.804  0.00  0.00    +0.000 A 
ATOM     34  C   UNL     1       0.867  -1.687  -0.759  0.00  0.00    +0.002 A 
ATOM     35  C   UNL     1       0.657  -1.262   0.539  0.00  0.00    +0.029 A 
ATOM     36  C   UNL     1       0.359   0.064   0.793  0.00  0.00    +0.112 A 
ENDBRANCH  27  36
ENDBRANCH   1  27
TORSDOF 7
