REMARK  Name = ZINC21249379
REMARK  10 active torsions:
REMARK  status: ('A' for Active; 'I' for Inactive)
REMARK    1  A    between atoms: C_1  and  C_2
REMARK    2  A    between atoms: C_2  and  O_3
REMARK    3  A    between atoms: O_3  and  C_4
REMARK    4  A    between atoms: C_6  and  C_11
REMARK    5  A    between atoms: C_9  and  O_10
REMARK    6  A    between atoms: C_16  and  C_21
REMARK    7  A    between atoms: C_24  and  C_27
REMARK    8  A    between atoms: C_27  and  C_28
REMARK    9  A    between atoms: C_27  and  C_29
REMARK   10  A    between atoms: C_27  and  C_30
REMARK                            x       y       z     vdW  Elec       q    Type
REMARK                         _______ _______ _______ _____ _____    ______ ____
ROOT
ATOM      1  C   UNL     1      -2.624   2.370   2.564  0.00  0.00    +0.136 C 
ATOM      2  C   UNL     1      -1.948   1.766   1.357  0.00  0.00    +0.036 C 
ATOM      3  C   UNL     1      -2.529   1.519   0.170  0.00  0.00    +0.017 C 
ATOM      4  C   UNL     1      -1.729   0.900  -0.964  0.00  0.00    +0.059 C 
ATOM      5  C   UNL     1      -0.273   1.356  -0.885  0.00  0.00    +0.032 C 
ATOM      6  C   UNL     1       0.284   0.902   0.469  0.00  0.00    +0.088 C 
ATOM      7  C   UNL     1      -0.576   1.468   1.559  0.00  0.00    +0.163 C 
ATOM      8  O   UNL     1      -0.079   1.679   2.648  0.00  0.00    -0.292 OA
ATOM      9  N   UNL     1      -3.830   1.772  -0.122  0.00  0.00    -0.316 N 
ATOM     10  C   UNL     1      -4.497   2.955   0.175  0.00  0.00    +0.052 A 
ATOM     11  C   UNL     1      -5.029   3.771  -0.808  0.00  0.00    +0.025 A 
ATOM     12  C   UNL     1      -5.780   4.875  -0.441  0.00  0.00    +0.002 A 
ATOM     13  C   UNL     1      -5.996   5.158   0.895  0.00  0.00    +0.002 A 
ATOM     14  C   UNL     1      -5.446   4.356   1.880  0.00  0.00    +0.025 A 
ATOM     15  C   UNL     1      -4.679   3.261   1.516  0.00  0.00    +0.049 A 
ATOM     16  N   UNL     1      -4.066   2.450   2.470  0.00  0.00    -0.331 N 
ATOM     17  H   UNL     1      -4.437   1.009  -0.631  0.00  0.00    +0.152 HD
ATOM     18  H   UNL     1      -4.695   1.866   3.157  0.00  0.00    +0.147 HD
ENDROOT
BRANCH   1  21
ATOM     19  C   UNL     1      -0.873   5.342   4.107  0.00  0.00    +0.162 A 
ATOM     20  C   UNL     1      -1.373   4.064   3.917  0.00  0.00    +0.055 A 
ATOM     21  C   UNL     1      -2.081   3.761   2.769  0.00  0.00    -0.019 A 
ATOM     22  C   UNL     1      -2.287   4.731   1.805  0.00  0.00    +0.009 A 
ATOM     23  C   UNL     1      -1.796   6.010   1.991  0.00  0.00    +0.049 A 
ATOM     24  C   UNL     1      -1.085   6.319   3.139  0.00  0.00    +0.158 A 
BRANCH  24  25
ATOM     25  O   UNL     1      -0.597   7.576   3.321  0.00  0.00    -0.503 OA
ATOM     26  H   UNL     1      -0.766   8.347   2.555  0.00  0.00    +0.292 HD
ENDBRANCH  24  25
BRANCH  19  27
ATOM     27  O   UNL     1      -0.176   5.641   5.236  0.00  0.00    -0.489 OA
BRANCH  27  29
ATOM     28  C   UNL     1       0.804   5.110   7.380  0.00  0.00    +0.048 C 
ATOM     29  C   UNL     1       0.003   4.588   6.185  0.00  0.00    +0.226 C 
ENDBRANCH  27  29
ENDBRANCH  19  27
ENDBRANCH   1  21
BRANCH   5  30
ATOM     30  C   UNL     1       0.521   0.729  -2.001  0.00  0.00    -0.043 A 
ATOM     31  C   UNL     1       0.589  -0.647  -2.113  0.00  0.00    +0.004 A 
ATOM     32  C   UNL     1       1.314  -1.223  -3.139  0.00  0.00    +0.004 A 
ATOM     33  C   UNL     1       1.980  -0.422  -4.048  0.00  0.00    -0.042 A 
ATOM     34  C   UNL     1       1.917   0.954  -3.933  0.00  0.00    +0.004 A 
ATOM     35  C   UNL     1       1.188   1.529  -2.910  0.00  0.00    +0.004 A 
BRANCH  33  36
ATOM     36  C   UNL     1       2.775  -1.050  -5.164  0.00  0.00    -0.013 C 
ATOM     37  C   UNL     1       4.239  -0.621  -5.052  0.00  0.00    +0.015 C 
ATOM     38  C   UNL     1       2.681  -2.574  -5.063  0.00  0.00    +0.015 C 
ATOM     39  C   UNL     1       2.211  -0.592  -6.511  0.00  0.00    +0.015 C 
ENDBRANCH  33  36
ENDBRANCH   5  30
TORSDOF 6
