REMARK  Name = ZINC01480750
REMARK  10 active torsions:
REMARK  status: ('A' for Active; 'I' for Inactive)
REMARK    1  A    between atoms: C_1  and  C_2
REMARK    2  A    between atoms: C_2  and  CA_3
REMARK    3  A    between atoms: CA_3  and  C_5
REMARK    4  A    between atoms: CA_3  and  N_7
REMARK    5  A    between atoms: C_5  and  O_6
REMARK    6  A    between atoms: N_7  and  C_8
REMARK    7  A    between atoms: C_9  and  C_20
REMARK    8  A    between atoms: C_16  and  C_19
REMARK    9  A    between atoms: N_24  and  C_28
REMARK   10  A    between atoms: C_28  and  C_29
REMARK                            x       y       z     vdW  Elec       q    Type
REMARK                         _______ _______ _______ _____ _____    ______ ____
ROOT
ATOM      1  C   UNL     1      -2.383  -4.709  -5.549  0.00  0.00    +0.134 A 
ATOM      2  C   UNL     1      -1.290  -4.341  -4.731  0.00  0.00    +0.081 A 
ATOM      3  C   UNL     1       0.016  -4.442  -5.268  0.00  0.00    +0.267 A 
ATOM      4  O   UNL     1       0.988  -4.140  -4.597  0.00  0.00    -0.267 OA
ATOM      5  N   UNL     1       0.167  -4.879  -6.537  0.00  0.00    -0.267 N 
ATOM      6  C   UNL     1       1.421  -4.980  -7.063  0.00  0.00    +0.096 A 
ATOM      7  C   UNL     1       1.607  -5.413  -8.330  0.00  0.00    +0.019 A 
ATOM      8  C   UNL     1       0.505  -5.767  -9.121  0.00  0.00    +0.008 A 
ATOM      9  C   UNL     1      -0.753  -5.670  -8.604  0.00  0.00    -0.007 A 
ATOM     10  C   UNL     1      -0.927  -5.216  -7.284  0.00  0.00    +0.145 A 
ATOM     11  N   UNL     1      -2.161  -5.125  -6.788  0.00  0.00    -0.214 NA
ATOM     12  C   UNL     1      -1.948  -6.045  -9.442  0.00  0.00    +0.047 C 
ENDROOT
BRANCH   2  13
ATOM     13  C   UNL     1      -1.495  -3.888  -3.407  0.00  0.00    +0.037 C 
ATOM     14  C   UNL     1      -2.306  -2.816  -3.170  0.00  0.00    +0.077 C 
ATOM     15  C   UNL     1      -2.740  -2.264  -1.931  0.00  0.00    +0.259 C 
ATOM     16  O   UNL     1      -2.388  -2.751  -0.871  0.00  0.00    -0.269 OA
ATOM     17  N   UNL     1      -3.538  -1.211  -1.963  0.00  0.00    -0.251 N 
ATOM     18  C   UNL     1      -3.924  -0.667  -3.139  0.00  0.00    +0.121 C 
ATOM     19  S   UNL     1      -4.937   0.685  -3.416  0.00  0.00    -0.027 S 
ATOM     20  S   UNL     1      -3.109  -1.719  -4.331  0.00  0.00    -0.061 S 
BRANCH  17  21
ATOM     21  C   UNL     1      -4.007  -0.622  -0.707  0.00  0.00    +0.151 C 
BRANCH  21  22
ATOM     22  C   UNL     1      -5.387  -1.139  -0.393  0.00  0.00    -0.011 A 
ATOM     23  C   UNL     1      -6.501  -0.419  -0.783  0.00  0.00    +0.006 A 
ATOM     24  C   UNL     1      -7.766  -0.894  -0.495  0.00  0.00    +0.000 A 
ATOM     25  C   UNL     1      -7.920  -2.089   0.182  0.00  0.00    +0.001 A 
ATOM     26  C   UNL     1      -6.807  -2.810   0.572  0.00  0.00    +0.020 A 
ATOM     27  C   UNL     1      -5.540  -2.335   0.285  0.00  0.00    +0.046 A 
ATOM     28 CL   UNL     1      -4.141  -3.240   0.775  0.00  0.00    -0.083 Cl
ENDBRANCH  21  22
ENDBRANCH  17  21
ENDBRANCH   2  13
BRANCH   1  29
ATOM     29  N   UNL     1      -3.670  -4.630  -5.064  0.00  0.00    -0.323 N 
ATOM     30  H   UNL     1      -3.829  -4.322  -4.158  0.00  0.00    +0.148 HD
BRANCH  29  31
ATOM     31  CA  UNL     1      -4.799  -5.013  -5.916  0.00  0.00    +0.097 C 
BRANCH  31  33
ATOM     32  C   UNL     1      -5.610  -6.703  -4.264  0.00  0.00    +0.006 C 
ATOM     33  C   UNL     1      -5.979  -5.436  -5.040  0.00  0.00    +0.021 C 
ENDBRANCH  31  33
BRANCH  31  34
ATOM     34  C   UNL     1      -5.210  -3.821  -6.784  0.00  0.00    +0.178 C 
BRANCH  34  35
ATOM     35  O   UNL     1      -5.705  -2.772  -5.949  0.00  0.00    -0.393 OA
ATOM     36  H   UNL     1      -5.984  -1.983  -6.433  0.00  0.00    +0.209 HD
ENDBRANCH  34  35
ENDBRANCH  31  34
ENDBRANCH  29  31
ENDBRANCH   1  29
TORSDOF 8
