REMARK  Name = ZINC39770445
REMARK  4 active torsions:
REMARK  status: ('A' for Active; 'I' for Inactive)
REMARK    1  A    between atoms: C_1  and  C_2
REMARK    2  A    between atoms: C_2  and  C_5
REMARK    3  A    between atoms: N_3  and  N_4
REMARK    4  A    between atoms: C_7  and  C_18
REMARK                            x       y       z     vdW  Elec       q    Type
REMARK                         _______ _______ _______ _____ _____    ______ ____
ROOT
ATOM      1  C   UNL     1       0.080  -0.742  -1.172  0.00  0.00    +0.152 C 
ATOM      2  C   UNL     1      -0.198  -2.223  -1.003  0.00  0.00    -0.014 C 
ATOM      3  C   UNL     1       0.718  -3.110  -1.575  0.00  0.00    +0.002 A 
ATOM      4  C   UNL     1       0.535  -4.505  -1.466  0.00  0.00    +0.030 A 
ATOM      5  C   UNL     1       1.442  -5.347  -2.033  0.00  0.00    +0.042 A 
ATOM      6  C   UNL     1       2.552  -4.859  -2.721  0.00  0.00    +0.022 A 
ATOM      7  C   UNL     1       2.781  -3.524  -2.859  0.00  0.00    +0.025 A 
ATOM      8  C   UNL     1       1.885  -2.595  -2.299  0.00  0.00    +0.041 A 
ATOM      9  N   UNL     1       2.112  -1.285  -2.436  0.00  0.00    -0.284 N 
ATOM     10  C   UNL     1       1.322  -0.353  -1.942  0.00  0.00    +0.230 C 
ATOM     11  O   UNL     1       1.592   0.822  -2.106  0.00  0.00    -0.274 OA
ATOM     12 CL   UNL     1       1.212  -7.062  -1.896  0.00  0.00    -0.084 Cl
ATOM     13  H   UNL     1       2.901  -1.004  -2.926  0.00  0.00    +0.155 HD
ENDROOT
BRANCH   2  14
ATOM     14  C   UNL     1      -1.337  -2.687  -0.296  0.00  0.00    -0.020 A 
ATOM     15  C   UNL     1      -1.181  -3.454   0.869  0.00  0.00    +0.008 A 
ATOM     16  C   UNL     1      -2.293  -3.900   1.548  0.00  0.00    +0.001 A 
ATOM     17  C   UNL     1      -3.562  -3.594   1.085  0.00  0.00    +0.000 A 
ATOM     18  C   UNL     1      -3.727  -2.838  -0.064  0.00  0.00    +0.001 A 
ATOM     19  C   UNL     1      -2.628  -2.377  -0.754  0.00  0.00    +0.008 A 
ENDBRANCH   2  14
BRANCH   1  21
ATOM     20  C   UNL     1       0.252   1.367   0.356  0.00  0.00    +0.063 C 
ATOM     21  C   UNL     1       0.177  -0.130   0.202  0.00  0.00    +0.049 C 
ATOM     22  N   UNL     1       0.197  -0.882   1.238  0.00  0.00    -0.198 NA
BRANCH  22  23
ATOM     23  N   UNL     1       0.287  -0.313   2.515  0.00  0.00    -0.283 N 
ATOM     24  H   UNL     1       0.302  -0.883   3.300  0.00  0.00    +0.164 HD
ATOM     25  H   UNL     1       0.335   0.650   2.614  0.00  0.00    +0.164 HD
ENDBRANCH  22  23
ENDBRANCH   1  21
TORSDOF 3
