REMARK  Name = ZINC17722291
REMARK  1 active torsions:
REMARK  status: ('A' for Active; 'I' for Inactive)
REMARK    1  A    between atoms: C_1  and  C_2
REMARK                            x       y       z     vdW  Elec       q    Type
REMARK                         _______ _______ _______ _____ _____    ______ ____
ROOT
ATOM      1  C   UNL     1      -0.018   1.503   0.010  0.00  0.00    +0.047 C 
ATOM      2  C   UNL     1       0.002  -0.004   0.002  0.00  0.00    -0.009 A 
ATOM      3  C   UNL     1       0.006  -0.684  -1.178  0.00  0.00    +0.008 A 
ATOM      4  C   UNL     1       0.025  -2.087  -1.169  0.00  0.00    +0.019 A 
ATOM      5  C   UNL     1       0.039  -2.757   0.004  0.00  0.00    +0.096 A 
ATOM      6  N   UNL     1       0.034  -2.087   1.191  0.00  0.00    -0.269 N 
ATOM      7  C   UNL     1       0.023  -0.720   1.214  0.00  0.00    +0.122 A 
ATOM      8  N   UNL     1       0.029  -0.057   2.367  0.00  0.00    -0.329 N 
ATOM      9  C   UNL     1       0.045  -0.700   3.533  0.00  0.00    +0.109 A 
ATOM     10  C   UNL     1       0.054  -2.090   3.559  0.00  0.00    +0.057 A 
ATOM     11  C   UNL     1       0.043  -2.783   2.347  0.00  0.00    +0.263 A 
ATOM     12  O   UNL     1       0.057  -4.004   2.334  0.00  0.00    -0.267 OA
ATOM     13  C   UNL     1       0.054  -2.862   4.849  0.00  0.00    +0.072 C 
ATOM     14  C   UNL     1       0.526  -1.978   6.007  0.00  0.00    +0.151 C 
ATOM     15  C   UNL     1      -0.262  -0.663   5.966  0.00  0.00    +0.129 C 
ATOM     16  N   UNL     1       0.055   0.022   4.715  0.00  0.00    -0.307 N 
ATOM     17  C   UNL     1       0.403   1.446   4.701  0.00  0.00    +0.112 C 
ATOM     18  C   UNL     1       1.481   1.667   5.776  0.00  0.00    +0.054 C 
ATOM     19  C   UNL     1       0.878   1.273   7.104  0.00  0.00    -0.041 A 
ATOM     20  C   UNL     1       0.064   0.178   7.164  0.00  0.00    -0.022 A 
ATOM     21  C   UNL     1      -0.479  -0.160   8.394  0.00  0.00    +0.006 A 
ATOM     22  C   UNL     1      -0.191   0.592   9.515  0.00  0.00    +0.000 A 
ATOM     23  C   UNL     1       0.645   1.689   9.419  0.00  0.00    +0.000 A 
ATOM     24  C   UNL     1       1.156   2.016   8.234  0.00  0.00    +0.004 A 
ATOM     25  C   UNL     1       0.264  -2.675   7.311  0.00  0.00    +0.256 C 
ATOM     26  N   UNL     1       1.212  -2.962   8.149  0.00  0.00    -0.157 NA
ATOM     27  C   UNL     1       2.497  -2.658   7.917  0.00  0.00    +0.163 C 
ATOM     28  N   UNL     1       2.880  -2.033   6.792  0.00  0.00    -0.265 N 
ATOM     29  C   UNL     1       1.992  -1.685   5.849  0.00  0.00    +0.236 C 
ATOM     30  O   UNL     1       2.380  -1.122   4.847  0.00  0.00    -0.274 OA
ATOM     31  S   UNL     1       3.678  -3.077   9.083  0.00  0.00    -0.016 S 
ATOM     32  O   UNL     1      -0.998  -3.015   7.621  0.00  0.00    -0.272 OA
ATOM     33  H   UNL     1       3.819  -1.829   6.659  0.00  0.00    +0.157 HD
ATOM     34  H   UNL     1       0.022   0.913   2.358  0.00  0.00    +0.168 HD
ENDROOT
TORSDOF 0
