REMARK  Name = ZINC39336776
REMARK  5 active torsions:
REMARK  status: ('A' for Active; 'I' for Inactive)
REMARK    1  A    between atoms: C_1  and  N_2
REMARK    2  A    between atoms: C_3  and  C_8
REMARK    3  A    between atoms: C_10  and  N_30
REMARK    4  A    between atoms: C_13  and  C_25
REMARK    5  A    between atoms: C_15  and  C_19
REMARK                            x       y       z     vdW  Elec       q    Type
REMARK                         _______ _______ _______ _____ _____    ______ ____
ROOT
ATOM      1  C   UNL     1       1.268   1.728  -2.792  0.00  0.00    +0.233 C 
ATOM      2  C   UNL     1       1.479   0.519  -3.735  0.00  0.00    +0.011 C 
ATOM      3  C   UNL     1       1.362   1.166  -5.100  0.00  0.00    +0.014 A 
ATOM      4  C   UNL     1       1.177   0.639  -6.377  0.00  0.00    +0.026 A 
ATOM      5  C   UNL     1       1.101   1.530  -7.456  0.00  0.00    +0.040 A 
ATOM      6  C   UNL     1       1.214   2.891  -7.202  0.00  0.00    +0.075 A 
ATOM      7  N   UNL     1       1.394   3.346  -5.970  0.00  0.00    -0.213 NA
ATOM      8  C   UNL     1       1.475   2.537  -4.918  0.00  0.00    +0.218 A 
ATOM      9  O   UNL     1       1.677   2.843  -3.603  0.00  0.00    -0.466 OA
ENDROOT
BRANCH   1  12
ATOM     10  C   UNL     1      -0.013   1.086   0.008  0.00  0.00    +0.153 C 
ATOM     11  N   UNL     1      -0.721   1.571  -1.179  0.00  0.00    -0.306 N 
ATOM     12  C   UNL     1      -0.183   1.855  -2.403  0.00  0.00    +0.174 A 
ATOM     13  N   UNL     1      -1.156   2.256  -3.171  0.00  0.00    -0.130 NA
ATOM     14  N   UNL     1      -2.264   2.245  -2.521  0.00  0.00    -0.122 NA
ATOM     15  C   UNL     1      -2.057   1.828  -1.294  0.00  0.00    +0.202 A 
ATOM     16  S   UNL     1      -3.273   1.639  -0.032  0.00  0.00    -0.009 SA
ENDBRANCH   1  12
BRANCH   6  17
ATOM     17  C   UNL     1       1.133   3.852  -8.329  0.00  0.00    +0.000 A 
ATOM     18  C   UNL     1       0.939   3.389  -9.630  0.00  0.00    +0.010 A 
ATOM     19  C   UNL     1       0.863   4.287 -10.675  0.00  0.00    +0.001 A 
ATOM     20  C   UNL     1       0.980   5.644 -10.433  0.00  0.00    +0.000 A 
ATOM     21  C   UNL     1       1.173   6.109  -9.145  0.00  0.00    +0.001 A 
ATOM     22  C   UNL     1       1.244   5.220  -8.091  0.00  0.00    +0.010 A 
ENDBRANCH   6  17
BRANCH   4  23
ATOM     23  C   UNL     1       1.063  -0.819  -6.587  0.00  0.00    +0.135 A 
ATOM     24  C   UNL     1       0.092  -1.450  -7.300  0.00  0.00    +0.050 A 
ATOM     25  C   UNL     1       0.372  -2.828  -7.237  0.00  0.00    +0.042 A 
ATOM     26  C   UNL     1       1.490  -2.971  -6.497  0.00  0.00    +0.196 A 
ATOM     27  O   UNL     1       1.907  -1.755  -6.111  0.00  0.00    -0.463 OA
ENDBRANCH   4  23
BRANCH   2  28
ATOM     28  N   UNL     1       2.811  -0.069  -3.544  0.00  0.00    +0.385 N 
ATOM     29  H   UNL     1       2.907  -0.382  -2.589  0.00  0.00    -0.089 HD
ATOM     30  H   UNL     1       2.925  -0.854  -4.168  0.00  0.00    -0.089 HD
ATOM     31  H   UNL     1       3.517   0.624  -3.743  0.00  0.00    -0.089 HD
ENDBRANCH   2  28
TORSDOF 4
