REMARK  Name = ZINC63152646
REMARK  5 active torsions:
REMARK  status: ('A' for Active; 'I' for Inactive)
REMARK    1  A    between atoms: C_5  and  C_6
REMARK    2  A    between atoms: C_6  and  N_7
REMARK    3  A    between atoms: N_7  and  S_8
REMARK    4  A    between atoms: S_8  and  C_11
REMARK    5  A    between atoms: C_14  and  N_18
REMARK                            x       y       z     vdW  Elec       q    Type
REMARK                         _______ _______ _______ _____ _____    ______ ____
ROOT
ATOM      1  S   UNL     1      -2.880  -2.169  -1.681  0.00  0.00    +0.061 S 
ATOM      2  O   UNL     1      -3.095  -2.154  -3.086  0.00  0.00    -0.153 OA
ATOM      3  O   UNL     1      -2.496  -3.346  -0.982  0.00  0.00    -0.153 OA
ENDROOT
BRANCH   1   4
ATOM      4  C   UNL     1      -4.374  -1.606  -0.937  0.00  0.00    +0.133 A 
ATOM      5  C   UNL     1      -4.668  -1.954   0.370  0.00  0.00    +0.047 A 
ATOM      6  C   UNL     1      -5.840  -1.513   0.956  0.00  0.00    +0.040 A 
ATOM      7  C   UNL     1      -6.721  -0.720   0.233  0.00  0.00    +0.027 A 
ATOM      8  C   UNL     1      -6.423  -0.372  -1.078  0.00  0.00    +0.040 A 
ATOM      9  C   UNL     1      -5.247  -0.811  -1.657  0.00  0.00    +0.047 A 
ATOM     10 BR   UNL     1      -4.836  -0.331  -3.440  0.00  0.00    -0.048 Br
ATOM     11 BR   UNL     1      -3.468  -3.034   1.353  0.00  0.00    -0.048 Br
BRANCH   7  12
ATOM     12  N   UNL     1      -7.906  -0.274   0.823  0.00  0.00    -0.358 N 
ATOM     13  H   UNL     1      -8.114  -0.518   1.738  0.00  0.00    +0.142 HD
ATOM     14  H   UNL     1      -8.521   0.280   0.317  0.00  0.00    +0.142 HD
ENDBRANCH   7  12
ENDBRANCH   1   4
BRANCH   1  15
ATOM     15  N   UNL     1      -1.717  -1.032  -1.368  0.00  0.00    -0.186 NA
ATOM     16  H   UNL     1      -1.321  -0.530  -2.097  0.00  0.00    +0.148 HD
BRANCH  15  17
ATOM     17  C   UNL     1      -1.286  -0.786   0.011  0.00  0.00    +0.141 C 
BRANCH  17  22
ATOM     18  C   UNL     1      -0.017   1.378   0.010  0.00  0.00    +0.012 A 
ATOM     19  C   UNL     1       1.160   2.051   0.002  0.00  0.00    +0.045 A 
ATOM     20  S   UNL     1       2.348   0.719  -0.017  0.00  0.00    -0.105 S 
ATOM     21  C   UNL     1       1.196  -0.645  -0.013  0.00  0.00    +0.050 A 
ATOM     22  C   UNL     1       0.002  -0.004   0.002  0.00  0.00    -0.025 A 
ENDBRANCH  17  22
ENDBRANCH  15  17
ENDBRANCH   1  15
TORSDOF 5
