REMARK  Name = ZINC59233774
REMARK  5 active torsions:
REMARK  status: ('A' for Active; 'I' for Inactive)
REMARK    1  A    between atoms: C_4  and  C_7
REMARK    2  A    between atoms: C_11  and  N_16
REMARK    3  A    between atoms: N_16  and  S_17
REMARK    4  A    between atoms: S_17  and  C_20
REMARK    5  A    between atoms: C_25  and  N_26
REMARK                            x       y       z     vdW  Elec       q    Type
REMARK                         _______ _______ _______ _____ _____    ______ ____
ROOT
ATOM      1  C   UNL     1       3.812  -0.871   0.802  0.00  0.00    +0.228 A 
ATOM      2  N   UNL     1       3.941  -2.166   0.670  0.00  0.00    -0.209 NA
ATOM      3  C   UNL     1       5.255  -2.458   0.491  0.00  0.00    +0.112 A 
ATOM      4  C   UNL     1       5.960  -3.649   0.302  0.00  0.00    +0.056 A 
ATOM      5  C   UNL     1       7.334  -3.614   0.147  0.00  0.00    +0.050 A 
ATOM      6  C   UNL     1       8.014  -2.398   0.179  0.00  0.00    +0.028 A 
ATOM      7  C   UNL     1       7.325  -1.219   0.365  0.00  0.00    +0.050 A 
ATOM      8  C   UNL     1       5.948  -1.237   0.522  0.00  0.00    +0.156 A 
ATOM      9  O   UNL     1       5.016  -0.275   0.712  0.00  0.00    -0.435 OA
ENDROOT
BRANCH   1  13
ATOM     10  C   UNL     1       0.131   1.160   1.409  0.00  0.00    +0.000 A 
ATOM     11  C   UNL     1       1.310   1.879   1.333  0.00  0.00    +0.001 A 
ATOM     12  C   UNL     1       2.509   1.226   1.136  0.00  0.00    +0.013 A 
ATOM     13  C   UNL     1       2.531  -0.164   1.014  0.00  0.00    +0.037 A 
ATOM     14  C   UNL     1       1.338  -0.884   1.091  0.00  0.00    +0.013 A 
ATOM     15  C   UNL     1       0.146  -0.219   1.288  0.00  0.00    +0.001 A 
ENDBRANCH   1  13
BRANCH   5  16
ATOM     16  N   UNL     1       8.044  -4.805  -0.042  0.00  0.00    -0.216 N 
ATOM     17  H   UNL     1       7.864  -5.572   0.523  0.00  0.00    +0.174 HD
BRANCH  16  18
ATOM     18  S   UNL     1       9.191  -4.904  -1.233  0.00  0.00    +0.074 S 
ATOM     19  O   UNL     1       9.710  -6.226  -1.188  0.00  0.00    -0.150 OA
ATOM     20  O   UNL     1       8.608  -4.354  -2.406  0.00  0.00    -0.150 OA
BRANCH  18  21
ATOM     21  C   UNL     1      10.511  -3.830  -0.775  0.00  0.00    +0.129 A 
ATOM     22  C   UNL     1      10.812  -2.733  -1.558  0.00  0.00    +0.031 A 
ATOM     23  C   UNL     1      11.848  -1.889  -1.201  0.00  0.00    +0.002 A 
ATOM     24  C   UNL     1      12.585  -2.141  -0.058  0.00  0.00    +0.002 A 
ATOM     25  C   UNL     1      12.289  -3.236   0.730  0.00  0.00    +0.025 A 
ATOM     26  C   UNL     1      11.245  -4.082   0.376  0.00  0.00    +0.052 A 
BRANCH  26  27
ATOM     27  N   UNL     1      10.939  -5.187   1.173  0.00  0.00    -0.356 N 
ATOM     28  H   UNL     1      10.165  -5.734   0.968  0.00  0.00    +0.142 HD
ATOM     29  H   UNL     1      11.502  -5.408   1.932  0.00  0.00    +0.142 HD
ENDBRANCH  26  27
ENDBRANCH  18  21
ENDBRANCH  16  18
ENDBRANCH   5  16
TORSDOF 5
