REMARK  Name = ZINC40847038
REMARK  12 active torsions:
REMARK  status: ('A' for Active; 'I' for Inactive)
REMARK    1  A    between atoms: C_1  and  C_2
REMARK    2  A    between atoms: C_2  and  O_3
REMARK    3  A    between atoms: O_3  and  C_4
REMARK    4  A    between atoms: C_4  and  C_6
REMARK    5  A    between atoms: C_7  and  C_29
REMARK    6  A    between atoms: C_8  and  C_26
REMARK    7  A    between atoms: C_10  and  N_11
REMARK    8  A    between atoms: N_14  and  N_15
REMARK    9  A    between atoms: C_16  and  C_17
REMARK   10  A    between atoms: C_20  and  O_24
REMARK   11  A    between atoms: O_24  and  C_25
REMARK   12  A    between atoms: C_26  and  C_28
REMARK                            x       y       z     vdW  Elec       q    Type
REMARK                         _______ _______ _______ _____ _____    ______ ____
ROOT
ATOM      1  N   UNL     1      -3.161  -2.477   2.545  0.00  0.00    -0.262 N 
ATOM      2  C   UNL     1      -4.009  -2.266   3.571  0.00  0.00    +0.324 C 
ATOM      3  O   UNL     1      -5.210  -2.296   3.382  0.00  0.00    -0.251 OA
ATOM      4  N   UNL     1      -3.526  -2.022   4.805  0.00  0.00    -0.191 N 
ATOM      5  H   UNL     1      -2.203  -2.454   2.695  0.00  0.00    +0.157 HD
ATOM      6  H   UNL     1      -4.137  -1.870   5.543  0.00  0.00    +0.179 HD
ENDROOT
BRANCH   1  11
ATOM      7  C   UNL     1      -2.934  -2.967   0.108  0.00  0.00    +0.091 A 
ATOM      8  C   UNL     1      -3.652  -3.200  -1.053  0.00  0.00    -0.017 A 
ATOM      9  C   UNL     1      -5.030  -3.167  -0.932  0.00  0.00    +0.060 A 
ATOM     10  S   UNL     1      -5.261  -2.811   0.798  0.00  0.00    -0.069 S 
ATOM     11  C   UNL     1      -3.655  -2.727   1.282  0.00  0.00    +0.088 A 
ATOM     12  C   UNL     1      -2.973  -3.474  -2.370  0.00  0.00    +0.046 C 
BRANCH   9  13
ATOM     13  C   UNL     1      -6.008  -3.365  -1.928  0.00  0.00    +0.167 C 
ATOM     14  O   UNL     1      -5.671  -3.601  -3.071  0.00  0.00    -0.292 OA
ATOM     15  C   UNL     1      -7.471  -3.284  -1.576  0.00  0.00    +0.092 C 
ENDBRANCH   9  13
BRANCH   7  16
ATOM     16  C   UNL     1      -1.466  -2.976   0.108  0.00  0.00    +0.342 C 
ATOM     17  O   UNL     1      -0.865  -4.013   0.315  0.00  0.00    -0.245 OA
BRANCH  16  18
ATOM     18  O   UNL     1      -0.784  -1.836  -0.122  0.00  0.00    -0.461 OA
BRANCH  18  20
ATOM     19  C   UNL     1       1.236  -0.536  -0.386  0.00  0.00    +0.048 C 
ATOM     20  C   UNL     1       0.642  -1.919  -0.107  0.00  0.00    +0.229 C 
ENDBRANCH  18  20
ENDBRANCH  16  18
ENDBRANCH   7  16
ENDBRANCH   1  11
BRANCH   4  21
ATOM     21  N   UNL     1      -2.143  -1.988   5.022  0.00  0.00    -0.186 NA
ATOM     22  C   UNL     1      -1.678  -1.871   6.228  0.00  0.00    +0.138 C 
BRANCH  22  23
ATOM     23  C   UNL     1      -2.517  -2.243   7.381  0.00  0.00    -0.004 A 
ATOM     24  C   UNL     1      -3.689  -2.978   7.186  0.00  0.00    +0.013 A 
ATOM     25  C   UNL     1      -4.471  -3.324   8.267  0.00  0.00    +0.047 A 
ATOM     26  C   UNL     1      -4.097  -2.942   9.549  0.00  0.00    +0.134 A 
ATOM     27  C   UNL     1      -2.933  -2.210   9.748  0.00  0.00    +0.060 A 
ATOM     28  C   UNL     1      -2.141  -1.865   8.673  0.00  0.00    +0.028 A 
ATOM     29 BR   UNL     1      -2.430  -1.692  11.495  0.00  0.00    -0.046 Br
BRANCH  26  30
ATOM     30  O   UNL     1      -4.872  -3.284  10.611  0.00  0.00    -0.494 OA
ATOM     31  C   UNL     1      -6.055  -4.037  10.336  0.00  0.00    +0.277 C 
ENDBRANCH  26  30
ENDBRANCH  22  23
ENDBRANCH   4  21
TORSDOF 8
