REMARK  Name = ZINC61459583
REMARK  6 active torsions:
REMARK  status: ('A' for Active; 'I' for Inactive)
REMARK    1  A    between atoms: C_1  and  C_2
REMARK    2  A    between atoms: C_5  and  C_8
REMARK    3  A    between atoms: C_9  and  C_10
REMARK    4  A    between atoms: C_9  and  C_12
REMARK    5  A    between atoms: N_14  and  C_15
REMARK    6  A    between atoms: C_19  and  C_21
REMARK                            x       y       z     vdW  Elec       q    Type
REMARK                         _______ _______ _______ _____ _____    ______ ____
ROOT
ATOM      1  C   UNL     1       0.192  -4.203   2.432  0.00  0.00    +0.259 C 
ATOM      2  O   UNL     1       0.016  -3.000   2.448  0.00  0.00    -0.269 OA
ATOM      3  N   UNL     1       0.391  -4.871   3.586  0.00  0.00    -0.281 N 
ATOM      4  H   UNL     1       0.463  -5.838   3.580  0.00  0.00    +0.155 HD
ENDROOT
BRANCH   3   5
ATOM      5  C   UNL     1       0.492  -4.169   4.791  0.00  0.00    +0.034 A 
ATOM      6  C   UNL     1       1.371  -4.604   5.777  0.00  0.00    +0.023 A 
ATOM      7  C   UNL     1       1.474  -3.913   6.969  0.00  0.00    +0.002 A 
ATOM      8  C   UNL     1       0.706  -2.786   7.188  0.00  0.00    +0.010 A 
ATOM      9  C   UNL     1      -0.177  -2.343   6.205  0.00  0.00    +0.004 A 
ATOM     10  C   UNL     1      -0.279  -3.035   5.001  0.00  0.00    +0.033 A 
BRANCH   9  11
ATOM     11  C   UNL     1      -1.004  -1.133   6.438  0.00  0.00    +0.091 A 
ATOM     12  C   UNL     1      -0.890  -0.427   7.658  0.00  0.00    +0.035 A 
ATOM     13  C   UNL     1      -1.665   0.681   7.838  0.00  0.00    +0.073 A 
ATOM     14  C   UNL     1      -2.536   1.055   6.791  0.00  0.00    +0.265 A 
ATOM     15  O   UNL     1      -3.249   2.039   6.906  0.00  0.00    -0.266 OA
ATOM     16  N   UNL     1      -2.574   0.318   5.665  0.00  0.00    -0.243 N 
ATOM     17  H   UNL     1      -3.175   0.580   4.949  0.00  0.00    +0.192 HD
ATOM     18  N   UNL     1      -1.834  -0.719   5.510  0.00  0.00    -0.171 NA
ENDBRANCH   9  11
ENDBRANCH   3   5
BRANCH   1  20
ATOM     19  C   UNL     1       0.125  -4.241  -0.025  0.00  0.00    +0.032 C 
ATOM     20  C   UNL     1       0.187  -4.931   1.152  0.00  0.00    +0.114 C 
BRANCH  19  25
ATOM     21  C   UNL     1       0.763   1.468  -0.046  0.00  0.00    +0.044 C 
ATOM     22  C   UNL     1       0.596  -0.029  -0.041  0.00  0.00    -0.050 A 
ATOM     23  C   UNL     1      -0.397  -0.614  -0.809  0.00  0.00    +0.004 A 
ATOM     24  C   UNL     1      -0.557  -1.982  -0.810  0.00  0.00    +0.008 A 
ATOM     25  C   UNL     1       0.288  -2.783  -0.031  0.00  0.00    -0.024 A 
ATOM     26  C   UNL     1       1.290  -2.183   0.742  0.00  0.00    +0.008 A 
ATOM     27  C   UNL     1       1.440  -0.813   0.727  0.00  0.00    +0.004 A 
ENDBRANCH  19  25
BRANCH  20  28
ATOM     28  C   UNL     1       0.248  -6.362   1.141  0.00  0.00    +0.104 C 
ATOM     29  N   UNL     1       0.296  -7.497   1.133  0.00  0.00    -0.191 NA
ENDBRANCH  20  28
ENDBRANCH   1  20
TORSDOF 5
