REMARK  Name = ZINC22057271
REMARK  8 active torsions:
REMARK  status: ('A' for Active; 'I' for Inactive)
REMARK    1  A    between atoms: C_1  and  C_2
REMARK    2  A    between atoms: C_2  and  O_3
REMARK    3  A    between atoms: O_3  and  C_4
REMARK    4  A    between atoms: C_4  and  C_6
REMARK    5  A    between atoms: C_7  and  C_20
REMARK    6  A    between atoms: C_12  and  C_14
REMARK    7  A    between atoms: C_20  and  N_21
REMARK    8  A    between atoms: C_25  and  C_28
REMARK                            x       y       z     vdW  Elec       q    Type
REMARK                         _______ _______ _______ _____ _____    ______ ____
ROOT
ATOM      1  C   UNL     1       0.825  -1.851  -1.045  0.00  0.00    +0.076 C 
ATOM      2  C   UNL     1       1.140  -2.549  -2.157  0.00  0.00    +0.008 C 
ATOM      3  N   UNL     1       0.998  -3.906  -2.201  0.00  0.00    -0.274 N 
ATOM      4  C   UNL     1       0.537  -4.638  -1.179  0.00  0.00    +0.304 C 
ATOM      5  O   UNL     1       0.440  -5.842  -1.315  0.00  0.00    -0.252 OA
ATOM      6  N   UNL     1       0.175  -4.083  -0.005  0.00  0.00    -0.288 N 
ATOM      7  C   UNL     1       0.297  -2.624   0.147  0.00  0.00    +0.143 C 
ATOM      8  H   UNL     1       1.270  -4.458  -3.113  0.00  0.00    +0.156 HD
ATOM      9  H   UNL     1      -0.202  -4.694   0.828  0.00  0.00    +0.151 HD
ENDROOT
BRANCH   7  10
ATOM     10  C   UNL     1      -1.066  -2.077   0.488  0.00  0.00    -0.023 A 
ATOM     11  C   UNL     1      -2.171  -2.470  -0.244  0.00  0.00    +0.006 A 
ATOM     12  C   UNL     1      -3.421  -1.972   0.072  0.00  0.00    +0.000 A 
ATOM     13  C   UNL     1      -3.565  -1.075   1.114  0.00  0.00    +0.000 A 
ATOM     14  C   UNL     1      -2.459  -0.678   1.842  0.00  0.00    +0.000 A 
ATOM     15  C   UNL     1      -1.210  -1.179   1.529  0.00  0.00    +0.006 A 
ENDBRANCH   7  10
BRANCH   1  16
ATOM     16  C   UNL     1       0.977  -0.445  -0.995  0.00  0.00    +0.339 C 
ATOM     17  O   UNL     1       1.508   0.142  -1.919  0.00  0.00    -0.245 OA
BRANCH  16  18
ATOM     18  O   UNL     1       0.534   0.244   0.076  0.00  0.00    -0.462 OA
BRANCH  18  20
ATOM     19  C   UNL     1       0.159   2.265   1.348  0.00  0.00    +0.048 C 
ATOM     20  C   UNL     1       0.720   1.661   0.059  0.00  0.00    +0.229 C 
ENDBRANCH  18  20
ENDBRANCH  16  18
ENDBRANCH   1  16
BRANCH   2  21
ATOM     21  C   UNL     1       1.663  -1.818  -3.367  0.00  0.00    -0.026 C 
BRANCH  21  22
ATOM     22  N   UNL     1       3.114  -1.632  -3.237  0.00  0.00    +0.383 N 
ATOM     23  C   UNL     1       3.831  -2.888  -3.495  0.00  0.00    -0.078 C 
ATOM     24  C   UNL     1       5.322  -2.693  -3.210  0.00  0.00    -0.018 C 
ATOM     25  C   UNL     1       5.867  -1.579  -4.108  0.00  0.00    -0.001 C 
ATOM     26  C   UNL     1       5.072  -0.295  -3.854  0.00  0.00    -0.031 C 
ATOM     27  C   UNL     1       3.588  -0.559  -4.120  0.00  0.00    -0.075 C 
ATOM     28  C   UNL     1       5.571   0.808  -4.790  0.00  0.00    +0.005 C 
ATOM     29  H   UNL     1       3.327  -1.332  -2.201  0.00  0.00    -0.081 HD
ENDBRANCH  21  22
ENDBRANCH   2  21
TORSDOF 6
