REMARK  Name = ZINC08598668
REMARK  8 active torsions:
REMARK  status: ('A' for Active; 'I' for Inactive)
REMARK    1  A    between atoms: C_1  and  C_2
REMARK    2  A    between atoms: C_4  and  C_24
REMARK    3  A    between atoms: C_9  and  C_23
REMARK    4  A    between atoms: C_11  and  N_13
REMARK    5  A    between atoms: N_13  and  C_14
REMARK    6  A    between atoms: C_17  and  C_20
REMARK    7  A    between atoms: C_20  and  C_21
REMARK    8  A    between atoms: C_20  and  C_22
REMARK                            x       y       z     vdW  Elec       q    Type
REMARK                         _______ _______ _______ _____ _____    ______ ____
ROOT
ATOM      1  C   UNL     1       1.195   1.403   0.029  0.00  0.00    +0.067 C 
ATOM      2  C   UNL     1       0.925  -0.079   0.016  0.00  0.00    +0.061 A 
ATOM      3  C   UNL     1       0.810  -0.881  -1.125  0.00  0.00    +0.048 A 
ATOM      4  C   UNL     1       0.567  -2.149  -0.723  0.00  0.00    +0.045 A 
ATOM      5  N   UNL     1       0.529  -2.148   0.636  0.00  0.00    -0.202 N 
ATOM      6  N   UNL     1       0.763  -0.837   1.070  0.00  0.00    -0.169 NA
ATOM      7  C   UNL     1       0.304  -3.256   1.453  0.00  0.00    +0.253 A 
ATOM      8  N   UNL     1       0.108  -4.440   0.894  0.00  0.00    -0.216 NA
ATOM      9  C   UNL     1      -0.109  -5.516   1.635  0.00  0.00    +0.045 A 
ATOM     10  C   UNL     1      -0.131  -5.395   3.011  0.00  0.00    +0.067 A 
ATOM     11  C   UNL     1       0.079  -4.133   3.572  0.00  0.00    +0.128 A 
ATOM     12  N   UNL     1       0.296  -3.098   2.766  0.00  0.00    -0.196 NA
ATOM     13  C   UNL     1      -0.331  -6.857   0.985  0.00  0.00    +0.066 C 
ATOM     14  C   UNL     1       0.372  -3.345  -1.618  0.00  0.00    +0.066 C 
ENDROOT
BRANCH  11  15
ATOM     15  N   UNL     1       0.066  -3.963   4.948  0.00  0.00    -0.299 N 
ATOM     16  H   UNL     1      -0.002  -4.735   5.531  0.00  0.00    +0.154 HD
BRANCH  15  17
ATOM     17  C   UNL     1       0.152  -2.679   5.494  0.00  0.00    +0.032 A 
ATOM     18  C   UNL     1       0.851  -2.471   6.676  0.00  0.00    +0.023 A 
ATOM     19  C   UNL     1       0.934  -1.201   7.213  0.00  0.00    +0.006 A 
ATOM     20  C   UNL     1       0.321  -0.138   6.575  0.00  0.00    -0.045 A 
ATOM     21  C   UNL     1      -0.376  -0.342   5.399  0.00  0.00    +0.006 A 
ATOM     22  C   UNL     1      -0.457  -1.608   4.853  0.00  0.00    +0.023 A 
BRANCH  20  23
ATOM     23  C   UNL     1       0.413   1.246   7.165  0.00  0.00    +0.013 C 
ATOM     24  C   UNL     1       1.095   2.182   6.164  0.00  0.00    +0.012 C 
ATOM     25  C   UNL     1      -0.993   1.764   7.472  0.00  0.00    +0.012 C 
ENDBRANCH  20  23
ENDBRANCH  15  17
ENDBRANCH  11  15
TORSDOF 3
