REMARK  Name = ZINC55048242
REMARK  6 active torsions:
REMARK  status: ('A' for Active; 'I' for Inactive)
REMARK    1  A    between atoms: C_1  and  C_2
REMARK    2  A    between atoms: N_4  and  C_5
REMARK    3  A    between atoms: C_8  and  C_13
REMARK    4  A    between atoms: C_10  and  S_11
REMARK    5  A    between atoms: S_11  and  C_12
REMARK    6  A    between atoms: N_19  and  C_20
REMARK                            x       y       z     vdW  Elec       q    Type
REMARK                         _______ _______ _______ _____ _____    ______ ____
ROOT
ATOM      1  C   UNL     1      -0.883  -6.326  -0.378  0.00  0.00    +0.077 C 
ATOM      2  N   UNL     1      -1.984  -6.958  -0.469  0.00  0.00    -0.184 NA
ATOM      3  N   UNL     1      -2.187  -8.332  -0.558  0.00  0.00    -0.215 N 
ATOM      4  C   UNL     1      -1.097  -9.176  -0.723  0.00  0.00    +0.174 C 
ATOM      5  S   UNL     1       0.376  -8.671   0.132  0.00  0.00    -0.083 S 
ATOM      6  C   UNL     1       0.495  -6.925  -0.381  0.00  0.00    +0.134 C 
ATOM      7  N   UNL     1      -1.151 -10.266  -1.456  0.00  0.00    -0.225 NA
ATOM      8  H   UNL     1      -3.084  -8.697  -0.505  0.00  0.00    +0.176 HD
ENDROOT
BRANCH   1  12
ATOM      9  C   UNL     1      -1.120  -2.095  -0.052  0.00  0.00    +0.047 A 
ATOM     10  C   UNL     1       0.118  -2.723  -0.061  0.00  0.00    +0.025 A 
ATOM     11  C   UNL     1       0.198  -4.095  -0.167  0.00  0.00    +0.011 A 
ATOM     12  C   UNL     1      -0.969  -4.859  -0.265  0.00  0.00    -0.000 A 
ATOM     13  C   UNL     1      -2.216  -4.229  -0.255  0.00  0.00    +0.026 A 
ATOM     14  C   UNL     1      -2.291  -2.851  -0.144  0.00  0.00    +0.029 A 
BRANCH   9  18
ATOM     15  C   UNL     1      -0.212   1.492   0.638  0.00  0.00    +0.109 C 
ATOM     16  C   UNL     1      -0.191  -0.015   0.635  0.00  0.00    +0.214 C 
ATOM     17  O   UNL     1       0.730  -0.609   1.154  0.00  0.00    -0.276 OA
ATOM     18  N   UNL     1      -1.196  -0.701   0.056  0.00  0.00    -0.285 N 
ATOM     19  H   UNL     1      -1.971  -0.230  -0.286  0.00  0.00    +0.155 HD
ENDBRANCH   9  18
BRANCH  14  20
ATOM     20  S   UNL     1      -3.861  -2.052  -0.125  0.00  0.00    -0.127 S 
ATOM     21  C   UNL     1      -5.049  -3.416  -0.265  0.00  0.00    +0.090 C 
ENDBRANCH  14  20
ENDBRANCH   1  12
BRANCH   7  22
ATOM     22  C   UNL     1      -2.279 -10.551  -2.177  0.00  0.00    +0.067 A 
ATOM     23  C   UNL     1      -2.900  -9.553  -2.932  0.00  0.00    +0.028 A 
ATOM     24  C   UNL     1      -4.036  -9.847  -3.656  0.00  0.00    +0.002 A 
ATOM     25  C   UNL     1      -4.561 -11.127  -3.636  0.00  0.00    +0.000 A 
ATOM     26  C   UNL     1      -3.952 -12.120  -2.890  0.00  0.00    +0.002 A 
ATOM     27  C   UNL     1      -2.811 -11.842  -2.166  0.00  0.00    +0.028 A 
ENDBRANCH   7  22
TORSDOF 4
