REMARK  Name = ZINC13955598
REMARK  7 active torsions:
REMARK  status: ('A' for Active; 'I' for Inactive)
REMARK    1  A    between atoms: C_1  and  C_2
REMARK    2  A    between atoms: C_3  and  C_12
REMARK    3  A    between atoms: N_22  and  C_23
REMARK    4  A    between atoms: C_23  and  C_24
REMARK    5  A    between atoms: C_24  and  C_25
REMARK    6  A    between atoms: N_27  and  N_28
REMARK    7  A    between atoms: C_29  and  C_31
REMARK                            x       y       z     vdW  Elec       q    Type
REMARK                         _______ _______ _______ _____ _____    ______ ____
ROOT
ATOM      1  C   UNL     1       0.002  -0.004   0.002  0.00  0.00    +0.140 C 
ATOM      2  C   UNL     1      -0.018   1.504   0.010  0.00  0.00    -0.010 A 
ATOM      3  C   UNL     1      -1.033   2.433   0.030  0.00  0.00    +0.006 A 
ATOM      4  C   UNL     1      -0.733   3.785   0.031  0.00  0.00    +0.000 A 
ATOM      5  C   UNL     1       0.585   4.205   0.020  0.00  0.00    +0.001 A 
ATOM      6  C   UNL     1       1.610   3.282   0.005  0.00  0.00    +0.013 A 
ATOM      7  C   UNL     1       1.316   1.917  -0.000  0.00  0.00    +0.042 A 
ATOM      8  C   UNL     1       2.172   0.716  -0.015  0.00  0.00    +0.248 C 
ATOM      9  O   UNL     1       3.388   0.729  -0.027  0.00  0.00    -0.270 OA
ATOM     10  N   UNL     1       1.416  -0.396  -0.014  0.00  0.00    -0.286 N 
ENDROOT
BRANCH   1  13
ATOM     11  C   UNL     1       1.172   0.036   2.877  0.00  0.00    +0.063 C 
ATOM     12  C   UNL     1      -0.172  -0.525   2.488  0.00  0.00    +0.019 A 
ATOM     13  C   UNL     1      -0.669  -0.538   1.241  0.00  0.00    +0.005 A 
ATOM     14  C   UNL     1      -1.992  -1.164   1.315  0.00  0.00    +0.005 A 
ATOM     15  C   UNL     1      -2.977  -1.465   0.372  0.00  0.00    +0.010 A 
ATOM     16  C   UNL     1      -4.132  -2.077   0.769  0.00  0.00    +0.001 A 
ATOM     17  C   UNL     1      -4.332  -2.406   2.103  0.00  0.00    +0.002 A 
ATOM     18  C   UNL     1      -3.371  -2.124   3.049  0.00  0.00    +0.026 A 
ATOM     19  C   UNL     1      -2.187  -1.501   2.666  0.00  0.00    +0.047 A 
ATOM     20  N   UNL     1      -1.065  -1.097   3.353  0.00  0.00    -0.358 N 
ATOM     21  H   UNL     1      -0.927  -1.200   4.307  0.00  0.00    +0.166 HD
ENDBRANCH   1  13
BRANCH  10  22
ATOM     22  C   UNL     1       1.921  -1.771  -0.026  0.00  0.00    +0.118 C 
BRANCH  22  23
ATOM     23  C   UNL     1       2.083  -2.242  -1.472  0.00  0.00    +0.116 C 
BRANCH  23  24
ATOM     24  C   UNL     1       2.602  -3.657  -1.485  0.00  0.00    +0.231 C 
ATOM     25  O   UNL     1       2.821  -4.231  -0.440  0.00  0.00    -0.274 OA
ATOM     26  N   UNL     1       2.823  -4.283  -2.658  0.00  0.00    -0.234 N 
ATOM     27  H   UNL     1       2.648  -3.823  -3.494  0.00  0.00    +0.173 HD
BRANCH  26  28
ATOM     28  N   UNL     1       3.305  -5.598  -2.669  0.00  0.00    -0.230 N 
ATOM     29  C   UNL     1       3.526  -6.224  -3.842  0.00  0.00    +0.260 C 
ATOM     30  O   UNL     1       3.307  -5.648  -4.890  0.00  0.00    -0.269 OA
ATOM     31  H   UNL     1       3.480  -6.058  -1.833  0.00  0.00    +0.173 HD
BRANCH  29  32
ATOM     32  C   UNL     1       4.035  -7.612  -3.854  0.00  0.00    +0.038 A 
ATOM     33  C   UNL     1       4.294  -8.275  -2.653  0.00  0.00    +0.013 A 
ATOM     34  C   UNL     1       4.764  -9.572  -2.672  0.00  0.00    +0.001 A 
ATOM     35  C   UNL     1       4.990 -10.212  -3.877  0.00  0.00    +0.000 A 
ATOM     36  C   UNL     1       4.741  -9.559  -5.072  0.00  0.00    +0.001 A 
ATOM     37  C   UNL     1       4.265  -8.264  -5.067  0.00  0.00    +0.013 A 
ENDBRANCH  29  32
ENDBRANCH  26  28
ENDBRANCH  23  24
ENDBRANCH  22  23
ENDBRANCH  10  22
TORSDOF 6
