REMARK  Name = ZINC09597440
REMARK  12 active torsions:
REMARK  status: ('A' for Active; 'I' for Inactive)
REMARK    1  A    between atoms: C_1  and  C_2
REMARK    2  A    between atoms: C_5  and  N_9
REMARK    3  A    between atoms: C_6  and  C_8
REMARK    4  A    between atoms: C_10  and  C_12
REMARK    5  A    between atoms: C_13  and  C_39
REMARK    6  A    between atoms: C_17  and  S_31
REMARK    7  A    between atoms: C_20  and  C_22
REMARK    8  A    between atoms: C_25  and  O_30
REMARK    9  A    between atoms: C_26  and  O_28
REMARK   10  A    between atoms: O_28  and  C_29
REMARK   11  A    between atoms: S_31  and  C_32
REMARK   12  A    between atoms: C_32  and  C_33
REMARK                            x       y       z     vdW  Elec       q    Type
REMARK                         _______ _______ _______ _____ _____    ______ ____
ROOT
ATOM      1  C   UNL     1      -2.449   3.503   7.126  0.00  0.00    +0.060 C 
ATOM      2  C   UNL     1      -1.635   3.704   8.173  0.00  0.00    +0.018 C 
ATOM      3  N   UNL     1      -2.099   4.155   9.384  0.00  0.00    -0.287 N 
ATOM      4  C   UNL     1      -3.399   4.641   9.431  0.00  0.00    +0.219 A 
ATOM      5  N   UNL     1      -4.010   5.317  10.366  0.00  0.00    -0.187 NA
ATOM      6  C   UNL     1      -5.265   5.585   9.977  0.00  0.00    +0.211 A 
ATOM      7  N   UNL     1      -5.462   5.073   8.781  0.00  0.00    -0.141 NA
ATOM      8  N   UNL     1      -4.269   4.455   8.409  0.00  0.00    -0.220 N 
ATOM      9  C   UNL     1      -3.936   3.728   7.186  0.00  0.00    +0.177 C 
ATOM     10  C   UNL     1      -0.162   3.432   8.013  0.00  0.00    +0.061 C 
ATOM     11  H   UNL     1      -1.541   4.133  10.177  0.00  0.00    +0.155 HD
ENDROOT
BRANCH   9  12
ATOM     12  C   UNL     1      -4.646   2.399   7.182  0.00  0.00    -0.015 A 
ATOM     13  C   UNL     1      -4.332   1.447   8.134  0.00  0.00    +0.010 A 
ATOM     14  C   UNL     1      -4.981   0.226   8.136  0.00  0.00    +0.049 A 
ATOM     15  C   UNL     1      -5.948  -0.046   7.181  0.00  0.00    +0.158 A 
ATOM     16  C   UNL     1      -6.263   0.912   6.222  0.00  0.00    +0.162 A 
ATOM     17  C   UNL     1      -5.613   2.136   6.230  0.00  0.00    +0.055 A 
BRANCH  16  18
ATOM     18  O   UNL     1      -7.211   0.650   5.283  0.00  0.00    -0.491 OA
ATOM     19  C   UNL     1      -7.408   1.636   4.268  0.00  0.00    +0.277 C 
ENDBRANCH  16  18
BRANCH  15  20
ATOM     20  O   UNL     1      -6.587  -1.246   7.181  0.00  0.00    -0.503 OA
ATOM     21  H   UNL     1      -7.393  -1.262   7.715  0.00  0.00    +0.292 HD
ENDBRANCH  15  20
ENDBRANCH   9  12
BRANCH   1  23
ATOM     22  N   UNL     1      -1.659   1.739   5.717  0.00  0.00    -0.281 N 
ATOM     23  C   UNL     1      -1.884   3.053   5.910  0.00  0.00    +0.248 C 
ATOM     24  O   UNL     1      -1.601   3.854   5.037  0.00  0.00    -0.270 OA
ATOM     25  H   UNL     1      -1.937   1.095   6.387  0.00  0.00    +0.155 HD
BRANCH  22  30
ATOM     26  C   UNL     1       0.918  -0.035   0.985  0.00  0.00    +0.044 C 
ATOM     27  C   UNL     1       0.233   0.437   2.242  0.00  0.00    -0.050 A 
ATOM     28  C   UNL     1      -0.614   1.529   2.199  0.00  0.00    +0.005 A 
ATOM     29  C   UNL     1      -1.242   1.963   3.349  0.00  0.00    +0.024 A 
ATOM     30  C   UNL     1      -1.023   1.302   4.550  0.00  0.00    +0.037 A 
ATOM     31  C   UNL     1      -0.172   0.205   4.590  0.00  0.00    -0.029 A 
ATOM     32  C   UNL     1       0.450  -0.228   3.435  0.00  0.00    +0.008 A 
ATOM     33  C   UNL     1       0.069  -0.516   5.892  0.00  0.00    +0.045 C 
ENDBRANCH  22  30
ENDBRANCH   1  23
BRANCH   6  34
ATOM     34  S   UNL     1      -6.459   6.478  10.917  0.00  0.00    -0.080 S 
BRANCH  34  35
ATOM     35  C   UNL     1      -5.583   6.905  12.447  0.00  0.00    +0.112 C 
BRANCH  35  36
ATOM     36  C   UNL     1      -6.503   7.683  13.352  0.00  0.00    -0.037 A 
ATOM     37  C   UNL     1      -6.548   9.062  13.272  0.00  0.00    +0.004 A 
ATOM     38  C   UNL     1      -7.395   9.775  14.100  0.00  0.00    +0.000 A 
ATOM     39  C   UNL     1      -8.190   9.109  15.014  0.00  0.00    +0.000 A 
ATOM     40  C   UNL     1      -8.142   7.730  15.097  0.00  0.00    +0.000 A 
ATOM     41  C   UNL     1      -7.298   7.017  14.266  0.00  0.00    +0.004 A 
ENDBRANCH  35  36
ENDBRANCH  34  35
ENDBRANCH   6  34
TORSDOF 8
