REMARK  Name = ZINC27580091
REMARK  9 active torsions:
REMARK  status: ('A' for Active; 'I' for Inactive)
REMARK    1  A    between atoms: C_1  and  S_2
REMARK    2  A    between atoms: S_2  and  C_5
REMARK    3  A    between atoms: C_8  and  N_21
REMARK    4  A    between atoms: C_9  and  C_11
REMARK    5  A    between atoms: N_13  and  C_14
REMARK    6  A    between atoms: N_21  and  C_22
REMARK    7  A    between atoms: N_21  and  C_30
REMARK    8  A    between atoms: C_22  and  C_23
REMARK    9  A    between atoms: C_30  and  C_31
REMARK                            x       y       z     vdW  Elec       q    Type
REMARK                         _______ _______ _______ _____ _____    ______ ____
ROOT
ATOM      1  C   UNL     1      -0.194   5.596   0.028  0.00  0.00    +0.271 A 
ATOM      2  N   UNL     1       0.820   6.331  -0.391  0.00  0.00    -0.218 NA
ATOM      3  C   UNL     1       2.006   5.796  -0.611  0.00  0.00    +0.140 A 
ATOM      4  C   UNL     1       2.183   4.426  -0.394  0.00  0.00    +0.080 A 
ATOM      5  C   UNL     1       1.080   3.680   0.050  0.00  0.00    +0.152 A 
ATOM      6  N   UNL     1      -0.081   4.304   0.241  0.00  0.00    -0.205 NA
ENDROOT
BRANCH   1   8
ATOM      7  C   UNL     1      -2.618   6.256  -1.287  0.00  0.00    +0.204 C 
ATOM      8  S   UNL     1      -1.752   6.372   0.303  0.00  0.00    +0.029 S 
ATOM      9  O   UNL     1      -2.397   5.557   1.272  0.00  0.00    -0.167 OA
ATOM     10  O   UNL     1      -1.436   7.727   0.591  0.00  0.00    -0.167 OA
ENDBRANCH   1   8
BRANCH   5  11
ATOM     11  C   UNL     1       1.204   2.227   0.297  0.00  0.00    +0.269 C 
ATOM     12  O   UNL     1       2.268   1.667   0.115  0.00  0.00    -0.268 OA
ATOM     13  N   UNL     1       0.137   1.522   0.725  0.00  0.00    -0.280 N 
ATOM     14  H   UNL     1      -0.846   2.010   0.809  0.00  0.00    +0.155 HD
BRANCH  13  15
ATOM     15  C   UNL     1       0.280   0.172   1.061  0.00  0.00    +0.034 A 
ATOM     16  C   UNL     1      -0.765  -0.715   0.836  0.00  0.00    +0.026 A 
ATOM     17  C   UNL     1      -0.620  -2.049   1.163  0.00  0.00    +0.040 A 
ATOM     18  C   UNL     1       0.561  -2.500   1.726  0.00  0.00    +0.124 A 
ATOM     19  C   UNL     1       1.602  -1.617   1.957  0.00  0.00    +0.040 A 
ATOM     20  C   UNL     1       1.464  -0.283   1.626  0.00  0.00    +0.026 A 
ATOM     21  F   UNL     1       0.699  -3.804   2.051  0.00  0.00    -0.205 F 
ENDBRANCH  13  15
ENDBRANCH   5  11
BRANCH   4  22
ATOM     22  N   UNL     1       3.413   3.821  -0.613  0.00  0.00    -0.315 N 
BRANCH  22  23
ATOM     23  C   UNL     1       3.836   3.978  -2.011  0.00  0.00    +0.140 C 
BRANCH  23  24
ATOM     24  C   UNL     1       2.921   3.182  -2.905  0.00  0.00    -0.030 A 
ATOM     25  C   UNL     1       3.162   1.837  -3.117  0.00  0.00    +0.008 A 
ATOM     26  C   UNL     1       2.320   1.104  -3.933  0.00  0.00    +0.038 A 
ATOM     27  C   UNL     1       1.243   1.720  -4.547  0.00  0.00    +0.123 A 
ATOM     28  C   UNL     1       1.006   3.068  -4.338  0.00  0.00    +0.038 A 
ATOM     29  C   UNL     1       1.846   3.798  -3.517  0.00  0.00    +0.008 A 
ATOM     30  F   UNL     1       0.422   1.006  -5.348  0.00  0.00    -0.205 F 
ENDBRANCH  23  24
ENDBRANCH  22  23
BRANCH  22  31
ATOM     31  C   UNL     1       4.430   4.348   0.307  0.00  0.00    +0.179 C 
BRANCH  31  32
ATOM     32  C   UNL     1       5.624   3.429   0.318  0.00  0.00    +0.122 A 
ATOM     33  C   UNL     1       6.738   3.578  -0.421  0.00  0.00    +0.046 A 
ATOM     34  C   UNL     1       7.591   2.497  -0.099  0.00  0.00    +0.041 A 
ATOM     35  C   UNL     1       6.947   1.752   0.818  0.00  0.00    +0.195 A 
ATOM     36  O   UNL     1       5.758   2.325   1.070  0.00  0.00    -0.466 OA
ENDBRANCH  31  32
ENDBRANCH  22  31
ENDBRANCH   4  22
TORSDOF 8
