REMARK  Name = ZINC01077488
REMARK  3 active torsions:
REMARK  status: ('A' for Active; 'I' for Inactive)
REMARK    1  A    between atoms: C_1  and  C_2
REMARK    2  A    between atoms: C_5  and  C_8
REMARK    3  A    between atoms: C_13  and  C_23
REMARK                            x       y       z     vdW  Elec       q    Type
REMARK                         _______ _______ _______ _____ _____    ______ ____
ROOT
ATOM      1  C   UNL     1       1.428  -4.078   3.837  0.00  0.00    +0.032 C 
ATOM      2  C   UNL     1       2.783  -3.655   3.271  0.00  0.00    +0.059 C 
ATOM      3  C   UNL     1       2.630  -3.252   1.813  0.00  0.00    +0.017 C 
ATOM      4  C   UNL     1       1.500  -2.669   1.385  0.00  0.00    +0.036 C 
ATOM      5  C   UNL     1       1.228  -2.186  -0.020  0.00  0.00    +0.136 C 
ATOM      6  N   UNL     1       2.196  -2.628  -1.003  0.00  0.00    -0.331 N 
ATOM      7  C   UNL     1       3.526  -2.217  -0.938  0.00  0.00    +0.049 A 
ATOM      8  C   UNL     1       4.086  -1.419  -1.923  0.00  0.00    +0.025 A 
ATOM      9  C   UNL     1       5.399  -0.999  -1.793  0.00  0.00    +0.002 A 
ATOM     10  C   UNL     1       6.146  -1.368  -0.690  0.00  0.00    +0.002 A 
ATOM     11  C   UNL     1       5.595  -2.179   0.288  0.00  0.00    +0.025 A 
ATOM     12  C   UNL     1       4.289  -2.617   0.148  0.00  0.00    +0.052 A 
ATOM     13  N   UNL     1       3.711  -3.518   1.036  0.00  0.00    -0.316 N 
ATOM     14  C   UNL     1       0.422  -2.460   2.278  0.00  0.00    +0.163 C 
ATOM     15  O   UNL     1      -0.585  -1.918   1.865  0.00  0.00    -0.292 OA
ATOM     16  C   UNL     1       0.477  -2.883   3.715  0.00  0.00    +0.088 C 
ATOM     17  H   UNL     1       1.913  -3.219  -1.717  0.00  0.00    +0.147 HD
ATOM     18  H   UNL     1       4.107  -4.400   1.104  0.00  0.00    +0.152 HD
ENDROOT
BRANCH   1  23
ATOM     19  C   UNL     1       2.007  -5.567   9.391  0.00  0.00    +0.044 C 
ATOM     20  C   UNL     1       1.857  -5.179   7.942  0.00  0.00    -0.050 A 
ATOM     21  C   UNL     1       1.390  -6.101   7.025  0.00  0.00    +0.003 A 
ATOM     22  C   UNL     1       1.252  -5.745   5.696  0.00  0.00    +0.004 A 
ATOM     23  C   UNL     1       1.579  -4.466   5.286  0.00  0.00    -0.043 A 
ATOM     24  C   UNL     1       2.051  -3.546   6.202  0.00  0.00    +0.004 A 
ATOM     25  C   UNL     1       2.186  -3.901   7.532  0.00  0.00    +0.003 A 
ENDBRANCH   1  23
BRANCH   5  26
ATOM     26  C   UNL     1       1.208  -0.679  -0.013  0.00  0.00    -0.023 A 
ATOM     27  C   UNL     1       0.036  -0.002  -0.291  0.00  0.00    +0.007 A 
ATOM     28  C   UNL     1       0.017   1.380  -0.283  0.00  0.00    +0.020 A 
ATOM     29  C   UNL     1       1.172   2.086   0.002  0.00  0.00    +0.041 A 
ATOM     30  C   UNL     1       2.345   1.407   0.280  0.00  0.00    +0.020 A 
ATOM     31  C   UNL     1       2.363   0.025   0.273  0.00  0.00    +0.007 A 
ATOM     32 CL   UNL     1       1.149   3.821   0.011  0.00  0.00    -0.084 Cl
ENDBRANCH   5  26
TORSDOF 2
