REMARK  Name = ZINC35926861
REMARK  6 active torsions:
REMARK  status: ('A' for Active; 'I' for Inactive)
REMARK    1  A    between atoms: C_3  and  C_35
REMARK    2  A    between atoms: C_6  and  C_7
REMARK    3  A    between atoms: C_7  and  N_8
REMARK    4  A    between atoms: C_20  and  C_22
REMARK    5  A    between atoms: C_22  and  N_23
REMARK    6  A    between atoms: N_26  and  C_29
REMARK                            x       y       z     vdW  Elec       q    Type
REMARK                         _______ _______ _______ _____ _____    ______ ____
ROOT
ATOM      1  N   UNL     1      -0.833  -1.669  -2.918  0.00  0.00    +0.384 N 
ATOM      2  C   UNL     1      -1.770  -2.711  -3.360  0.00  0.00    -0.059 C 
ATOM      3  C   UNL     1      -3.200  -2.299  -2.995  0.00  0.00    +0.089 C 
ATOM      4  N   UNL     1      -3.461  -0.968  -3.563  0.00  0.00    -0.305 N 
ATOM      5  C   UNL     1      -2.482   0.100  -3.305  0.00  0.00    +0.089 C 
ATOM      6  C   UNL     1      -1.086  -0.425  -3.655  0.00  0.00    -0.059 C 
ATOM      7  C   UNL     1      -4.582  -0.729  -4.311  0.00  0.00    +0.198 A 
ATOM      8  N   UNL     1      -5.525  -1.703  -4.432  0.00  0.00    -0.295 N 
ATOM      9  H   UNL     1      -5.401  -2.558  -3.990  0.00  0.00    +0.172 HD
ATOM     10  C   UNL     1      -6.633  -1.475  -5.168  0.00  0.00    +0.253 A 
ATOM     11  O   UNL     1      -7.489  -2.337  -5.286  0.00  0.00    -0.268 OA
ATOM     12  C   UNL     1      -6.784  -0.225  -5.794  0.00  0.00    +0.094 A 
ATOM     13  C   UNL     1      -5.805   0.713  -5.638  0.00  0.00    +0.064 A 
ATOM     14  N   UNL     1      -4.732   0.442  -4.898  0.00  0.00    -0.219 NA
ATOM     15  H   UNL     1      -0.958  -1.505  -1.930  0.00  0.00    -0.081 HD
ENDROOT
BRANCH   1  16
ATOM     16  C   UNL     1       0.544  -2.114  -3.169  0.00  0.00    -0.043 C 
BRANCH  16  22
ATOM     17  C   UNL     1       0.593  -4.590  -2.807  0.00  0.00    +0.002 A 
ATOM     18  C   UNL     1       0.870  -5.697  -2.027  0.00  0.00    +0.012 A 
ATOM     19  C   UNL     1       1.398  -5.537  -0.760  0.00  0.00    +0.055 A 
ATOM     20  C   UNL     1       1.651  -4.268  -0.273  0.00  0.00    +0.012 A 
ATOM     21  C   UNL     1       1.375  -3.160  -1.052  0.00  0.00    +0.002 A 
ATOM     22  C   UNL     1       0.845  -3.321  -2.319  0.00  0.00    -0.064 A 
BRANCH  19  23
ATOM     23  C   UNL     1       1.699  -6.744   0.090  0.00  0.00    +0.417 C 
ATOM     24  F   UNL     1       3.010  -7.168  -0.149  0.00  0.00    -0.166 F 
ATOM     25  F   UNL     1       1.555  -6.411   1.441  0.00  0.00    -0.166 F 
ATOM     26  F   UNL     1       0.810  -7.775  -0.233  0.00  0.00    -0.166 F 
ENDBRANCH  19  23
ENDBRANCH  16  22
ENDBRANCH   1  16
BRANCH  13  27
ATOM     27  C   UNL     1      -5.942   2.061  -6.299  0.00  0.00    +0.140 C 
BRANCH  27  28
ATOM     28  N   UNL     1      -6.057   3.102  -5.269  0.00  0.00    -0.300 NA
ATOM     29  C   UNL     1      -7.310   2.960  -4.514  0.00  0.00    +0.066 C 
ATOM     30  C   UNL     1      -7.363   4.024  -3.415  0.00  0.00    -0.063 C 
ATOM     31  N   UNL     1      -7.286   5.359  -4.022  0.00  0.00    +0.383 N 
ATOM     32  C   UNL     1      -6.018   5.494  -4.752  0.00  0.00    -0.063 C 
ATOM     33  C   UNL     1      -5.954   4.443  -5.862  0.00  0.00    +0.066 C 
ATOM     34  H   UNL     1      -8.057   5.483  -4.662  0.00  0.00    -0.081 HD
BRANCH  31  35
ATOM     35  C   UNL     1      -7.355   6.380  -2.969  0.00  0.00    -0.068 C 
ATOM     36  C   UNL     1      -8.677   6.241  -2.210  0.00  0.00    -0.015 C 
ATOM     37  C   UNL     1      -8.749   7.305  -1.112  0.00  0.00    -0.002 C 
ATOM     38  C   UNL     1      -8.668   8.696  -1.744  0.00  0.00    -0.000 C 
ATOM     39  C   UNL     1      -7.347   8.835  -2.503  0.00  0.00    -0.002 C 
ATOM     40  C   UNL     1      -7.275   7.771  -3.601  0.00  0.00    -0.015 C 
ENDBRANCH  31  35
ENDBRANCH  27  28
ENDBRANCH  13  27
TORSDOF 6
