REMARK  Name = ZINC63225289
REMARK  10 active torsions:
REMARK  status: ('A' for Active; 'I' for Inactive)
REMARK    1  A    between atoms: C_1  and  C_2
REMARK    2  A    between atoms: C_8  and  C_37
REMARK    3  A    between atoms: C_9  and  O_36
REMARK    4  A    between atoms: C_19  and  C_21
REMARK    5  A    between atoms: C_21  and  N_22
REMARK    6  A    between atoms: N_22  and  C_23
REMARK    7  A    between atoms: C_23  and  C_24
REMARK    8  A    between atoms: C_24  and  C_25
REMARK    9  A    between atoms: C_28  and  O_34
REMARK   10  A    between atoms: O_34  and  C_35
REMARK                            x       y       z     vdW  Elec       q    Type
REMARK                         _______ _______ _______ _____ _____    ______ ____
ROOT
ATOM      1  C   UNL     1      -0.019   1.526   0.010  0.00  0.00    +0.008 C 
ATOM      2  C   UNL     1       0.002  -0.004   0.002  0.00  0.00    -0.001 C 
ATOM      3  C   UNL     1       0.695  -0.482  -1.274  0.00  0.00    +0.008 C 
ATOM      4  C   UNL     1       0.625  -2.013  -1.312  0.00  0.00    +0.027 C 
ATOM      5  C   UNL     1       1.249  -2.550  -0.056  0.00  0.00    -0.027 C 
ATOM      6  C   UNL     1       1.296  -1.880   1.058  0.00  0.00    -0.061 C 
ATOM      7  C   UNL     1       0.743  -0.495   1.243  0.00  0.00    +0.018 C 
ATOM      8  C   UNL     1      -0.203  -0.493   2.439  0.00  0.00    +0.132 C 
ATOM      9  C   UNL     1       0.269  -1.233   3.654  0.00  0.00    +0.071 C 
ATOM     10  C   UNL     1       0.935  -2.595   3.411  0.00  0.00    +0.187 C 
ATOM     11  C   UNL     1       1.945  -2.531   2.262  0.00  0.00    +0.076 C 
ATOM     12  O   UNL     1       1.725  -2.772   4.620  0.00  0.00    -0.460 OA
ATOM     13  C   UNL     1       2.276  -1.575   4.915  0.00  0.00    +0.309 C 
ATOM     14  O   UNL     1       3.375  -1.390   5.378  0.00  0.00    -0.251 OA
ATOM     15  C   UNL     1       1.262  -0.496   4.558  0.00  0.00    +0.090 C 
ATOM     16  C   UNL     1       1.901   0.475   1.494  0.00  0.00    +0.018 C 
ENDROOT
BRANCH   8  17
ATOM     17  O   UNL     1      -1.463  -1.054   2.043  0.00  0.00    -0.391 OA
ATOM     18  H   UNL     1      -2.119  -1.087   2.752  0.00  0.00    +0.210 HD
ENDBRANCH   8  17
BRANCH  15  19
ATOM     19  C   UNL     1       0.561   0.005   5.828  0.00  0.00    -0.067 C 
BRANCH  19  20
ATOM     20  N   UNL     1       1.500   0.810   6.621  0.00  0.00    +0.380 N 
ATOM     21  H   UNL     1       2.295   0.243   6.877  0.00  0.00    -0.086 HD
ATOM     22  H   UNL     1       1.812   1.599   6.075  0.00  0.00    -0.086 HD
BRANCH  20  23
ATOM     23  C   UNL     1       0.829   1.289   7.837  0.00  0.00    -0.078 C 
BRANCH  23  24
ATOM     24  C   UNL     1       1.807   2.127   8.663  0.00  0.00    +0.014 C 
BRANCH  24  25
ATOM     25  C   UNL     1       1.119   2.619   9.910  0.00  0.00    -0.043 C 
ATOM     26  C   UNL     1       1.146   2.046  11.134  0.00  0.00    +0.002 A 
ATOM     27  C   UNL     1       1.799   0.839  11.653  0.00  0.00    +0.055 A 
ATOM     28  C   UNL     1       1.644   0.505  12.957  0.00  0.00    +0.121 A 
ATOM     29  C   UNL     1       0.873   1.277  13.843  0.00  0.00    +0.047 A 
ATOM     30  C   UNL     1       0.234   2.403  13.459  0.00  0.00    +0.029 A 
ATOM     31  C   UNL     1       0.334   2.859  12.069  0.00  0.00    +0.043 A 
ATOM     32  N   UNL     1      -0.175   3.893  11.447  0.00  0.00    -0.380 N 
ATOM     33  C   UNL     1       0.262   3.858  10.046  0.00  0.00    +0.144 C 
ATOM     34  H   UNL     1      -0.742   4.571  11.846  0.00  0.00    +0.160 HD
BRANCH  28  35
ATOM     35  O   UNL     1       2.254  -0.617  13.424  0.00  0.00    -0.495 OA
ATOM     36  C   UNL     1       2.063  -0.931  14.805  0.00  0.00    +0.277 C 
ENDBRANCH  28  35
ENDBRANCH  24  25
ENDBRANCH  23  24
ENDBRANCH  20  23
ENDBRANCH  19  20
ENDBRANCH  15  19
TORSDOF 7
