REMARK  Name = ZINC08526590
REMARK  4 active torsions:
REMARK  status: ('A' for Active; 'I' for Inactive)
REMARK    1  A    between atoms: C_8  and  S_10
REMARK    2  A    between atoms: S_10  and  C_11
REMARK    3  A    between atoms: C_11  and  C_12
REMARK    4  A    between atoms: N_18  and  C_19
REMARK                            x       y       z     vdW  Elec       q    Type
REMARK                         _______ _______ _______ _____ _____    ______ ____
ROOT
ATOM      1  C   UNL     1       5.271  -5.746  -0.071  0.00  0.00    +0.146 A 
ATOM      2  N   UNL     1       5.731  -6.268   1.053  0.00  0.00    -0.199 NA
ATOM      3  C   UNL     1       6.381  -7.430   1.032  0.00  0.00    +0.217 A 
ATOM      4  N   UNL     1       6.567  -8.064  -0.120  0.00  0.00    -0.181 NA
ATOM      5  C   UNL     1       6.103  -7.536  -1.248  0.00  0.00    +0.224 A 
ATOM      6  N   UNL     1       5.449  -6.377  -1.218  0.00  0.00    -0.198 NA
ATOM      7  N   UNL     1       6.294  -8.192  -2.448  0.00  0.00    -0.284 N 
ATOM      8  N   UNL     1       6.862  -7.973   2.206  0.00  0.00    -0.327 N 
ATOM      9  H   UNL     1       6.028  -7.769  -3.280  0.00  0.00    +0.155 HD
ATOM     10  H   UNL     1       6.726  -7.510   3.047  0.00  0.00    +0.145 HD
ATOM     11  H   UNL     1       7.336  -8.820   2.190  0.00  0.00    +0.145 HD
ENDROOT
BRANCH   7  12
ATOM     12  C   UNL     1       6.872  -9.467  -2.465  0.00  0.00    +0.034 A 
ATOM     13  C   UNL     1       6.572 -10.379  -1.462  0.00  0.00    +0.026 A 
ATOM     14  C   UNL     1       7.143 -11.637  -1.481  0.00  0.00    +0.040 A 
ATOM     15  C   UNL     1       8.013 -11.988  -2.499  0.00  0.00    +0.124 A 
ATOM     16  C   UNL     1       8.313 -11.080  -3.500  0.00  0.00    +0.040 A 
ATOM     17  C   UNL     1       7.740  -9.823  -3.488  0.00  0.00    +0.026 A 
ATOM     18  F   UNL     1       8.570 -13.219  -2.516  0.00  0.00    -0.205 F 
ENDBRANCH   7  12
BRANCH   1  19
ATOM     19  C   UNL     1       4.535  -4.431  -0.042  0.00  0.00    +0.152 C 
BRANCH  19  20
ATOM     20  S   UNL     1       2.763  -4.735   0.196  0.00  0.00    -0.091 S 
BRANCH  20  28
ATOM     21  C   UNL     1      -1.169   0.362   0.443  0.00  0.00    +0.002 A 
ATOM     22  C   UNL     1      -0.142   1.277   0.269  0.00  0.00    +0.001 A 
ATOM     23  C   UNL     1       1.156   0.820   0.128  0.00  0.00    +0.017 A 
ATOM     24  C   UNL     1       1.407  -0.528   0.162  0.00  0.00    +0.040 A 
ATOM     25  C   UNL     1       0.386  -1.490   0.337  0.00  0.00    +0.079 A 
ATOM     26  C   UNL     1      -0.928  -0.987   0.479  0.00  0.00    +0.029 A 
ATOM     27  N   UNL     1       0.791  -2.779   0.349  0.00  0.00    -0.233 NA
ATOM     28  C   UNL     1       2.052  -3.123   0.207  0.00  0.00    +0.136 A 
ATOM     29  S   UNL     1       2.861  -1.540   0.028  0.00  0.00    -0.061 S 
ENDBRANCH  20  28
ENDBRANCH  19  20
ENDBRANCH   1  19
TORSDOF 4
