REMARK  Name = ZINC00752388
REMARK  8 active torsions:
REMARK  status: ('A' for Active; 'I' for Inactive)
REMARK    1  A    between atoms: C_1  and  O_2
REMARK    2  A    between atoms: O_2  and  C_3
REMARK    3  A    between atoms: C_5  and  O_25
REMARK    4  A    between atoms: C_8  and  C_9
REMARK    5  A    between atoms: C_14  and  N_23
REMARK    6  A    between atoms: C_18  and  N_22
REMARK    7  A    between atoms: C_19  and  C_20
REMARK    8  A    between atoms: O_25  and  C_26
REMARK                            x       y       z     vdW  Elec       q    Type
REMARK                         _______ _______ _______ _____ _____    ______ ____
ROOT
ATOM      1  C   UNL     1       2.466   3.918   0.000  0.00  0.00    +0.101 C 
ATOM      2  C   UNL     1       1.161   3.167   0.008  0.00  0.00    +0.008 A 
ATOM      3  C   UNL     1       1.173   1.783   0.000  0.00  0.00    +0.010 A 
ATOM      4  C   UNL     1      -0.013   1.076   0.008  0.00  0.00    +0.023 A 
ATOM      5  C   UNL     1      -1.225   1.755   0.017  0.00  0.00    +0.028 A 
ATOM      6  C   UNL     1      -1.240   3.142   0.029  0.00  0.00    +0.069 A 
ATOM      7  C   UNL     1      -0.045   3.849   0.023  0.00  0.00    +0.136 A 
ATOM      8  O   UNL     1      -0.077   5.205   0.031  0.00  0.00    -0.441 OA
ATOM      9  C   UNL     1       1.010   5.898   0.409  0.00  0.00    +0.199 C 
ATOM     10  C   UNL     1       2.246   5.345   0.417  0.00  0.00    +0.098 C 
ENDROOT
BRANCH   1  16
ATOM     11  C   UNL     1       4.294   3.322  -1.608  0.00  0.00    +0.128 A 
ATOM     12  C   UNL     1       4.830   3.298  -2.887  0.00  0.00    +0.092 A 
ATOM     13  C   UNL     1       4.119   3.842  -3.944  0.00  0.00    +0.137 A 
ATOM     14  C   UNL     1       2.872   4.411  -3.721  0.00  0.00    +0.060 A 
ATOM     15  C   UNL     1       2.338   4.430  -2.446  0.00  0.00    +0.027 A 
ATOM     16  C   UNL     1       3.048   3.892  -1.390  0.00  0.00    +0.008 A 
ATOM     17 BR   UNL     1       1.901   5.154  -5.163  0.00  0.00    -0.047 Br
BRANCH  11  19
ATOM     18  C   UNL     1       6.266   2.219  -0.867  0.00  0.00    +0.277 C 
ATOM     19  O   UNL     1       4.989   2.788  -0.569  0.00  0.00    -0.495 OA
ENDBRANCH  11  19
BRANCH  13  20
ATOM     20  O   UNL     1       4.642   3.820  -5.199  0.00  0.00    -0.494 OA
ATOM     21  C   UNL     1       5.929   3.219  -5.354  0.00  0.00    +0.277 C 
ENDBRANCH  13  20
ENDBRANCH   1  16
BRANCH   9  22
ATOM     22  N   UNL     1       0.863   7.206   0.799  0.00  0.00    -0.328 N 
ATOM     23  H   UNL     1       1.638   7.720   1.075  0.00  0.00    +0.145 HD
ATOM     24  H   UNL     1      -0.016   7.617   0.799  0.00  0.00    +0.145 HD
ENDBRANCH   9  22
BRANCH   5  25
ATOM     25  N   UNL     1      -2.426   1.042   0.019  0.00  0.00    -0.358 N 
ATOM     26  H   UNL     1      -2.415   0.072   0.014  0.00  0.00    +0.142 HD
ATOM     27  H   UNL     1      -3.272   1.517   0.026  0.00  0.00    +0.142 HD
ENDBRANCH   5  25
BRANCH  10  28
ATOM     28  C   UNL     1       3.366   6.136   0.831  0.00  0.00    +0.101 C 
ATOM     29  N   UNL     1       4.254   6.763   1.160  0.00  0.00    -0.191 NA
ENDBRANCH  10  28
TORSDOF 6
