REMARK  Name = ZINC39666835
REMARK  11 active torsions:
REMARK  status: ('A' for Active; 'I' for Inactive)
REMARK    1  A    between atoms: C_1  and  C_2
REMARK    2  A    between atoms: C_2  and  C_3
REMARK    3  A    between atoms: C_3  and  C_4
REMARK    4  A    between atoms: C_3  and  C_6
REMARK    5  A    between atoms: C_4  and  C_5
REMARK    6  A    between atoms: C_6  and  N_7
REMARK    7  A    between atoms: C_8  and  C_10
REMARK    8  A    between atoms: C_21  and  C_23
REMARK    9  A    between atoms: C_26  and  O_33
REMARK   10  A    between atoms: C_27  and  C_29
REMARK   11  A    between atoms: O_33  and  C_34
REMARK                            x       y       z     vdW  Elec       q    Type
REMARK                         _______ _______ _______ _____ _____    ______ ____
ROOT
ATOM      1  C   UNL     1      -2.610  -4.500  -2.187  0.00  0.00    +0.100 C 
ATOM      2  C   UNL     1      -3.725  -3.962  -1.264  0.00  0.00    +0.121 C 
ATOM      3  N   UNL     1      -4.814  -4.962  -1.371  0.00  0.00    -0.296 N 
ATOM      4  C   UNL     1      -4.114  -6.268  -1.407  0.00  0.00    +0.115 C 
ATOM      5  C   UNL     1      -2.868  -6.014  -2.278  0.00  0.00    -0.004 C 
ATOM      6  C   UNL     1      -1.673  -6.788  -1.727  0.00  0.00    -0.010 C 
ATOM      7  C   UNL     1      -1.929  -8.290  -1.882  0.00  0.00    -0.082 C 
ATOM      8  N   UNL     1      -2.133  -8.610  -3.300  0.00  0.00    +0.379 N 
ATOM      9  C   UNL     1      -3.338  -7.934  -3.797  0.00  0.00    -0.082 C 
ATOM     10  C   UNL     1      -3.142  -6.417  -3.723  0.00  0.00    -0.010 C 
ATOM     11  C   UNL     1      -6.142  -4.734  -1.425  0.00  0.00    +0.247 C 
ATOM     12  O   UNL     1      -6.562  -3.594  -1.473  0.00  0.00    -0.270 OA
ATOM     13  H   UNL     1      -1.333  -8.302  -3.831  0.00  0.00    -0.086 HD
ATOM     14  H   UNL     1      -2.240  -9.607  -3.406  0.00  0.00    -0.086 HD
ENDROOT
BRANCH  11  15
ATOM     15  C   UNL     1      -7.085  -5.869  -1.424  0.00  0.00    +0.038 A 
ATOM     16  C   UNL     1      -6.690  -7.109  -0.916  0.00  0.00    +0.016 A 
ATOM     17  C   UNL     1      -7.573  -8.165  -0.917  0.00  0.00    +0.047 A 
ATOM     18  C   UNL     1      -8.857  -7.999  -1.423  0.00  0.00    +0.132 A 
ATOM     19  C   UNL     1      -9.255  -6.768  -1.930  0.00  0.00    +0.097 A 
ATOM     20  C   UNL     1      -8.379  -5.705  -1.927  0.00  0.00    +0.029 A 
BRANCH  19  21
ATOM     21  C   UNL     1     -10.648  -6.593  -2.478  0.00  0.00    +0.421 C 
ATOM     22  F   UNL     1     -10.811  -5.279  -2.926  0.00  0.00    -0.166 F 
ATOM     23  F   UNL     1     -10.843  -7.478  -3.545  0.00  0.00    -0.166 F 
ATOM     24  F   UNL     1     -11.582  -6.863  -1.472  0.00  0.00    -0.166 F 
ENDBRANCH  19  21
BRANCH  18  25
ATOM     25  O   UNL     1      -9.725  -9.043  -1.423  0.00  0.00    -0.495 OA
ATOM     26  C   UNL     1      -9.251 -10.280  -0.888  0.00  0.00    +0.277 C 
ENDBRANCH  18  25
ENDBRANCH  11  15
BRANCH   1  28
ATOM     27  N   UNL     1      -0.180  -4.078  -2.381  0.00  0.00    -0.315 N 
ATOM     28  C   UNL     1      -1.255  -4.234  -1.583  0.00  0.00    +0.218 C 
ATOM     29  O   UNL     1      -1.132  -4.161  -0.379  0.00  0.00    -0.275 OA
ATOM     30  H   UNL     1      -0.278  -4.137  -3.344  0.00  0.00    +0.149 HD
BRANCH  27  31
ATOM     31  C   UNL     1       1.137  -3.820  -1.794  0.00  0.00    +0.107 C 
BRANCH  31  32
ATOM     32  C   UNL     1       2.175  -3.683  -2.909  0.00  0.00    +0.006 C 
BRANCH  32  34
ATOM     33  C   UNL     1       2.837  -2.365  -4.926  0.00  0.00    +0.004 C 
ATOM     34  C   UNL     1       1.858  -2.447  -3.753  0.00  0.00    +0.002 C 
ENDBRANCH  32  34
BRANCH  32  35
ATOM     35  C   UNL     1       3.569  -3.538  -2.294  0.00  0.00    +0.002 C 
ATOM     36  C   UNL     1       3.923  -4.813  -1.527  0.00  0.00    +0.004 C 
ENDBRANCH  32  35
ENDBRANCH  31  32
ENDBRANCH  27  31
ENDBRANCH   1  28
TORSDOF 8
