REMARK  Name = ZINC19794798
REMARK  7 active torsions:
REMARK  status: ('A' for Active; 'I' for Inactive)
REMARK    1  A    between atoms: C_1  and  C_2
REMARK    2  A    between atoms: C_2  and  O_3
REMARK    3  A    between atoms: O_3  and  C_4
REMARK    4  A    between atoms: C_6  and  C_14
REMARK    5  A    between atoms: C_8  and  N_11
REMARK    6  A    between atoms: C_9  and  O_10
REMARK    7  A    between atoms: C_19  and  C_24
REMARK                            x       y       z     vdW  Elec       q    Type
REMARK                         _______ _______ _______ _____ _____    ______ ____
ROOT
ATOM      1  C   UNL     1       0.202   6.490  -0.471  0.00  0.00    +0.136 C 
ATOM      2  C   UNL     1      -0.863   6.772  -1.504  0.00  0.00    +0.036 C 
ATOM      3  C   UNL     1      -1.503   7.942  -1.679  0.00  0.00    +0.017 C 
ATOM      4  C   UNL     1      -2.549   8.094  -2.770  0.00  0.00    +0.059 C 
ATOM      5  C   UNL     1      -3.268   6.765  -2.993  0.00  0.00    +0.032 C 
ATOM      6  C   UNL     1      -2.215   5.727  -3.400  0.00  0.00    +0.088 C 
ATOM      7  C   UNL     1      -1.169   5.664  -2.328  0.00  0.00    +0.163 C 
ATOM      8  O   UNL     1      -0.563   4.623  -2.161  0.00  0.00    -0.292 OA
ATOM      9  N   UNL     1      -1.278   9.061  -0.944  0.00  0.00    -0.316 N 
ATOM     10  C   UNL     1      -1.182   9.098   0.442  0.00  0.00    +0.052 A 
ATOM     11  C   UNL     1      -2.066   9.819   1.225  0.00  0.00    +0.025 A 
ATOM     12  C   UNL     1      -1.846   9.910   2.589  0.00  0.00    +0.002 A 
ATOM     13  C   UNL     1      -0.753   9.285   3.162  0.00  0.00    +0.002 A 
ATOM     14  C   UNL     1       0.119   8.544   2.383  0.00  0.00    +0.025 A 
ATOM     15  C   UNL     1      -0.109   8.437   1.021  0.00  0.00    +0.049 A 
ATOM     16  N   UNL     1       0.713   7.665   0.203  0.00  0.00    -0.331 N 
ATOM     17  H   UNL     1      -1.157  10.033  -1.445  0.00  0.00    +0.152 HD
ATOM     18  H   UNL     1       1.765   7.959   0.072  0.00  0.00    +0.147 HD
ENDROOT
BRANCH   1  21
ATOM     19  C   UNL     1      -0.386   3.426   1.659  0.00  0.00    +0.164 A 
ATOM     20  C   UNL     1       0.142   4.284   0.707  0.00  0.00    +0.055 A 
ATOM     21  C   UNL     1      -0.374   5.559   0.564  0.00  0.00    -0.017 A 
ATOM     22  C   UNL     1      -1.415   5.981   1.369  0.00  0.00    +0.042 A 
ATOM     23  C   UNL     1      -1.946   5.130   2.321  0.00  0.00    +0.171 A 
ATOM     24  C   UNL     1      -1.438   3.849   2.465  0.00  0.00    +0.189 A 
BRANCH  23  25
ATOM     25  N   UNL     1      -3.061   5.586   3.181  0.00  0.00    +0.060 N 
ATOM     26  O   UNL     1      -3.511   6.710   3.051  0.00  0.00    -0.126 OA
ATOM     27  O   UNL     1      -3.529   4.836   4.019  0.00  0.00    -0.126 OA
ENDBRANCH  23  25
BRANCH  24  28
ATOM     28  O   UNL     1      -1.963   3.009   3.397  0.00  0.00    -0.502 OA
ATOM     29  H   UNL     1      -2.795   3.344   4.034  0.00  0.00    +0.292 HD
ENDBRANCH  24  28
BRANCH  19  30
ATOM     30  O   UNL     1       0.120   2.172   1.801  0.00  0.00    -0.488 OA
BRANCH  30  32
ATOM     31  C   UNL     1       1.628   0.369   1.240  0.00  0.00    +0.048 C 
ATOM     32  C   UNL     1       1.196   1.804   0.935  0.00  0.00    +0.226 C 
ENDBRANCH  30  32
ENDBRANCH  19  30
ENDBRANCH   1  21
BRANCH   5  33
ATOM     33  C   UNL     1      -4.289   6.915  -4.091  0.00  0.00    -0.044 A 
ATOM     34  C   UNL     1      -3.894   7.330  -5.350  0.00  0.00    +0.004 A 
ATOM     35  C   UNL     1      -4.830   7.463  -6.358  0.00  0.00    +0.000 A 
ATOM     36  C   UNL     1      -6.162   7.191  -6.106  0.00  0.00    +0.000 A 
ATOM     37  C   UNL     1      -6.557   6.782  -4.846  0.00  0.00    +0.000 A 
ATOM     38  C   UNL     1      -5.620   6.644  -3.839  0.00  0.00    +0.004 A 
ENDBRANCH   5  33
TORSDOF 6
