REMARK  Name = ZINC23339141
REMARK  11 active torsions:
REMARK  status: ('A' for Active; 'I' for Inactive)
REMARK    1  A    between atoms: C_1  and  C_2
REMARK    2  A    between atoms: C_2  and  C_3
REMARK    3  A    between atoms: C_2  and  N_4
REMARK    4  A    between atoms: C_6  and  N_25
REMARK    5  A    between atoms: C_9  and  C_11
REMARK    6  A    between atoms: N_13  and  C_14
REMARK    7  A    between atoms: C_14  and  C_15
REMARK    8  A    between atoms: C_15  and  C_16
REMARK    9  A    between atoms: N_25  and  C_26
REMARK   10  A    between atoms: C_26  and  C_27
REMARK   11  A    between atoms: C_28  and  C_29
REMARK                            x       y       z     vdW  Elec       q    Type
REMARK                         _______ _______ _______ _____ _____    ______ ____
ROOT
ATOM      1  N   UNL     1      -1.365   5.494   3.627  0.00  0.00    +0.390 N 
ATOM      2  C   UNL     1      -0.846   6.833   3.961  0.00  0.00    -0.059 C 
ATOM      3  C   UNL     1       0.353   7.104   3.029  0.00  0.00    +0.036 C 
ATOM      4  C   UNL     1       0.800   5.679   2.610  0.00  0.00    +0.010 C 
ATOM      5  C   UNL     1      -0.558   4.939   2.519  0.00  0.00    +0.021 C 
ATOM      6  H   UNL     1      -1.291   4.838   4.507  0.00  0.00    -0.080 HD
ENDROOT
BRANCH   5   7
ATOM      7  C   UNL     1      -0.362   3.457   2.704  0.00  0.00    +0.200 C 
ATOM      8  O   UNL     1      -0.891   2.886   3.634  0.00  0.00    -0.278 OA
ATOM      9  N   UNL     1       0.402   2.765   1.835  0.00  0.00    -0.316 N 
ATOM     10  H   UNL     1       0.882   3.283   0.991  0.00  0.00    +0.149 HD
BRANCH   9  11
ATOM     11  C   UNL     1       0.593   1.323   2.014  0.00  0.00    +0.109 C 
BRANCH  11  12
ATOM     12  C   UNL     1       1.495   0.786   0.902  0.00  0.00    +0.054 C 
BRANCH  12  13
ATOM     13  C   UNL     1       1.691  -0.697   1.086  0.00  0.00    -0.042 A 
ATOM     14  C   UNL     1       2.749  -1.163   1.845  0.00  0.00    +0.007 A 
ATOM     15  C   UNL     1       2.931  -2.522   2.021  0.00  0.00    +0.050 A 
ATOM     16  C   UNL     1       2.058  -3.421   1.429  0.00  0.00    +0.166 A 
ATOM     17  C   UNL     1       0.996  -2.951   0.660  0.00  0.00    +0.166 A 
ATOM     18  C   UNL     1       0.817  -1.587   0.492  0.00  0.00    +0.053 A 
ATOM     19  O   UNL     1       0.291  -4.021   0.191  0.00  0.00    -0.453 OA
ATOM     20  C   UNL     1       0.689  -5.135   1.012  0.00  0.00    +0.466 C 
ATOM     21  O   UNL     1       2.018  -4.785   1.441  0.00  0.00    -0.453 OA
ENDBRANCH  12  13
ENDBRANCH  11  12
ENDBRANCH   9  11
ENDBRANCH   5   7
BRANCH   1  23
ATOM     22  C   UNL     1      -3.603   6.015   4.473  0.00  0.00    -0.013 C 
ATOM     23  C   UNL     1      -2.787   5.556   3.263  0.00  0.00    -0.074 C 
ATOM     24  C   UNL     1      -2.977   6.547   2.113  0.00  0.00    -0.013 C 
ENDBRANCH   1  23
BRANCH   3  25
ATOM     25  N   UNL     1       1.430   7.795   3.750  0.00  0.00    -0.310 NA
ATOM     26  H   UNL     1       1.394   7.520   4.814  0.00  0.00    +0.122 HD
BRANCH  25  27
ATOM     27  C   UNL     1       1.290   9.253   3.635  0.00  0.00    +0.128 C 
BRANCH  27  28
ATOM     28  C   UNL     1       2.410   9.926   4.386  0.00  0.00    +0.033 C 
ATOM     29  C   UNL     1       3.311  10.646   3.729  0.00  0.00    +0.024 C 
ATOM     30 CL   UNL     1       2.521   9.761   6.111  0.00  0.00    -0.087 Cl
BRANCH  29  31
ATOM     31  C   UNL     1       4.497  11.170   4.437  0.00  0.00    -0.024 A 
ATOM     32  C   UNL     1       5.056  12.392   4.059  0.00  0.00    +0.008 A 
ATOM     33  C   UNL     1       6.160  12.878   4.728  0.00  0.00    +0.001 A 
ATOM     34  C   UNL     1       6.720  12.152   5.764  0.00  0.00    +0.000 A 
ATOM     35  C   UNL     1       6.175  10.938   6.140  0.00  0.00    +0.001 A 
ATOM     36  C   UNL     1       5.067  10.443   5.483  0.00  0.00    +0.008 A 
ENDBRANCH  29  31
ENDBRANCH  27  28
ENDBRANCH  25  27
ENDBRANCH   3  25
TORSDOF 9
