REMARK  Name = ZINC06920203
REMARK  5 active torsions:
REMARK  status: ('A' for Active; 'I' for Inactive)
REMARK    1  A    between atoms: C_1  and  C_2
REMARK    2  A    between atoms: C_5  and  C_8
REMARK    3  A    between atoms: C_10  and  C_22
REMARK    4  A    between atoms: C_12  and  C_15
REMARK    5  A    between atoms: C_20  and  O_21
REMARK                            x       y       z     vdW  Elec       q    Type
REMARK                         _______ _______ _______ _____ _____    ______ ____
ROOT
ATOM      1  C   UNL     1       4.055  -2.070   1.838  0.00  0.00    +0.040 C 
ATOM      2  N   UNL     1       3.639  -1.858   0.646  0.00  0.00    -0.298 NA
ATOM      3  C   UNL     1       3.732  -0.573  -0.036  0.00  0.00    +0.082 C 
ATOM      4  C   UNL     1       4.431   0.369   2.071  0.00  0.00    -0.028 C 
ATOM      5  C   UNL     1       4.706  -1.009   2.681  0.00  0.00    +0.044 C 
ATOM      6  N   UNL     1       4.715   0.299   0.625  0.00  0.00    +0.401 N 
ATOM      7  H   UNL     1       4.660   1.241   0.221  0.00  0.00    -0.081 HD
ATOM      8  H   UNL     1       5.658  -0.081   0.480  0.00  0.00    -0.081 HD
ENDROOT
BRANCH   1  13
ATOM      9  C   UNL     1       3.401  -7.330   4.073  0.00  0.00    +0.044 C 
ATOM     10  C   UNL     1       3.572  -5.952   3.487  0.00  0.00    -0.050 A 
ATOM     11  C   UNL     1       3.132  -5.691   2.202  0.00  0.00    +0.004 A 
ATOM     12  C   UNL     1       3.286  -4.431   1.660  0.00  0.00    +0.010 A 
ATOM     13  C   UNL     1       3.886  -3.420   2.412  0.00  0.00    -0.004 A 
ATOM     14  C   UNL     1       4.332  -3.692   3.706  0.00  0.00    +0.010 A 
ATOM     15  C   UNL     1       4.168  -4.954   4.238  0.00  0.00    +0.004 A 
ENDBRANCH   1  13
BRANCH   4  16
ATOM     16  C   UNL     1       5.327   1.397   2.713  0.00  0.00    -0.019 A 
ATOM     17  C   UNL     1       6.473   1.815   2.065  0.00  0.00    +0.005 A 
ATOM     18  C   UNL     1       7.296   2.758   2.654  0.00  0.00    +0.000 A 
ATOM     19  C   UNL     1       6.973   3.285   3.891  0.00  0.00    +0.004 A 
ATOM     20  C   UNL     1       5.828   2.870   4.542  0.00  0.00    +0.045 A 
ATOM     21  C   UNL     1       4.998   1.927   3.952  0.00  0.00    +0.118 A 
BRANCH  21  22
ATOM     22  O   UNL     1       3.868   1.521   4.588  0.00  0.00    -0.507 OA
ATOM     23  H   UNL     1       3.997   0.759   5.169  0.00  0.00    +0.292 HD
ENDBRANCH  21  22
ENDBRANCH   4  16
BRANCH   3  24
ATOM     24  C   UNL     1       2.382   0.096  -0.020  0.00  0.00    -0.022 A 
ATOM     25  C   UNL     1       1.222  -0.663  -0.013  0.00  0.00    +0.007 A 
ATOM     26  C   UNL     1       0.002  -0.004   0.002  0.00  0.00    +0.020 A 
ATOM     27  C   UNL     1      -0.017   1.378   0.010  0.00  0.00    +0.111 A 
ATOM     28  N   UNL     1       1.107   2.068   0.003  0.00  0.00    -0.263 NA
ATOM     29  C   UNL     1       2.285   1.475  -0.012  0.00  0.00    +0.114 A 
ENDBRANCH   3  24
TORSDOF 4
