REMARK  Name = ZINC02038699
REMARK  4 active torsions:
REMARK  status: ('A' for Active; 'I' for Inactive)
REMARK    1  A    between atoms: C_1  and  S_2
REMARK    2  A    between atoms: S_2  and  C_3
REMARK    3  A    between atoms: C_3  and  S_5
REMARK    4  A    between atoms: S_5  and  C_6
REMARK                            x       y       z     vdW  Elec       q    Type
REMARK                         _______ _______ _______ _____ _____    ______ ____
ROOT
ATOM      1  C   UNL     1      -0.021   1.708   0.011  0.00  0.00    +0.085 C 
ATOM      2  S   UNL     1       0.002  -0.004   0.002  0.00  0.00    -0.037 S 
ENDROOT
BRANCH   1   4
ATOM      3  C   UNL     1       2.675   1.239  -0.017  0.00  0.00    +0.091 C 
ATOM      4  S   UNL     1       1.493   2.609   0.002  0.00  0.00    -0.114 S 
ENDBRANCH   1   4
BRANCH   1   5
ATOM      5  S   UNL     1      -1.559   2.568   0.023  0.00  0.00    -0.114 S 
ATOM      6  C   UNL     1      -2.703   1.166   0.021  0.00  0.00    +0.091 C 
ENDBRANCH   1   5
TORSDOF 2
