REMARK  Name = ZINC06857603
REMARK  4 active torsions:
REMARK  status: ('A' for Active; 'I' for Inactive)
REMARK    1  A    between atoms: C_1  and  N_45
REMARK    2  A    between atoms: C_9  and  O_25
REMARK    3  A    between atoms: C_11  and  C_14
REMARK    4  A    between atoms: C_15  and  C_16
REMARK                            x       y       z     vdW  Elec       q    Type
REMARK                         _______ _______ _______ _____ _____    ______ ____
ROOT
ATOM      1  C   UNL     1      -1.350  -0.550   0.184  0.00  0.00    -0.096 C 
ATOM      2  C   UNL     1       0.919  -0.517   1.029  0.00  0.00    -0.074 C 
ATOM      3  C   UNL     1       2.371  -0.252   0.618  0.00  0.00    +0.018 C 
ATOM      4  C   UNL     1       2.504   1.225   0.264  0.00  0.00    -0.027 A 
ATOM      5  C   UNL     1       1.396   1.959  -0.001  0.00  0.00    -0.021 A 
ATOM      6  S   UNL     1       2.003   3.586  -0.353  0.00  0.00    -0.080 S 
ATOM      7  C   UNL     1       3.677   3.295  -0.153  0.00  0.00    +0.080 A 
ATOM      8  C   UNL     1       3.764   1.937   0.182  0.00  0.00    +0.067 A 
ATOM      9  C   UNL     1       5.123   1.379   0.408  0.00  0.00    +0.220 C 
ATOM     10  N   UNL     1       6.113   2.223   0.522  0.00  0.00    -0.223 NA
ATOM     11  C   UNL     1       5.973   3.674   0.508  0.00  0.00    +0.217 C 
ATOM     12  N   UNL     1       4.787   4.098  -0.258  0.00  0.00    -0.313 N 
ATOM     13  C   UNL     1      -0.018   1.471   0.010  0.00  0.00    -0.036 C 
ATOM     14  H   UNL     1       4.790   4.899  -0.805  0.00  0.00    +0.149 HD
ATOM     15  N   UNL     1       0.012  -0.011  -0.022  0.00  0.00    +0.381 N 
ATOM     16  H   UNL     1       0.358  -0.319  -0.938  0.00  0.00    -0.082 HD
ENDROOT
BRANCH  11  17
ATOM     17  C   UNL     1       5.845   4.169   1.926  0.00  0.00    +0.019 C 
ATOM     18  C   UNL     1       6.735   5.022   2.413  0.00  0.00    +0.007 C 
BRANCH  18  19
ATOM     19  C   UNL     1       6.609   5.507   3.803  0.00  0.00    -0.022 A 
ATOM     20  C   UNL     1       5.550   5.073   4.603  0.00  0.00    +0.012 A 
ATOM     21  C   UNL     1       5.437   5.523   5.902  0.00  0.00    +0.050 A 
ATOM     22  C   UNL     1       6.367   6.415   6.415  0.00  0.00    +0.166 A 
ATOM     23  C   UNL     1       7.424   6.857   5.620  0.00  0.00    +0.167 A 
ATOM     24  C   UNL     1       7.545   6.405   4.318  0.00  0.00    +0.057 A 
ATOM     25  O   UNL     1       8.188   7.720   6.351  0.00  0.00    -0.453 OA
ATOM     26  C   UNL     1       7.363   8.118   7.461  0.00  0.00    +0.466 C 
ATOM     27  O   UNL     1       6.472   7.002   7.643  0.00  0.00    -0.453 OA
ENDBRANCH  18  19
ENDBRANCH  11  17
BRANCH   9  28
ATOM     28  O   UNL     1       5.327   0.045   0.493  0.00  0.00    -0.492 OA
ATOM     29  H   UNL     1       6.250  -0.203   0.641  0.00  0.00    +0.294 HD
ENDBRANCH   9  28
TORSDOF 3
