REMARK  Name = ZINC20454306
REMARK  4 active torsions:
REMARK  status: ('A' for Active; 'I' for Inactive)
REMARK    1  A    between atoms: C_1  and  C_2
REMARK    2  A    between atoms: C_2  and  C_4
REMARK    3  A    between atoms: C_2  and  N_10
REMARK    4  A    between atoms: C_17  and  C_19
REMARK                            x       y       z     vdW  Elec       q    Type
REMARK                         _______ _______ _______ _____ _____    ______ ____
ROOT
ATOM      1  N   UNL     1       0.711  -0.489   1.189  0.00  0.00    -0.238 N 
ATOM      2  C   UNL     1       0.189  -1.297   2.165  0.00  0.00    +0.178 A 
ATOM      3  C   UNL     1       1.203  -1.507   3.095  0.00  0.00    +0.105 A 
ATOM      4  C   UNL     1       2.333  -0.809   2.650  0.00  0.00    +0.162 A 
ATOM      5  N   UNL     1       2.043  -0.214   1.523  0.00  0.00    -0.175 NA
ATOM      6  N   UNL     1       0.668  -2.325   4.077  0.00  0.00    -0.333 N 
ATOM      7  H   UNL     1       1.124  -2.653   4.867  0.00  0.00    +0.168 HD
ATOM      8  C   UNL     1      -0.629  -2.580   3.719  0.00  0.00    +0.177 A 
ATOM      9  N   UNL     1      -0.895  -1.964   2.586  0.00  0.00    -0.205 NA
ENDROOT
BRANCH   8  10
ATOM     10  C   UNL     1      -1.576  -3.409   4.479  0.00  0.00    +0.170 A 
ATOM     11  C   UNL     1      -2.867  -3.675   4.131  0.00  0.00    +0.053 A 
ATOM     12  C   UNL     1      -3.395  -4.503   5.139  0.00  0.00    +0.042 A 
ATOM     13  C   UNL     1      -2.414  -4.702   6.043  0.00  0.00    +0.196 A 
ATOM     14  O   UNL     1      -1.316  -4.045   5.640  0.00  0.00    -0.460 OA
ENDBRANCH   8  10
BRANCH   1  16
ATOM     15  C   UNL     1      -0.019   1.526   0.010  0.00  0.00    +0.038 C 
ATOM     16  C   UNL     1       0.002  -0.004   0.002  0.00  0.00    +0.136 C 
BRANCH  16  17
ATOM     17  C   UNL     1       0.707  -0.490  -1.238  0.00  0.00    -0.023 A 
ATOM     18  C   UNL     1       2.026  -0.142  -1.464  0.00  0.00    +0.006 A 
ATOM     19  C   UNL     1       2.673  -0.587  -2.602  0.00  0.00    +0.000 A 
ATOM     20  C   UNL     1       2.002  -1.382  -3.512  0.00  0.00    +0.000 A 
ATOM     21  C   UNL     1       0.684  -1.731  -3.285  0.00  0.00    +0.000 A 
ATOM     22  C   UNL     1       0.038  -1.289  -2.146  0.00  0.00    +0.006 A 
ENDBRANCH  16  17
ENDBRANCH   1  16
TORSDOF 3
