REMARK  Name = ZINC13033786
REMARK  8 active torsions:
REMARK  status: ('A' for Active; 'I' for Inactive)
REMARK    1  A    between atoms: C_4  and  C_7
REMARK    2  A    between atoms: C_7  and  N_8
REMARK    3  A    between atoms: C_9  and  C_13
REMARK    4  A    between atoms: C_13  and  N_63
REMARK    5  A    between atoms: C_14  and  C_15
REMARK    6  A    between atoms: C_14  and  N_63
REMARK    7  A    between atoms: C_22  and  C_23
REMARK    8  A    between atoms: C_22  and  N_63
REMARK                            x       y       z     vdW  Elec       q    Type
REMARK                         _______ _______ _______ _____ _____    ______ ____
ROOT
ATOM      1  N   UNL     1      -0.112  -0.864   2.029  0.00  0.00    +0.390 N 
ATOM      2  H   UNL     1       0.128   0.106   1.793  0.00  0.00    -0.080 HD
ENDROOT
BRANCH   1   3
ATOM      3  C   UNL     1      -1.544  -1.088   1.743  0.00  0.00    +0.001 C 
BRANCH   3   5
ATOM      4  N   UNL     1      -2.760   1.145   1.940  0.00  0.00    -0.227 N 
ATOM      5  C   UNL     1      -2.353  -0.031   2.451  0.00  0.00    +0.135 A 
ATOM      6  N   UNL     1      -2.792  -0.078   3.685  0.00  0.00    -0.115 NA
ATOM      7  N   UNL     1      -3.444   1.009   3.917  0.00  0.00    -0.023 NA
ATOM      8  N   UNL     1      -3.426   1.751   2.864  0.00  0.00    -0.044 NA
BRANCH   4   9
ATOM      9  C   UNL     1      -2.502   1.642   0.586  0.00  0.00    +0.182 C 
BRANCH   9  13
ATOM     10  C   UNL     1       0.823   4.323   0.658  0.00  0.00    +0.000 A 
ATOM     11  C   UNL     1       1.036   2.961   0.564  0.00  0.00    +0.000 A 
ATOM     12  C   UNL     1      -0.040   2.093   0.545  0.00  0.00    +0.005 A 
ATOM     13  C   UNL     1      -1.329   2.588   0.614  0.00  0.00    -0.026 A 
ATOM     14  C   UNL     1      -1.542   3.950   0.712  0.00  0.00    +0.005 A 
ATOM     15  C   UNL     1      -0.466   4.818   0.732  0.00  0.00    +0.000 A 
ENDBRANCH   9  13
ENDBRANCH   4   9
ENDBRANCH   3   5
ENDBRANCH   1   3
BRANCH   1  16
ATOM     16  C   UNL     1       0.159  -1.090   3.464  0.00  0.00    -0.042 C 
BRANCH  16  17
ATOM     17  C   UNL     1       1.533  -0.563   3.787  0.00  0.00    -0.064 A 
ATOM     18  C   UNL     1       2.613  -1.426   3.822  0.00  0.00    +0.004 A 
ATOM     19  C   UNL     1       3.875  -0.943   4.114  0.00  0.00    +0.038 A 
ATOM     20  C   UNL     1       4.055   0.404   4.381  0.00  0.00    +0.123 A 
ATOM     21  C   UNL     1       2.972   1.266   4.351  0.00  0.00    +0.038 A 
ATOM     22  C   UNL     1       1.712   0.781   4.054  0.00  0.00    +0.004 A 
ATOM     23  F   UNL     1       5.287   0.876   4.671  0.00  0.00    -0.205 F 
ENDBRANCH  16  17
ENDBRANCH   1  16
BRANCH   1  24
ATOM     24  C   UNL     1       0.715  -1.776   1.209  0.00  0.00    -0.036 C 
BRANCH  24  25
ATOM     25  C   UNL     1       0.785  -1.232  -0.195  0.00  0.00    +0.001 A 
ATOM     26  C   UNL     1       1.808  -0.415  -0.553  0.00  0.00    +0.017 A 
ATOM     27  C   UNL     1       1.852   0.091  -1.924  0.00  0.00    +0.002 A 
ATOM     28  C   UNL     1       2.885   0.933  -2.351  0.00  0.00    +0.059 A 
ATOM     29  C   UNL     1       2.897   1.399  -3.649  0.00  0.00    +0.163 A 
ATOM     30  C   UNL     1       1.882   1.033  -4.538  0.00  0.00    +0.164 A 
ATOM     31  C   UNL     1       0.856   0.201  -4.124  0.00  0.00    +0.075 A 
ATOM     32  C   UNL     1       0.829  -0.276  -2.820  0.00  0.00    +0.053 A 
ATOM     33  N   UNL     1      -0.187  -1.106  -2.390  0.00  0.00    -0.322 N 
ATOM     34  H   UNL     1      -0.892  -1.358  -3.008  0.00  0.00    +0.169 HD
ATOM     35  C   UNL     1      -0.214  -1.570  -1.129  0.00  0.00    +0.251 A 
ATOM     36  O   UNL     1      -1.127  -2.301  -0.784  0.00  0.00    -0.268 OA
ATOM     37  O   UNL     1       1.888   1.485  -5.821  0.00  0.00    -0.485 OA
ATOM     38  C   UNL     1       2.721   2.614  -6.102  0.00  0.00    +0.270 C 
ATOM     39  C   UNL     1       4.093   2.372  -5.460  0.00  0.00    +0.270 C 
ATOM     40  O   UNL     1       3.907   2.221  -4.048  0.00  0.00    -0.485 OA
ENDBRANCH  24  25
ENDBRANCH   1  24
TORSDOF 8
