REMARK  Name = ZINC10127134
REMARK  8 active torsions:
REMARK  status: ('A' for Active; 'I' for Inactive)
REMARK    1  A    between atoms: C_1  and  O_2
REMARK    2  A    between atoms: O_2  and  C_3
REMARK    3  A    between atoms: C_8  and  N_9
REMARK    4  A    between atoms: N_9  and  S_10
REMARK    5  A    between atoms: S_10  and  C_13
REMARK    6  A    between atoms: C_16  and  O_32
REMARK    7  A    between atoms: C_17  and  N_19
REMARK    8  A    between atoms: C_20  and  C_22
REMARK                            x       y       z     vdW  Elec       q    Type
REMARK                         _______ _______ _______ _____ _____    ______ ____
ROOT
ATOM      1  C   UNL     1       1.699   6.176   2.903  0.00  0.00    +0.110 A 
ATOM      2  C   UNL     1       1.969   6.244   4.257  0.00  0.00    +0.032 A 
ATOM      3  C   UNL     1       1.603   5.205   5.092  0.00  0.00    +0.049 A 
ATOM      4  C   UNL     1       0.964   4.091   4.573  0.00  0.00    +0.138 A 
ATOM      5  C   UNL     1       0.692   4.021   3.208  0.00  0.00    +0.077 A 
ATOM      6  C   UNL     1       1.067   5.066   2.376  0.00  0.00    +0.055 A 
ENDROOT
BRANCH   5   7
ATOM      7  N   UNL     1       0.045   2.897   2.677  0.00  0.00    -0.282 N 
ATOM      8  C   UNL     1      -0.632   2.995   1.516  0.00  0.00    +0.231 C 
ATOM      9  O   UNL     1      -0.766   4.075   0.981  0.00  0.00    -0.274 OA
ATOM     10  H   UNL     1       0.086   2.048   3.145  0.00  0.00    +0.155 HD
BRANCH   8  11
ATOM     11  C   UNL     1      -1.224   1.762   0.883  0.00  0.00    +0.142 C 
ATOM     12  C   UNL     1      -1.162   1.836  -0.659  0.00  0.00    +0.060 C 
ATOM     13  C   UNL     1      -2.415   2.441  -1.242  0.00  0.00    -0.032 A 
ATOM     14  C   UNL     1      -2.555   2.999  -2.516  0.00  0.00    +0.005 A 
ATOM     15  C   UNL     1      -3.760   3.513  -2.939  0.00  0.00    +0.000 A 
ATOM     16  C   UNL     1      -4.869   3.492  -2.113  0.00  0.00    +0.001 A 
ATOM     17  C   UNL     1      -4.754   2.950  -0.847  0.00  0.00    +0.015 A 
ATOM     18  C   UNL     1      -3.541   2.439  -0.423  0.00  0.00    +0.012 A 
ATOM     19  S   UNL     1      -3.046   1.699   1.117  0.00  0.00    -0.112 S 
ENDBRANCH   8  11
ENDBRANCH   5   7
BRANCH   1  20
ATOM     20  S   UNL     1       2.168   7.505   1.845  0.00  0.00    +0.073 S 
ATOM     21  O   UNL     1       1.317   7.440   0.710  0.00  0.00    -0.150 OA
ATOM     22  O   UNL     1       2.260   8.662   2.664  0.00  0.00    -0.150 OA
BRANCH  20  23
ATOM     23  N   UNL     1       3.701   7.183   1.307  0.00  0.00    -0.213 N 
ATOM     24  H   UNL     1       4.423   7.801   1.502  0.00  0.00    +0.174 HD
BRANCH  23  30
ATOM     25  C   UNL     1       5.159   5.340   0.731  0.00  0.00    +0.142 A 
ATOM     26  C   UNL     1       5.405   4.190  -0.001  0.00  0.00    +0.047 A 
ATOM     27  C   UNL     1       4.455   3.719  -0.889  0.00  0.00    +0.004 A 
ATOM     28  C   UNL     1       3.258   4.394  -1.049  0.00  0.00    +0.002 A 
ATOM     29  C   UNL     1       3.004   5.539  -0.319  0.00  0.00    +0.028 A 
ATOM     30  C   UNL     1       3.954   6.021   0.570  0.00  0.00    +0.090 A 
BRANCH  25  32
ATOM     31  C   UNL     1       7.305   5.056   1.717  0.00  0.00    +0.277 C 
ATOM     32  O   UNL     1       6.093   5.804   1.604  0.00  0.00    -0.493 OA
ENDBRANCH  25  32
ENDBRANCH  23  30
ENDBRANCH  20  23
ENDBRANCH   1  20
BRANCH   4  33
ATOM     33  O   UNL     1       0.603   3.068   5.393  0.00  0.00    -0.505 OA
ATOM     34  H   UNL     1       1.282   2.386   5.493  0.00  0.00    +0.292 HD
ENDBRANCH   4  33
TORSDOF 7
