REMARK  Name = ZINC24212516
REMARK  13 active torsions:
REMARK  status: ('A' for Active; 'I' for Inactive)
REMARK    1  A    between atoms: C_1  and  C_2
REMARK    2  A    between atoms: C_2  and  C_3
REMARK    3  A    between atoms: C_3  and  N_4
REMARK    4  A    between atoms: N_4  and  C_5
REMARK    5  A    between atoms: N_4  and  C_17
REMARK    6  A    between atoms: C_5  and  C_6
REMARK    7  A    between atoms: N_8  and  C_9
REMARK    8  A    between atoms: C_17  and  C_18
REMARK    9  A    between atoms: N_20  and  C_21
REMARK   10  A    between atoms: N_20  and  C_29
REMARK   11  A    between atoms: C_29  and  C_31
REMARK   12  A    between atoms: C_29  and  C_32
REMARK   13  A    between atoms: C_32  and  C_33
REMARK                            x       y       z     vdW  Elec       q    Type
REMARK                         _______ _______ _______ _____ _____    ______ ____
ROOT
ATOM      1  N   UNL     1      -1.257  -4.790   0.305  0.00  0.00    +0.391 N 
ATOM      2  H   UNL     1      -1.767  -4.241   1.110  0.00  0.00    -0.080 HD
ENDROOT
BRANCH   1   3
ATOM      3  C   UNL     1      -2.000  -4.557  -0.941  0.00  0.00    -0.078 C 
BRANCH   3   5
ATOM      4  C   UNL     1      -2.057  -5.027  -3.394  0.00  0.00    +0.002 C 
ATOM      5  C   UNL     1      -1.363  -5.366  -2.073  0.00  0.00    -0.022 C 
ENDBRANCH   3   5
ENDBRANCH   1   3
BRANCH   1   6
ATOM      6  C   UNL     1       0.114  -4.274   0.205  0.00  0.00    +0.020 C 
BRANCH   6   7
ATOM      7  C   UNL     1       0.079  -2.772   0.085  0.00  0.00    +0.201 C 
ATOM      8  O   UNL     1      -0.985  -2.189   0.083  0.00  0.00    -0.278 OA
ATOM      9  N   UNL     1       1.228  -2.077  -0.020  0.00  0.00    -0.286 N 
ATOM     10  H   UNL     1       2.187  -2.609  -0.112  0.00  0.00    +0.155 HD
BRANCH   9  11
ATOM     11  C   UNL     1       1.203  -0.677  -0.012  0.00  0.00    +0.052 A 
ATOM     12  C   UNL     1       0.152  -0.004   0.594  0.00  0.00    +0.026 A 
ATOM     13  C   UNL     1       0.129   1.377   0.600  0.00  0.00    +0.022 A 
ATOM     14  C   UNL     1       1.153   2.091   0.002  0.00  0.00    +0.042 A 
ATOM     15  C   UNL     1       2.203   1.423  -0.604  0.00  0.00    +0.041 A 
ATOM     16  C   UNL     1       2.231   0.041  -0.613  0.00  0.00    +0.064 A 
ATOM     17 CL   UNL     1       3.547  -0.797  -1.373  0.00  0.00    -0.082 Cl
ATOM     18 CL   UNL     1       1.120   3.826   0.011  0.00  0.00    -0.083 Cl
ENDBRANCH   9  11
ENDBRANCH   6   7
ENDBRANCH   1   6
BRANCH   1  19
ATOM     19  C   UNL     1      -1.259  -6.216   0.659  0.00  0.00    +0.019 C 
BRANCH  19  20
ATOM     20  C   UNL     1      -2.637  -6.617   1.119  0.00  0.00    +0.200 C 
ATOM     21  O   UNL     1      -3.550  -5.821   1.067  0.00  0.00    -0.278 OA
ATOM     22  N   UNL     1      -2.854  -7.862   1.589  0.00  0.00    -0.296 N 
BRANCH  22  23
ATOM     23  C   UNL     1      -4.193  -8.252   2.037  0.00  0.00    +0.099 C 
ATOM     24  C   UNL     1      -5.182  -8.118   0.866  0.00  0.00    +0.046 C 
ATOM     25  C   UNL     1      -6.625  -8.230   1.436  0.00  0.00    +0.168 C 
ATOM     26  S   UNL     1      -6.455  -7.242   2.982  0.00  0.00    -0.029 S 
ATOM     27  O   UNL     1      -6.818  -5.895   2.712  0.00  0.00    -0.174 OA
ATOM     28  O   UNL     1      -7.089  -7.937   4.047  0.00  0.00    -0.174 OA
ATOM     29  C   UNL     1      -4.632  -7.337   3.205  0.00  0.00    +0.188 C 
ENDBRANCH  22  23
BRANCH  22  30
ATOM     30  C   UNL     1      -1.751  -8.824   1.653  0.00  0.00    +0.073 C 
ATOM     31  C   UNL     1      -1.542  -9.265   3.103  0.00  0.00    +0.028 C 
BRANCH  30  32
ATOM     32  C   UNL     1      -2.087 -10.043   0.792  0.00  0.00    +0.019 C 
ATOM     33  C   UNL     1      -2.173  -9.622  -0.676  0.00  0.00    +0.005 C 
ENDBRANCH  30  32
ENDBRANCH  22  30
ENDBRANCH  19  20
ENDBRANCH   1  19
TORSDOF 10
