REMARK  Name = ZINC08567050
REMARK  6 active torsions:
REMARK  status: ('A' for Active; 'I' for Inactive)
REMARK    1  A    between atoms: C_1  and  C_2
REMARK    2  A    between atoms: C_2  and  C_3
REMARK    3  A    between atoms: C_2  and  C_4
REMARK    4  A    between atoms: C_6  and  C_10
REMARK    5  A    between atoms: N_12  and  N_13
REMARK    6  A    between atoms: C_14  and  C_15
REMARK                            x       y       z     vdW  Elec       q    Type
REMARK                         _______ _______ _______ _____ _____    ______ ____
ROOT
ATOM      1  C   UNL     1      -4.595  -1.572   1.459  0.00  0.00    +0.281 C 
ATOM      2  O   UNL     1      -4.574  -1.457   2.670  0.00  0.00    -0.267 OA
ATOM      3  N   UNL     1      -5.702  -2.036   0.845  0.00  0.00    -0.202 N 
ATOM      4  H   UNL     1      -5.719  -2.128  -0.120  0.00  0.00    +0.178 HD
ENDROOT
BRANCH   1   7
ATOM      5  C   UNL     1      -1.412  -0.526   0.013  0.00  0.00    +0.066 A 
ATOM      6  C   UNL     1      -2.208  -0.719   1.143  0.00  0.00    +0.057 A 
ATOM      7  C   UNL     1      -3.413  -1.206   0.665  0.00  0.00    +0.122 A 
ATOM      8  N   UNL     1      -3.282  -1.279  -0.693  0.00  0.00    -0.272 N 
ATOM      9  H   UNL     1      -3.969  -1.588  -1.305  0.00  0.00    +0.189 HD
ATOM     10  N   UNL     1      -2.113  -0.873  -1.036  0.00  0.00    -0.178 NA
BRANCH   5  12
ATOM     11  C   UNL     1      -0.019   1.526   0.010  0.00  0.00    +0.014 C 
ATOM     12  C   UNL     1       0.002  -0.004   0.002  0.00  0.00    +0.033 C 
ATOM     13  C   UNL     1       0.742  -0.511   1.242  0.00  0.00    +0.014 C 
ENDBRANCH   5  12
ENDBRANCH   1   7
BRANCH   3  14
ATOM     14  N   UNL     1      -6.829  -2.385   1.602  0.00  0.00    -0.187 NA
ATOM     15  C   UNL     1      -7.894  -2.831   1.011  0.00  0.00    +0.138 C 
BRANCH  15  16
ATOM     16  C   UNL     1      -9.080  -3.198   1.807  0.00  0.00    -0.005 A 
ATOM     17  C   UNL     1      -9.061  -3.061   3.197  0.00  0.00    +0.010 A 
ATOM     18  C   UNL     1     -10.174  -3.406   3.936  0.00  0.00    +0.016 A 
ATOM     19  C   UNL     1     -11.307  -3.888   3.302  0.00  0.00    +0.018 A 
ATOM     20  C   UNL     1     -11.332  -4.026   1.925  0.00  0.00    +0.016 A 
ATOM     21  C   UNL     1     -10.229  -3.679   1.174  0.00  0.00    +0.010 A 
ATOM     22 BR   UNL     1     -12.828  -4.359   4.323  0.00  0.00    -0.050 Br
ENDBRANCH  15  16
ENDBRANCH   3  14
TORSDOF 4
