REMARK  Name = ZINC27531051
REMARK  7 active torsions:
REMARK  status: ('A' for Active; 'I' for Inactive)
REMARK    1  A    between atoms: C_1  and  C_2
REMARK    2  A    between atoms: C_5  and  C_8
REMARK    3  A    between atoms: C_8  and  C_10
REMARK    4  A    between atoms: C_11  and  N_37
REMARK    5  A    between atoms: N_12  and  C_31
REMARK    6  A    between atoms: C_15  and  C_17
REMARK    7  A    between atoms: C_20  and  N_23
REMARK                            x       y       z     vdW  Elec       q    Type
REMARK                         _______ _______ _______ _____ _____    ______ ____
ROOT
ATOM      1  C   UNL     1       2.639  -2.416  -0.328  0.00  0.00    +0.048 C 
ATOM      2  C   UNL     1       2.358  -3.749  -0.507  0.00  0.00    +0.100 C 
ATOM      3  N   UNL     1       3.350  -4.686  -0.347  0.00  0.00    -0.261 N 
ATOM      4  C   UNL     1       4.479  -4.387   0.372  0.00  0.00    +0.024 C 
ATOM      5  C   UNL     1       4.841  -3.105   0.587  0.00  0.00    +0.024 C 
ATOM      6  C   UNL     1       4.020  -1.963   0.044  0.00  0.00    +0.091 C 
ATOM      7  C   UNL     1       5.999  -2.794   1.324  0.00  0.00    +0.162 C 
ATOM      8  O   UNL     1       6.288  -1.629   1.514  0.00  0.00    -0.292 OA
ATOM      9  C   UNL     1       6.884  -3.875   1.880  0.00  0.00    +0.080 C 
ATOM     10  C   UNL     1       6.771  -5.117   0.991  0.00  0.00    +0.014 C 
ATOM     11  C   UNL     1       5.299  -5.529   0.919  0.00  0.00    +0.052 C 
ENDROOT
BRANCH   6  12
ATOM     12  C   UNL     1       4.702  -1.402  -1.178  0.00  0.00    -0.035 A 
ATOM     13  C   UNL     1       5.004  -2.231  -2.242  0.00  0.00    +0.007 A 
ATOM     14  C   UNL     1       5.625  -1.715  -3.365  0.00  0.00    +0.033 A 
ATOM     15  C   UNL     1       5.953  -0.374  -3.418  0.00  0.00    +0.126 A 
ATOM     16  C   UNL     1       5.656   0.454  -2.352  0.00  0.00    +0.033 A 
ATOM     17  C   UNL     1       5.030  -0.060  -1.231  0.00  0.00    +0.007 A 
BRANCH  15  18
ATOM     18  N   UNL     1       6.622   0.177  -4.618  0.00  0.00    +0.056 N 
ATOM     19  O   UNL     1       6.912   1.359  -4.665  0.00  0.00    -0.126 OA
ATOM     20  O   UNL     1       6.884  -0.552  -5.558  0.00  0.00    -0.126 OA
ENDBRANCH  15  18
ENDBRANCH   6  12
BRANCH   3  21
ATOM     21  C   UNL     1       3.207  -5.956  -0.918  0.00  0.00    +0.040 A 
ATOM     22  C   UNL     1       3.755  -6.224  -2.166  0.00  0.00    +0.024 A 
ATOM     23  C   UNL     1       3.615  -7.479  -2.724  0.00  0.00    +0.002 A 
ATOM     24  C   UNL     1       2.922  -8.466  -2.046  0.00  0.00    +0.000 A 
ATOM     25  C   UNL     1       2.370  -8.200  -0.806  0.00  0.00    +0.002 A 
ATOM     26  C   UNL     1       2.511  -6.948  -0.240  0.00  0.00    +0.024 A 
ENDBRANCH   3  21
BRANCH   2  27
ATOM     27  N   UNL     1       1.091  -4.143  -0.850  0.00  0.00    -0.346 N 
ATOM     28  H   UNL     1       0.867  -5.211  -0.993  0.00  0.00    +0.143 HD
ATOM     29  H   UNL     1       0.299  -3.392  -0.982  0.00  0.00    +0.143 HD
ENDBRANCH   2  27
BRANCH   1  30
ATOM     30  C   UNL     1       1.620  -1.466  -0.490  0.00  0.00    +0.193 C 
ATOM     31  O   UNL     1       1.087  -1.324  -1.577  0.00  0.00    -0.287 OA
BRANCH  30  36
ATOM     32  C   UNL     1      -0.043   1.759   3.979  0.00  0.00    +0.044 C 
ATOM     33  C   UNL     1       0.392   0.915   2.809  0.00  0.00    -0.050 A 
ATOM     34  C   UNL     1      -0.148   1.143   1.556  0.00  0.00    +0.004 A 
ATOM     35  C   UNL     1       0.246   0.373   0.481  0.00  0.00    +0.012 A 
ATOM     36  C   UNL     1       1.192  -0.637   0.660  0.00  0.00    +0.022 A 
ATOM     37  C   UNL     1       1.733  -0.862   1.926  0.00  0.00    +0.012 A 
ATOM     38  C   UNL     1       1.330  -0.086   2.993  0.00  0.00    +0.004 A 
ENDBRANCH  30  36
ENDBRANCH   1  30
TORSDOF 6
