REMARK  Name = ZINC08896245
REMARK  18 active torsions:
REMARK  status: ('A' for Active; 'I' for Inactive)
REMARK    1  A    between atoms: C_1  and  C_2
REMARK    2  A    between atoms: C_2  and  N_71
REMARK    3  A    between atoms: C_3  and  C_4
REMARK    4  A    between atoms: C_3  and  N_71
REMARK    5  A    between atoms: C_5  and  C_6
REMARK    6  A    between atoms: C_5  and  N_71
REMARK    7  A    between atoms: C_6  and  N_7
REMARK    8  A    between atoms: C_8  and  C_24
REMARK    9  A    between atoms: C_10  and  C_15
REMARK   10  A    between atoms: C_11  and  O_14
REMARK   11  A    between atoms: C_15  and  C_17
REMARK   12  A    between atoms: C_20  and  C_23
REMARK   13  A    between atoms: C_27  and  O_33
REMARK   14  A    between atoms: C_28  and  O_30
REMARK   15  A    between atoms: O_30  and  C_31
REMARK   16  A    between atoms: C_31  and  C_32
REMARK   17  A    between atoms: O_33  and  C_34
REMARK   18  A    between atoms: C_34  and  C_35
REMARK                            x       y       z     vdW  Elec       q    Type
REMARK                         _______ _______ _______ _____ _____    ______ ____
ROOT
ATOM      1  N   UNL     1      -2.434  -0.196  -0.856  0.00  0.00    -0.285 N 
ATOM      2  C   UNL     1      -2.552   0.788   0.227  0.00  0.00    +0.144 C 
ATOM      3  C   UNL     1      -2.901   0.005   1.471  0.00  0.00    +0.071 C 
ATOM      4  C   UNL     1      -2.970  -1.297   1.107  0.00  0.00    +0.188 C 
ATOM      5  C   UNL     1      -2.680  -1.413  -0.338  0.00  0.00    +0.282 C 
ATOM      6  O   UNL     1      -2.664  -2.454  -0.965  0.00  0.00    -0.267 OA
ENDROOT
BRANCH   2   7
ATOM      7  C   UNL     1      -1.241   1.507   0.418  0.00  0.00    -0.019 A 
ATOM      8  C   UNL     1      -0.059   0.790   0.447  0.00  0.00    +0.009 A 
ATOM      9  C   UNL     1       1.146   1.446   0.616  0.00  0.00    +0.050 A 
ATOM     10  C   UNL     1       1.171   2.824   0.762  0.00  0.00    +0.162 A 
ATOM     11  C   UNL     1      -0.019   3.544   0.739  0.00  0.00    +0.162 A 
ATOM     12  C   UNL     1      -1.224   2.881   0.569  0.00  0.00    +0.055 A 
BRANCH  11  13
ATOM     13  O   UNL     1      -0.000   4.896   0.882  0.00  0.00    -0.489 OA
BRANCH  13  14
ATOM     14  C   UNL     1      -1.244   5.583   0.725  0.00  0.00    +0.226 C 
ATOM     15  C   UNL     1      -1.007   7.092   0.805  0.00  0.00    +0.048 C 
ENDBRANCH  13  14
ENDBRANCH  11  13
BRANCH  10  16
ATOM     16  O   UNL     1       2.356   3.470   0.928  0.00  0.00    -0.489 OA
BRANCH  16  17
ATOM     17  C   UNL     1       3.537   2.666   0.942  0.00  0.00    +0.226 C 
ATOM     18  C   UNL     1       4.762   3.563   1.137  0.00  0.00    +0.048 C 
ENDBRANCH  16  17
ENDBRANCH  10  16
ENDBRANCH   2   7
BRANCH   4  19
ATOM     19  O   UNL     1      -3.260  -2.328   1.934  0.00  0.00    -0.502 OA
ATOM     20  H   UNL     1      -3.247  -3.184   1.417  0.00  0.00    +0.292 HD
ENDBRANCH   4  19
BRANCH   3  21
ATOM     21  C   UNL     1      -3.122   0.550   2.814  0.00  0.00    +0.195 C 
ATOM     22  O   UNL     1      -2.336   0.299   3.709  0.00  0.00    -0.287 OA
BRANCH  21  23
ATOM     23  C   UNL     1      -4.298   1.405   3.080  0.00  0.00    +0.022 A 
ATOM     24  C   UNL     1      -5.264   1.598   2.091  0.00  0.00    +0.012 A 
ATOM     25  C   UNL     1      -6.362   2.391   2.348  0.00  0.00    +0.004 A 
ATOM     26  C   UNL     1      -6.502   3.006   3.580  0.00  0.00    -0.050 A 
ATOM     27  C   UNL     1      -5.545   2.824   4.564  0.00  0.00    +0.004 A 
ATOM     28  C   UNL     1      -4.445   2.028   4.322  0.00  0.00    +0.012 A 
ATOM     29  C   UNL     1      -7.701   3.877   3.852  0.00  0.00    +0.044 C 
ENDBRANCH  21  23
ENDBRANCH   3  21
BRANCH   1  30
ATOM     30  C   UNL     1      -2.108   0.096  -2.254  0.00  0.00    +0.090 C 
BRANCH  30  31
ATOM     31  C   UNL     1      -0.591   0.041  -2.446  0.00  0.00    -0.060 C 
BRANCH  31  32
ATOM     32  N   UNL     1      -0.288   0.225  -3.881  0.00  0.00    +0.380 N 
ATOM     33  H   UNL     1      -0.965  -0.312  -4.436  0.00  0.00    -0.082 HD
BRANCH  32  35
ATOM     34  C   UNL     1      -0.304   1.790  -5.762  0.00  0.00    -0.017 C 
ATOM     35  C   UNL     1      -0.400   1.655  -4.241  0.00  0.00    -0.082 C 
ENDBRANCH  32  35
BRANCH  32  36
ATOM     36  C   UNL     1       1.074  -0.265  -4.177  0.00  0.00    -0.082 C 
ATOM     37  C   UNL     1       1.036  -1.792  -4.265  0.00  0.00    -0.017 C 
ENDBRANCH  32  36
ENDBRANCH  31  32
ENDBRANCH  30  31
ENDBRANCH   1  30
TORSDOF 13
