REMARK  Name = ZINC39979638
REMARK  6 active torsions:
REMARK  status: ('A' for Active; 'I' for Inactive)
REMARK    1  A    between atoms: C_1  and  C_2
REMARK    2  A    between atoms: C_2  and  C_3
REMARK    3  A    between atoms: C_2  and  C_4
REMARK    4  A    between atoms: C_4  and  C_5
REMARK    5  A    between atoms: C_7  and  C_11
REMARK    6  A    between atoms: C_19  and  C_21
REMARK                            x       y       z     vdW  Elec       q    Type
REMARK                         _______ _______ _______ _____ _____    ______ ____
ROOT
ATOM      1  C   UNL     1      -2.154   0.213  -4.589  0.00  0.00    +0.206 C 
ATOM      2  N   UNL     1      -0.944   0.990  -4.232  0.00  0.00    -0.231 NA
ATOM      3  N   UNL     1      -1.080   2.303  -4.885  0.00  0.00    -0.224 NA
ATOM      4  C   UNL     1      -2.541   2.438  -5.056  0.00  0.00    +0.240 C 
ATOM      5  N   UNL     1      -2.910   1.065  -5.536  0.00  0.00    -0.206 N 
ATOM      6  N   UNL     1      -3.700   1.065  -6.665  0.00  0.00    -0.173 NA
ATOM      7  C   UNL     1      -3.845   2.111  -7.426  0.00  0.00    +0.125 C 
ATOM      8  S   UNL     1      -2.954   3.429  -6.539  0.00  0.00    -0.063 S 
ATOM      9  H   UNL     1      -0.862   1.091  -3.231  0.00  0.00    +0.143 HD
ATOM     10  H   UNL     1      -0.609   2.313  -5.778  0.00  0.00    +0.144 HD
ENDROOT
BRANCH   7  11
ATOM     11  C   UNL     1      -4.571   2.210  -8.710  0.00  0.00    +0.012 A 
ATOM     12  C   UNL     1      -4.615   3.424  -9.398  0.00  0.00    +0.014 A 
ATOM     13  C   UNL     1      -5.293   3.514 -10.595  0.00  0.00    +0.050 A 
ATOM     14  C   UNL     1      -5.933   2.401 -11.120  0.00  0.00    +0.166 A 
ATOM     15  C   UNL     1      -5.894   1.186 -10.438  0.00  0.00    +0.167 A 
ATOM     16  C   UNL     1      -5.210   1.088  -9.240  0.00  0.00    +0.060 A 
ATOM     17  O   UNL     1      -6.593   0.259 -11.158  0.00  0.00    -0.453 OA
ATOM     18  C   UNL     1      -7.402   1.017 -12.076  0.00  0.00    +0.466 C 
ATOM     19  O   UNL     1      -6.657   2.234 -12.266  0.00  0.00    -0.453 OA
ENDBRANCH   7  11
BRANCH   1  22
ATOM     20  C   UNL     1      -2.125  -0.137  -1.266  0.00  0.00    +0.062 C 
ATOM     21  C   UNL     1      -2.218  -0.912  -2.349  0.00  0.00    +0.029 C 
ATOM     22  C   UNL     1      -2.994  -0.063  -3.340  0.00  0.00    +0.190 C 
ATOM     23  N   UNL     1      -3.242   1.179  -2.589  0.00  0.00    -0.177 NA
ATOM     24  N   UNL     1      -2.740   1.049  -1.470  0.00  0.00    -0.159 NA
BRANCH  20  25
ATOM     25  C   UNL     1      -1.433  -0.534   0.013  0.00  0.00    +0.060 C 
BRANCH  25  27
ATOM     26  C   UNL     1      -0.019   1.526   0.010  0.00  0.00    +0.007 C 
ATOM     27  C   UNL     1       0.002  -0.004   0.002  0.00  0.00    -0.011 C 
ATOM     28  C   UNL     1       0.742  -0.511   1.242  0.00  0.00    +0.007 C 
ENDBRANCH  25  27
ENDBRANCH  20  25
ENDBRANCH   1  22
TORSDOF 4
