REMARK  Name = ZINC66323746
REMARK  10 active torsions:
REMARK  status: ('A' for Active; 'I' for Inactive)
REMARK    1  A    between atoms: C_1  and  C_2
REMARK    2  A    between atoms: C_4  and  O_5
REMARK    3  A    between atoms: C_6  and  C_28
REMARK    4  A    between atoms: N_9  and  C_10
REMARK    5  A    between atoms: C_13  and  N_16
REMARK    6  A    between atoms: N_16  and  C_17
REMARK    7  A    between atoms: C_18  and  C_25
REMARK    8  A    between atoms: C_22  and  C_24
REMARK    9  A    between atoms: C_25  and  C_27
REMARK   10  A    between atoms: C_28  and  C_30
REMARK                            x       y       z     vdW  Elec       q    Type
REMARK                         _______ _______ _______ _____ _____    ______ ____
ROOT
ATOM      1  C   UNL     1       2.608  -1.587   2.392  0.00  0.00    +0.042 A 
ATOM      2  C   UNL     1       3.076  -0.941   1.245  0.00  0.00    +0.027 A 
ATOM      3  C   UNL     1       4.175  -0.112   1.322  0.00  0.00    +0.025 A 
ATOM      4  C   UNL     1       4.816   0.082   2.539  0.00  0.00    +0.034 A 
ATOM      5  C   UNL     1       4.354  -0.558   3.683  0.00  0.00    +0.025 A 
ATOM      6  C   UNL     1       3.252  -1.384   3.615  0.00  0.00    +0.027 A 
ENDROOT
BRANCH   1  14
ATOM      7  C   UNL     1      -0.688   1.325   0.776  0.00  0.00    +0.086 C 
ATOM      8  C   UNL     1      -0.727  -0.171   0.956  0.00  0.00    +0.108 A 
ATOM      9  C   UNL     1      -1.916  -0.786   1.121  0.00  0.00    +0.087 A 
ATOM     10  C   UNL     1      -1.980  -2.174   1.347  0.00  0.00    +0.136 A 
ATOM     11  C   UNL     1      -0.773  -2.857   1.608  0.00  0.00    +0.118 A 
ATOM     12  C   UNL     1       0.451  -2.033   1.644  0.00  0.00    +0.213 A 
ATOM     13  O   UNL     1       0.424  -0.867   0.943  0.00  0.00    -0.444 OA
ATOM     14  N   UNL     1       1.518  -2.410   2.319  0.00  0.00    -0.325 N 
ATOM     15  H   UNL     1       1.530  -3.272   2.764  0.00  0.00    +0.169 HD
BRANCH  11  16
ATOM     16  C   UNL     1      -0.738  -4.252   1.824  0.00  0.00    +0.169 C 
ATOM     17  O   UNL     1      -1.775  -4.879   1.912  0.00  0.00    -0.292 OA
ATOM     18  C   UNL     1       0.585  -4.963   1.945  0.00  0.00    +0.092 C 
ENDBRANCH  11  16
BRANCH  10  19
ATOM     19  O   UNL     1      -3.159  -2.832   1.315  0.00  0.00    -0.506 OA
ATOM     20  H   UNL     1      -3.920  -2.265   1.127  0.00  0.00    +0.292 HD
ENDBRANCH  10  19
ENDBRANCH   1  14
BRANCH   4  21
ATOM     21  N   UNL     1       5.932   0.924   2.614  0.00  0.00    -0.285 N 
ATOM     22  H   UNL     1       6.215   1.425   1.833  0.00  0.00    +0.155 HD
BRANCH  21  23
ATOM     23  C   UNL     1       6.622   1.040   3.784  0.00  0.00    +0.205 A 
ATOM     24  C   UNL     1       7.982   0.710   3.830  0.00  0.00    +0.121 A 
ATOM     25  C   UNL     1       8.679   0.854   5.118  0.00  0.00    +0.197 A 
ATOM     26  O   UNL     1       9.864   0.585   5.230  0.00  0.00    -0.287 OA
ATOM     27  C   UNL     1       7.921   1.319   6.228  0.00  0.00    +0.093 A 
ATOM     28  C   UNL     1       6.620   1.606   6.065  0.00  0.00    +0.108 A 
ATOM     29  O   UNL     1       5.999   1.476   4.887  0.00  0.00    -0.445 OA
ATOM     30  C   UNL     1       5.831   2.098   7.251  0.00  0.00    +0.086 C 
BRANCH  24  31
ATOM     31  C   UNL     1       8.662   0.253   2.677  0.00  0.00    +0.169 C 
ATOM     32  O   UNL     1       8.108   0.272   1.597  0.00  0.00    -0.292 OA
ATOM     33  C   UNL     1      10.076  -0.258   2.790  0.00  0.00    +0.092 C 
ENDBRANCH  24  31
ENDBRANCH  21  23
ENDBRANCH   4  21
TORSDOF 6
