REMARK  Name = ZINC40985555
REMARK  10 active torsions:
REMARK  status: ('A' for Active; 'I' for Inactive)
REMARK    1  A    between atoms: C_1  and  C_2
REMARK    2  A    between atoms: C_2  and  C_3
REMARK    3  A    between atoms: C_6  and  C_9
REMARK    4  A    between atoms: C_9  and  C_11
REMARK    5  A    between atoms: C_9  and  N_25
REMARK    6  A    between atoms: C_11  and  N_12
REMARK    7  A    between atoms: C_13  and  C_15
REMARK    8  A    between atoms: C_18  and  S_22
REMARK    9  A    between atoms: S_22  and  C_23
REMARK   10  A    between atoms: C_23  and  C_24
REMARK                            x       y       z     vdW  Elec       q    Type
REMARK                         _______ _______ _______ _____ _____    ______ ____
ROOT
ATOM      1  C   UNL     1       2.679  -1.751  -4.527  0.00  0.00    -0.020 C 
ENDROOT
BRANCH   1   5
ATOM      2  C   UNL     1       0.527  -0.204  -1.178  0.00  0.00    -0.048 A 
ATOM      3  C   UNL     1      -0.145  -0.522  -2.343  0.00  0.00    +0.004 A 
ATOM      4  C   UNL     1       0.552  -1.023  -3.428  0.00  0.00    +0.002 A 
ATOM      5  C   UNL     1       1.920  -1.205  -3.346  0.00  0.00    -0.059 A 
ATOM      6  C   UNL     1       2.591  -0.886  -2.180  0.00  0.00    +0.002 A 
ATOM      7  C   UNL     1       1.895  -0.381  -1.098  0.00  0.00    +0.004 A 
BRANCH   2   9
ATOM      8  C   UNL     1      -0.288   1.868  -0.086  0.00  0.00    +0.009 C 
ATOM      9  C   UNL     1      -0.233   0.341   0.004  0.00  0.00    +0.032 C 
ENDBRANCH   2   9
ENDBRANCH   1   5
BRANCH   1  10
ATOM     10  N   UNL     1       3.701  -2.696  -4.058  0.00  0.00    +0.385 N 
ATOM     11  C   UNL     1       3.062  -3.828  -3.340  0.00  0.00    -0.078 C 
ATOM     12  C   UNL     1       4.130  -4.948  -3.420  0.00  0.00    -0.020 C 
ATOM     13  C   UNL     1       4.725  -4.756  -4.834  0.00  0.00    -0.020 C 
ATOM     14  C   UNL     1       4.408  -3.297  -5.210  0.00  0.00    -0.078 C 
ATOM     15  H   UNL     1       4.359  -2.226  -3.454  0.00  0.00    -0.081 HD
ENDBRANCH   1  10
BRANCH   1  16
ATOM     16  C   UNL     1       3.353  -0.601  -5.277  0.00  0.00    +0.094 C 
BRANCH  16  17
ATOM     17  N   UNL     1       2.329   0.272  -5.856  0.00  0.00    -0.312 N 
ATOM     18  C   UNL     1       2.688   1.415  -6.474  0.00  0.00    +0.248 C 
ATOM     19  O   UNL     1       3.862   1.721  -6.551  0.00  0.00    -0.270 OA
ATOM     20  H   UNL     1       1.392   0.028  -5.794  0.00  0.00    +0.149 HD
BRANCH  18  21
ATOM     21  C   UNL     1       1.657   2.293  -7.057  0.00  0.00    +0.092 A 
ATOM     22  C   UNL     1       0.298   1.961  -6.973  0.00  0.00    +0.129 A 
ATOM     23  N   UNL     1      -0.593   2.773  -7.506  0.00  0.00    -0.229 NA
ATOM     24  C   UNL     1      -0.219   3.892  -8.116  0.00  0.00    +0.190 A 
ATOM     25  N   UNL     1       1.056   4.243  -8.217  0.00  0.00    -0.209 NA
ATOM     26  C   UNL     1       2.010   3.487  -7.705  0.00  0.00    +0.146 A 
ATOM     27 CL   UNL     1       3.676   3.959  -7.836  0.00  0.00    -0.061 Cl
BRANCH  24  28
ATOM     28  S   UNL     1      -1.453   4.941  -8.812  0.00  0.00    -0.086 S 
BRANCH  28  29
ATOM     29  C   UNL     1      -0.508   6.316  -9.523  0.00  0.00    +0.074 C 
ATOM     30  C   UNL     1      -1.471   7.315 -10.169  0.00  0.00    +0.016 C 
ENDBRANCH  28  29
ENDBRANCH  24  28
ENDBRANCH  18  21
ENDBRANCH  16  17
ENDBRANCH   1  16
TORSDOF 8
