REMARK  Name = ZINC08156940
REMARK  6 active torsions:
REMARK  status: ('A' for Active; 'I' for Inactive)
REMARK    1  A    between atoms: C_1  and  C_2
REMARK    2  A    between atoms: C_2  and  C_4
REMARK    3  A    between atoms: C_2  and  N_52
REMARK    4  A    between atoms: C_12  and  C_13
REMARK    5  A    between atoms: C_12  and  N_52
REMARK    6  A    between atoms: N_15  and  C_16
REMARK                            x       y       z     vdW  Elec       q    Type
REMARK                         _______ _______ _______ _____ _____    ______ ____
ROOT
ATOM      1  C   UNL     1      -2.463  -0.220   0.505  0.00  0.00    +0.200 C 
ATOM      2  O   UNL     1      -1.476  -0.697   1.024  0.00  0.00    -0.278 OA
ATOM      3  N   UNL     1      -2.428   1.037   0.019  0.00  0.00    -0.287 N 
ATOM      4  H   UNL     1      -3.236   1.446  -0.326  0.00  0.00    +0.155 HD
ENDROOT
BRANCH   3   5
ATOM      5  C   UNL     1      -1.223   1.752   0.012  0.00  0.00    +0.037 A 
ATOM      6  C   UNL     1      -1.230   3.127   0.199  0.00  0.00    +0.027 A 
ATOM      7  C   UNL     1      -0.043   3.834   0.186  0.00  0.00    +0.051 A 
ATOM      8  C   UNL     1       1.158   3.172  -0.007  0.00  0.00    +0.167 A 
ATOM      9  C   UNL     1       1.170   1.791  -0.189  0.00  0.00    +0.169 A 
ATOM     10  C   UNL     1      -0.021   1.083  -0.177  0.00  0.00    +0.072 A 
ATOM     11  O   UNL     1       2.462   1.382  -0.357  0.00  0.00    -0.447 OA
ATOM     12  C   UNL     1       3.271   2.470   0.113  0.00  0.00    +0.254 C 
ATOM     13  O   UNL     1       2.445   3.631  -0.062  0.00  0.00    -0.448 OA
ATOM     14  C   UNL     1       4.538   2.590  -0.727  0.00  0.00    +0.093 C 
ATOM     15  C   UNL     1       5.389   1.329  -0.552  0.00  0.00    +0.008 C 
ATOM     16  C   UNL     1       5.750   1.161   0.925  0.00  0.00    +0.000 C 
ATOM     17  C   UNL     1       4.471   1.021   1.753  0.00  0.00    +0.008 C 
ATOM     18  C   UNL     1       3.616   2.280   1.585  0.00  0.00    +0.093 C 
ENDBRANCH   3   5
BRANCH   1  19
ATOM     19  C   UNL     1      -3.729  -1.031   0.405  0.00  0.00    +0.016 C 
BRANCH  19  20
ATOM     20  N   UNL     1      -3.502  -2.358   1.007  0.00  0.00    +0.389 N 
ATOM     21  H   UNL     1      -2.743  -2.833   0.504  0.00  0.00    -0.084 HD
ATOM     22  H   UNL     1      -3.239  -2.242   1.993  0.00  0.00    -0.084 HD
BRANCH  20  24
ATOM     23  C   UNL     1      -4.783  -3.872  -0.439  0.00  0.00    -0.009 C 
ATOM     24  C   UNL     1      -4.727  -3.176   0.923  0.00  0.00    -0.041 C 
BRANCH  24  25
ATOM     25  C   UNL     1      -4.706  -4.212   2.017  0.00  0.00    -0.026 A 
ATOM     26  C   UNL     1      -3.512  -4.554   2.622  0.00  0.00    +0.007 A 
ATOM     27  C   UNL     1      -3.492  -5.505   3.625  0.00  0.00    +0.039 A 
ATOM     28  C   UNL     1      -4.669  -6.115   4.025  0.00  0.00    +0.126 A 
ATOM     29  C   UNL     1      -5.865  -5.772   3.420  0.00  0.00    +0.076 A 
ATOM     30  C   UNL     1      -5.885  -4.816   2.419  0.00  0.00    +0.128 A 
ATOM     31  F   UNL     1      -7.053  -4.477   1.831  0.00  0.00    -0.205 F 
ATOM     32  F   UNL     1      -4.649  -7.044   5.006  0.00  0.00    -0.205 F 
ENDBRANCH  24  25
ENDBRANCH  20  24
ENDBRANCH  19  20
ENDBRANCH   1  19
TORSDOF 5
