REMARK  Name = ZINC39865524
REMARK  3 active torsions:
REMARK  status: ('A' for Active; 'I' for Inactive)
REMARK    1  A    between atoms: C_1  and  C_2
REMARK    2  A    between atoms: C_5  and  N_7
REMARK    3  A    between atoms: N_9  and  C_24
REMARK                            x       y       z     vdW  Elec       q    Type
REMARK                         _______ _______ _______ _____ _____    ______ ____
ROOT
ATOM      1  N   UNL     1      -1.125  -3.036   2.136  0.00  0.00    -0.199 NA
ATOM      2  C   UNL     1      -0.614  -4.238   1.981  0.00  0.00    +0.175 C 
ATOM      3  N   UNL     1      -0.085  -4.801   0.839  0.00  0.00    -0.214 N 
ATOM      4  C   UNL     1       0.393  -6.035   0.854  0.00  0.00    +0.264 C 
ATOM      5  O   UNL     1       0.864  -6.548  -0.142  0.00  0.00    -0.269 OA
ATOM      6  C   UNL     1       0.325  -6.761   2.148  0.00  0.00    +0.091 C 
ATOM      7  C   UNL     1       0.742  -8.044   2.458  0.00  0.00    +0.065 C 
ATOM      8  C   UNL     1       1.320  -9.047   1.540  0.00  0.00    +0.010 A 
ATOM      9  C   UNL     1       1.611  -9.040   0.179  0.00  0.00    +0.010 A 
ATOM     10  C   UNL     1       2.162 -10.160  -0.410  0.00  0.00    +0.001 A 
ATOM     11  C   UNL     1       2.422 -11.287   0.352  0.00  0.00    +0.002 A 
ATOM     12  C   UNL     1       2.137 -11.306   1.702  0.00  0.00    +0.024 A 
ATOM     13  C   UNL     1       1.583 -10.187   2.314  0.00  0.00    +0.042 A 
ATOM     14  N   UNL     1       1.206  -9.944   3.630  0.00  0.00    -0.281 N 
ATOM     15  C   UNL     1       0.712  -8.703   3.777  0.00  0.00    +0.250 C 
ATOM     16  O   UNL     1       0.308  -8.212   4.814  0.00  0.00    -0.270 OA
ATOM     17  S   UNL     1      -0.431  -5.530   3.199  0.00  0.00    -0.048 S 
ATOM     18  H   UNL     1       1.293 -10.587   4.351  0.00  0.00    +0.155 HD
ENDROOT
BRANCH   1  23
ATOM     19  C   UNL     1       0.992   0.454  -0.529  0.00  0.00    +0.066 C 
ATOM     20  C   UNL     1      -0.147  -0.477  -0.201  0.00  0.00    +0.048 A 
ATOM     21  C   UNL     1      -1.272  -0.469  -0.961  0.00  0.00    +0.071 A 
ATOM     22  S   UNL     1      -2.240  -1.727  -0.137  0.00  0.00    -0.056 S 
ATOM     23  C   UNL     1      -1.043  -2.129   1.130  0.00  0.00    +0.195 A 
ATOM     24  N   UNL     1      -0.050  -1.302   0.818  0.00  0.00    -0.226 NA
ENDBRANCH   1  23
BRANCH   3  25
ATOM     25  C   UNL     1      -0.053  -4.060  -0.349  0.00  0.00    +0.043 A 
ATOM     26  C   UNL     1       1.079  -3.328  -0.682  0.00  0.00    +0.024 A 
ATOM     27  C   UNL     1       1.108  -2.599  -1.854  0.00  0.00    +0.002 A 
ATOM     28  C   UNL     1       0.011  -2.597  -2.696  0.00  0.00    +0.000 A 
ATOM     29  C   UNL     1      -1.118  -3.325  -2.367  0.00  0.00    +0.002 A 
ATOM     30  C   UNL     1      -1.151  -4.061  -1.199  0.00  0.00    +0.024 A 
ENDBRANCH   3  25
TORSDOF 2
