REMARK  Name = ZINC51712538
REMARK  8 active torsions:
REMARK  status: ('A' for Active; 'I' for Inactive)
REMARK    1  A    between atoms: C_1  and  C_2
REMARK    2  A    between atoms: C_5  and  C_30
REMARK    3  A    between atoms: N_8  and  C_10
REMARK    4  A    between atoms: C_10  and  C_11
REMARK    5  A    between atoms: C_11  and  C_13
REMARK    6  A    between atoms: C_11  and  N_14
REMARK    7  A    between atoms: C_21  and  C_24
REMARK    8  A    between atoms: N_26  and  C_27
REMARK                            x       y       z     vdW  Elec       q    Type
REMARK                         _______ _______ _______ _____ _____    ______ ____
ROOT
ATOM      1  N   UNL     1       3.511  -2.495   0.951  0.00  0.00    -0.298 N 
ATOM      2  C   UNL     1       4.540  -1.852   0.365  0.00  0.00    +0.302 C 
ATOM      3  O   UNL     1       4.980  -0.832   0.859  0.00  0.00    -0.253 OA
ATOM      4  N   UNL     1       5.082  -2.339  -0.769  0.00  0.00    -0.285 N 
ATOM      5  C   UNL     1       6.276  -1.716  -1.356  0.00  0.00    +0.109 C 
ATOM      6  C   UNL     1       7.344  -2.795  -1.561  0.00  0.00    +0.020 C 
ATOM      7  C   UNL     1       6.757  -3.937  -2.393  0.00  0.00    +0.016 C 
ATOM      8  C   UNL     1       5.577  -4.562  -1.645  0.00  0.00    +0.092 C 
ATOM      9  C   UNL     1       4.492  -3.507  -1.438  0.00  0.00    +0.122 C 
ATOM     10  H   UNL     1       3.112  -3.266   0.519  0.00  0.00    +0.150 HD
ENDROOT
BRANCH   8  11
ATOM     11  C   UNL     1       5.021  -5.708  -2.451  0.00  0.00    +0.218 C 
ATOM     12  O   UNL     1       5.519  -5.997  -3.518  0.00  0.00    -0.275 OA
ATOM     13  N   UNL     1       3.970  -6.411  -1.984  0.00  0.00    -0.312 N 
ATOM     14  H   UNL     1       3.572  -6.180  -1.131  0.00  0.00    +0.149 HD
BRANCH  13  15
ATOM     15  C   UNL     1       3.429  -7.525  -2.767  0.00  0.00    +0.073 C 
ATOM     16  C   UNL     1       1.908  -7.635  -2.882  0.00  0.00    +0.024 C 
ATOM     17  C   UNL     1       2.682  -8.624  -2.009  0.00  0.00    +0.024 C 
ENDBRANCH  13  15
ENDBRANCH   8  11
BRANCH   1  18
ATOM     18  C   UNL     1       2.995  -2.029   2.240  0.00  0.00    +0.055 C 
ATOM     19  C   UNL     1       3.827  -2.636   3.372  0.00  0.00    +0.026 C 
BRANCH  18  20
ATOM     20  C   UNL     1       1.535  -2.462   2.392  0.00  0.00    -0.057 C 
BRANCH  20  26
ATOM     21  C   UNL     1      -0.019   1.526   0.017  0.00  0.00    +0.005 C 
ATOM     22  C   UNL     1       0.002  -0.003   0.007  0.00  0.00    -0.031 C 
ATOM     23  C   UNL     1      -1.435  -0.534   0.021  0.00  0.00    +0.003 C 
ATOM     24  C   UNL     1      -1.402  -2.064   0.091  0.00  0.00    -0.031 C 
ATOM     25  C   UNL     1      -0.612  -2.496   1.328  0.00  0.00    -0.076 C 
ATOM     26  N   UNL     1       0.759  -1.980   1.242  0.00  0.00    +0.381 N 
ATOM     27  C   UNL     1       0.741  -0.512   1.247  0.00  0.00    -0.076 C 
ATOM     28  C   UNL     1      -0.729  -2.618  -1.166  0.00  0.00    +0.005 C 
ATOM     29  H   UNL     1       1.188  -2.307   0.389  0.00  0.00    -0.082 HD
ENDBRANCH  20  26
ENDBRANCH  18  20
ENDBRANCH   1  18
TORSDOF 5
