REMARK  Name = ZINC20756091
REMARK  6 active torsions:
REMARK  status: ('A' for Active; 'I' for Inactive)
REMARK    1  A    between atoms: C_1  and  C_2
REMARK    2  A    between atoms: C_2  and  C_18
REMARK    3  A    between atoms: N_3  and  N_4
REMARK    4  A    between atoms: C_5  and  C_7
REMARK    5  A    between atoms: C_16  and  O_17
REMARK    6  A    between atoms: C_21  and  C_24
REMARK                            x       y       z     vdW  Elec       q    Type
REMARK                         _______ _______ _______ _____ _____    ______ ____
ROOT
ATOM      1  N   UNL     1      -3.679  -2.107   0.028  0.00  0.00    -0.203 N 
ATOM      2  C   UNL     1      -3.682  -0.759   0.035  0.00  0.00    +0.267 C 
ATOM      3  O   UNL     1      -4.737  -0.154   0.049  0.00  0.00    -0.268 OA
ATOM      4  H   UNL     1      -2.725  -2.655   0.016  0.00  0.00    +0.178 HD
ENDROOT
BRANCH   2   5
ATOM      5  C   UNL     1      -2.406  -0.019   0.026  0.00  0.00    +0.080 A 
ATOM      6  C   UNL     1      -1.207  -0.713   0.010  0.00  0.00    +0.025 A 
ATOM      7  C   UNL     1       0.002  -0.004   0.002  0.00  0.00    -0.017 A 
ATOM      8  C   UNL     1       1.238  -0.677  -0.013  0.00  0.00    +0.008 A 
ATOM      9  C   UNL     1       2.395   0.040  -0.021  0.00  0.00    +0.001 A 
ATOM     10  C   UNL     1       2.376   1.434  -0.013  0.00  0.00    +0.001 A 
ATOM     11  C   UNL     1       1.200   2.119   0.002  0.00  0.00    +0.008 A 
ATOM     12  C   UNL     1      -0.017   1.415   0.010  0.00  0.00    -0.014 A 
ATOM     13  C   UNL     1      -1.246   2.095   0.031  0.00  0.00    +0.054 A 
ATOM     14  C   UNL     1      -2.414   1.392   0.034  0.00  0.00    +0.130 A 
BRANCH  14  15
ATOM     15  O   UNL     1      -3.598   2.057   0.049  0.00  0.00    -0.506 OA
ATOM     16  H   UNL     1      -3.611   3.157   0.055  0.00  0.00    +0.292 HD
ENDBRANCH  14  15
ENDBRANCH   2   5
BRANCH   1  19
ATOM     17  C   UNL     1      -3.581  -4.859   0.013  0.00  0.00    +0.068 C 
ATOM     18  C   UNL     1      -4.888  -4.109   0.030  0.00  0.00    +0.063 C 
ATOM     19  N   UNL     1      -4.891  -2.810   0.037  0.00  0.00    -0.184 NA
BRANCH  18  20
ATOM     20  C   UNL     1      -6.162  -4.848   0.040  0.00  0.00    -0.002 A 
ATOM     21  C   UNL     1      -6.159  -6.247   0.027  0.00  0.00    +0.011 A 
ATOM     22  C   UNL     1      -7.340  -6.932   0.042  0.00  0.00    +0.019 A 
ATOM     23  C   UNL     1      -8.553  -6.236   0.057  0.00  0.00    +0.052 A 
ATOM     24  C   UNL     1      -8.556  -4.838   0.064  0.00  0.00    +0.019 A 
ATOM     25  C   UNL     1      -7.375  -4.152   0.055  0.00  0.00    +0.011 A 
BRANCH  23  26
ATOM     26  C   UNL     1      -9.791  -6.955   0.067  0.00  0.00    +0.099 C 
ATOM     27  N   UNL     1     -10.774  -7.525   0.075  0.00  0.00    -0.191 NA
ENDBRANCH  23  26
ENDBRANCH  18  20
ENDBRANCH   1  19
TORSDOF 5
