REMARK  Name = ZINC37063027
REMARK  4 active torsions:
REMARK  status: ('A' for Active; 'I' for Inactive)
REMARK    1  A    between atoms: C_3  and  S_9
REMARK    2  A    between atoms: C_4  and  N_8
REMARK    3  A    between atoms: S_9  and  N_12
REMARK    4  A    between atoms: N_12  and  C_13
REMARK                            x       y       z     vdW  Elec       q    Type
REMARK                         _______ _______ _______ _____ _____    ______ ____
ROOT
ATOM      1  S   UNL     1       3.788   2.336   0.076  0.00  0.00    +0.060 S 
ATOM      2  O   UNL     1       4.602   1.748  -0.930  0.00  0.00    -0.153 OA
ATOM      3  O   UNL     1       3.317   3.673  -0.011  0.00  0.00    -0.153 OA
ENDROOT
BRANCH   1   6
ATOM      4  C   UNL     1       1.095  -0.598  -0.461  0.00  0.00    +0.017 A 
ATOM      5  C   UNL     1       2.211   0.208  -0.585  0.00  0.00    +0.031 A 
ATOM      6  C   UNL     1       2.364   1.310   0.234  0.00  0.00    +0.126 A 
ATOM      7  C   UNL     1       1.395   1.607   1.184  0.00  0.00    +0.052 A 
ATOM      8  C   UNL     1       0.274   0.796   1.306  0.00  0.00    +0.040 A 
ATOM      9  C   UNL     1       0.127  -0.305   0.484  0.00  0.00    +0.020 A 
ATOM     10 BR   UNL     1      -1.398  -1.411   0.649  0.00  0.00    -0.050 Br
BRANCH   7  11
ATOM     11  N   UNL     1       1.547   2.720   2.014  0.00  0.00    -0.356 N 
ATOM     12  H   UNL     1       2.301   3.318   1.890  0.00  0.00    +0.142 HD
ATOM     13  H   UNL     1       0.900   2.895   2.715  0.00  0.00    +0.142 HD
ENDBRANCH   7  11
ENDBRANCH   1   6
BRANCH   1  14
ATOM     14  N   UNL     1       4.633   2.223   1.495  0.00  0.00    -0.188 NA
ATOM     15  H   UNL     1       4.725   3.001   2.068  0.00  0.00    +0.148 HD
BRANCH  14  16
ATOM     16  C   UNL     1       5.242   0.949   1.886  0.00  0.00    +0.063 C 
ATOM     17  C   UNL     1       6.714   0.935   1.470  0.00  0.00    -0.058 C 
ATOM     18  N   UNL     1       7.567   0.770   2.649  0.00  0.00    +0.381 N 
ATOM     19  C   UNL     1       7.287  -0.504   3.314  0.00  0.00    -0.078 C 
ATOM     20  C   UNL     1       5.834  -0.538   3.792  0.00  0.00    -0.014 C 
ATOM     21  C   UNL     1       5.153   0.783   3.409  0.00  0.00    +0.002 C 
ATOM     22  C   UNL     1       5.929   1.932   4.067  0.00  0.00    -0.014 C 
ATOM     23  C   UNL     1       7.385   1.888   3.578  0.00  0.00    -0.078 C 
ATOM     24  H   UNL     1       8.530   0.760   2.348  0.00  0.00    -0.082 HD
ENDBRANCH  14  16
ENDBRANCH   1  14
TORSDOF 4
