REMARK  Name = ZINC36534483
REMARK  9 active torsions:
REMARK  status: ('A' for Active; 'I' for Inactive)
REMARK    1  A    between atoms: C_1  and  N_2
REMARK    2  A    between atoms: N_2  and  C_3
REMARK    3  A    between atoms: C_3  and  C_5
REMARK    4  A    between atoms: C_3  and  C_13
REMARK    5  A    between atoms: C_8  and  O_11
REMARK    6  A    between atoms: O_11  and  C_12
REMARK    7  A    between atoms: N_15  and  C_16
REMARK    8  A    between atoms: C_22  and  C_24
REMARK    9  A    between atoms: C_24  and  C_25
REMARK                            x       y       z     vdW  Elec       q    Type
REMARK                         _______ _______ _______ _____ _____    ______ ____
ROOT
ATOM      1  C   UNL     1       0.135  -0.742   1.261  0.00  0.00    +0.192 C 
ENDROOT
BRANCH   1   2
ATOM      2  C   UNL     1       1.368  -0.274   1.989  0.00  0.00    -0.018 A 
ATOM      3  C   UNL     1       2.425  -1.144   2.186  0.00  0.00    +0.009 A 
ATOM      4  C   UNL     1       3.557  -0.718   2.854  0.00  0.00    +0.046 A 
ATOM      5  C   UNL     1       3.632   0.583   3.327  0.00  0.00    +0.120 A 
ATOM      6  C   UNL     1       2.571   1.454   3.128  0.00  0.00    +0.046 A 
ATOM      7  C   UNL     1       1.444   1.025   2.455  0.00  0.00    +0.009 A 
BRANCH   5   8
ATOM      8  O   UNL     1       4.745   1.005   3.985  0.00  0.00    -0.495 OA
ATOM      9  C   UNL     1       4.753   2.358   4.445  0.00  0.00    +0.277 C 
ENDBRANCH   5   8
ENDBRANCH   1   2
BRANCH   1  11
ATOM     10  C   UNL     1      -0.489   1.584   0.460  0.00  0.00    +0.133 C 
ATOM     11  N   UNL     1      -0.167   0.185   0.167  0.00  0.00    -0.289 N 
ATOM     12  C   UNL     1      -0.148  -0.250  -1.109  0.00  0.00    +0.221 C 
ATOM     13  O   UNL     1       0.119  -1.408  -1.351  0.00  0.00    -0.275 OA
BRANCH  12  14
ATOM     14  C   UNL     1      -0.458   0.704  -2.234  0.00  0.00    +0.131 C 
BRANCH  14  15
ATOM     15  C   UNL     1      -0.369  -0.026  -3.550  0.00  0.00    -0.035 A 
ATOM     16  C   UNL     1       0.835  -0.081  -4.228  0.00  0.00    +0.008 A 
ATOM     17  C   UNL     1       0.921  -0.750  -5.435  0.00  0.00    +0.050 A 
ATOM     18  C   UNL     1      -0.199  -1.367  -5.968  0.00  0.00    +0.166 A 
ATOM     19  C   UNL     1      -1.411  -1.312  -5.284  0.00  0.00    +0.166 A 
ATOM     20  C   UNL     1      -1.489  -0.645  -4.072  0.00  0.00    +0.053 A 
ATOM     21  O   UNL     1      -2.351  -1.988  -6.007  0.00  0.00    -0.453 OA
ATOM     22  C   UNL     1      -1.803  -2.107  -7.333  0.00  0.00    +0.466 C 
ATOM     23  O   UNL     1      -0.379  -2.078  -7.119  0.00  0.00    -0.453 OA
ENDBRANCH  14  15
ENDBRANCH  12  14
ENDBRANCH   1  11
BRANCH   1  24
ATOM     24  C   UNL     1      -1.028  -0.784   2.218  0.00  0.00    +0.238 C 
ATOM     25  O   UNL     1      -2.012  -0.107   2.007  0.00  0.00    -0.273 OA
ATOM     26  N   UNL     1      -0.975  -1.575   3.308  0.00  0.00    -0.311 N 
ATOM     27  H   UNL     1      -0.188  -2.116   3.477  0.00  0.00    +0.149 HD
BRANCH  26  28
ATOM     28  C   UNL     1      -2.106  -1.616   4.239  0.00  0.00    +0.073 C 
ATOM     29  C   UNL     1      -1.981  -0.469   5.245  0.00  0.00    +0.022 C 
ATOM     30  C   UNL     1      -3.162  -0.512   6.217  0.00  0.00    +0.002 C 
ATOM     31  C   UNL     1      -3.159  -1.848   6.963  0.00  0.00    +0.000 C 
ATOM     32  C   UNL     1      -3.285  -2.994   5.957  0.00  0.00    +0.002 C 
ATOM     33  C   UNL     1      -2.104  -2.951   4.986  0.00  0.00    +0.022 C 
ENDBRANCH  26  28
ENDBRANCH   1  24
TORSDOF 7
