REMARK  Name = ZINC20694582
REMARK  10 active torsions:
REMARK  status: ('A' for Active; 'I' for Inactive)
REMARK    1  A    between atoms: C_1  and  C_2
REMARK    2  A    between atoms: C_2  and  C_3
REMARK    3  A    between atoms: C_3  and  C_5
REMARK    4  A    between atoms: C_3  and  N_6
REMARK    5  A    between atoms: N_6  and  S_7
REMARK    6  A    between atoms: S_7  and  C_10
REMARK    7  A    between atoms: C_23  and  C_26
REMARK    8  A    between atoms: C_30  and  O_33
REMARK    9  A    between atoms: C_31  and  O_32
REMARK   10  A    between atoms: O_33  and  C_34
REMARK                            x       y       z     vdW  Elec       q    Type
REMARK                         _______ _______ _______ _____ _____    ______ ____
ROOT
ATOM      1  C   UNL     1      -5.757   7.918   0.681  0.00  0.00    +0.106 A 
ATOM      2  C   UNL     1      -4.890   8.210  -0.356  0.00  0.00    +0.030 A 
ATOM      3  C   UNL     1      -3.833   7.362  -0.623  0.00  0.00    +0.025 A 
ATOM      4  C   UNL     1      -3.644   6.222   0.149  0.00  0.00    +0.031 A 
ATOM      5  C   UNL     1      -4.509   5.928   1.192  0.00  0.00    -0.018 A 
ATOM      6  C   UNL     1      -5.569   6.787   1.449  0.00  0.00    +0.034 A 
ATOM      7  C   UNL     1      -4.340   4.718   2.055  0.00  0.00    +0.049 C 
ATOM      8  C   UNL     1      -5.354   3.652   1.716  0.00  0.00    -0.023 C 
ATOM      9  C   UNL     1      -4.817   2.462   1.829  0.00  0.00    -0.030 C 
ATOM     10  C   UNL     1      -3.369   2.573   2.267  0.00  0.00    +0.033 C 
ATOM     11  C   UNL     1      -2.979   4.023   1.856  0.00  0.00    +0.029 C 
ATOM     12  C   UNL     1      -2.620   3.995   0.368  0.00  0.00    +0.109 C 
ATOM     13  N   UNL     1      -2.570   5.372  -0.135  0.00  0.00    -0.336 N 
ATOM     14  H   UNL     1      -1.703   5.712  -0.720  0.00  0.00    +0.147 HD
ENDROOT
BRANCH  12  15
ATOM     15  C   UNL     1      -1.275   3.341   0.185  0.00  0.00    +0.018 A 
ATOM     16  C   UNL     1      -1.192   2.060  -0.328  0.00  0.00    +0.009 A 
ATOM     17  C   UNL     1       0.041   1.458  -0.496  0.00  0.00    +0.004 A 
ATOM     18  C   UNL     1       1.197   2.135  -0.152  0.00  0.00    +0.049 A 
ATOM     19  C   UNL     1       1.121   3.418   0.363  0.00  0.00    +0.162 A 
ATOM     20  C   UNL     1      -0.121   4.022   0.538  0.00  0.00    +0.163 A 
BRANCH  20  21
ATOM     21  O   UNL     1      -0.201   5.280   1.048  0.00  0.00    -0.503 OA
ATOM     22  H   UNL     1       0.716   5.820   1.328  0.00  0.00    +0.292 HD
ENDBRANCH  20  21
BRANCH  19  23
ATOM     23  O   UNL     1       2.257   4.085   0.702  0.00  0.00    -0.491 OA
ATOM     24  C   UNL     1       3.495   3.401   0.500  0.00  0.00    +0.277 C 
ENDBRANCH  19  23
ENDBRANCH  12  15
BRANCH   1  25
ATOM     25  S   UNL     1      -7.108   8.996   1.024  0.00  0.00    +0.059 S 
ATOM     26  O   UNL     1      -7.454   8.793   2.387  0.00  0.00    -0.153 OA
ATOM     27  O   UNL     1      -6.750  10.272   0.510  0.00  0.00    -0.153 OA
BRANCH  25  28
ATOM     28  N   UNL     1      -8.395   8.469   0.125  0.00  0.00    -0.187 NA
ATOM     29  H   UNL     1      -8.691   9.032  -0.772  0.00  0.00    +0.148 HD
BRANCH  28  30
ATOM     30  C   UNL     1      -8.988   7.156   0.395  0.00  0.00    +0.073 C 
ATOM     31  C   UNL     1     -10.182   7.320   1.337  0.00  0.00    +0.025 C 
BRANCH  30  33
ATOM     32  C   UNL     1      -8.248   6.251  -1.813  0.00  0.00    +0.005 C 
ATOM     33  C   UNL     1      -9.458   6.529  -0.920  0.00  0.00    +0.017 C 
ENDBRANCH  30  33
ENDBRANCH  28  30
ENDBRANCH  25  28
ENDBRANCH   1  25
TORSDOF 7
