REMARK  Name = ZINC39686677
REMARK  13 active torsions:
REMARK  status: ('A' for Active; 'I' for Inactive)
REMARK    1  A    between atoms: C_1  and  C_2
REMARK    2  A    between atoms: C_2  and  C_3
REMARK    3  A    between atoms: C_3  and  C_4
REMARK    4  A    between atoms: C_4  and  C_5
REMARK    5  A    between atoms: C_5  and  C_7
REMARK    6  A    between atoms: C_5  and  C_8
REMARK    7  A    between atoms: C_12  and  C_21
REMARK    8  A    between atoms: N_23  and  C_24
REMARK    9  A    between atoms: C_24  and  C_26
REMARK   10  A    between atoms: C_24  and  C_27
REMARK   11  A    between atoms: C_27  and  C_28
REMARK   12  A    between atoms: C_33  and  O_34
REMARK   13  A    between atoms: O_34  and  C_35
REMARK                            x       y       z     vdW  Elec       q    Type
REMARK                         _______ _______ _______ _____ _____    ______ ____
ROOT
ATOM      1  C   UNL     1      -2.038  -3.579  -1.028  0.00  0.00    +0.218 C 
ATOM      2  O   UNL     1      -1.040  -4.255  -1.158  0.00  0.00    -0.275 OA
ATOM      3  N   UNL     1      -3.203  -4.158  -0.675  0.00  0.00    -0.300 N 
ATOM      4  C   UNL     1      -4.499  -3.495  -0.397  0.00  0.00    +0.121 C 
ATOM      5  C   UNL     1      -5.558  -4.431  -1.022  0.00  0.00    +0.100 C 
ATOM      6  C   UNL     1      -4.881  -5.812  -1.070  0.00  0.00    -0.004 C 
ATOM      7  C   UNL     1      -3.478  -5.602  -0.483  0.00  0.00    +0.115 C 
ATOM      8  C   UNL     1      -4.776  -6.299  -2.512  0.00  0.00    -0.010 C 
ATOM      9  C   UNL     1      -4.153  -7.697  -2.529  0.00  0.00    -0.082 C 
ATOM     10  N   UNL     1      -4.984  -8.615  -1.741  0.00  0.00    +0.379 N 
ATOM     11  C   UNL     1      -5.005  -8.191  -0.336  0.00  0.00    -0.082 C 
ATOM     12  C   UNL     1      -5.664  -6.813  -0.226  0.00  0.00    -0.010 C 
ATOM     13  H   UNL     1      -5.925  -8.612  -2.105  0.00  0.00    -0.086 HD
ATOM     14  H   UNL     1      -4.605  -9.548  -1.804  0.00  0.00    -0.086 HD
ENDROOT
BRANCH   5  15
ATOM     15  C   UNL     1      -5.911  -3.969  -2.412  0.00  0.00    +0.218 C 
ATOM     16  O   UNL     1      -5.080  -3.408  -3.094  0.00  0.00    -0.275 OA
ATOM     17  N   UNL     1      -7.151  -4.179  -2.897  0.00  0.00    -0.312 N 
ATOM     18  H   UNL     1      -7.839  -4.553  -2.324  0.00  0.00    +0.149 HD
BRANCH  17  19
ATOM     19  C   UNL     1      -7.460  -3.843  -4.289  0.00  0.00    +0.074 C 
ATOM     20  C   UNL     1      -7.079  -5.017  -5.193  0.00  0.00    +0.028 C 
BRANCH  19  21
ATOM     21  C   UNL     1      -8.958  -3.561  -4.425  0.00  0.00    +0.060 C 
BRANCH  21  22
ATOM     22  C   UNL     1      -9.322  -2.366  -3.581  0.00  0.00    -0.004 A 
ATOM     23  C   UNL     1      -9.873  -2.547  -2.327  0.00  0.00    +0.007 A 
ATOM     24  C   UNL     1     -10.207  -1.452  -1.553  0.00  0.00    +0.000 A 
ATOM     25  C   UNL     1      -9.992  -0.172  -2.032  0.00  0.00    +0.004 A 
ATOM     26  C   UNL     1      -9.441   0.014  -3.284  0.00  0.00    +0.046 A 
ATOM     27  C   UNL     1      -9.099  -1.084  -4.061  0.00  0.00    +0.123 A 
BRANCH  27  28
ATOM     28  O   UNL     1      -8.552  -0.903  -5.292  0.00  0.00    -0.495 OA
ATOM     29  C   UNL     1      -8.351   0.445  -5.721  0.00  0.00    +0.277 C 
ENDBRANCH  27  28
ENDBRANCH  21  22
ENDBRANCH  19  21
ENDBRANCH  17  19
ENDBRANCH   5  15
BRANCH   1  30
ATOM     30  C   UNL     1      -1.976  -2.091  -1.261  0.00  0.00    +0.072 C 
ATOM     31  C   UNL     1      -1.849  -1.369   0.082  0.00  0.00    +0.017 C 
BRANCH  30  32
ATOM     32  C   UNL     1      -0.764  -1.762  -2.134  0.00  0.00    +0.012 C 
BRANCH  32  33
ATOM     33  C   UNL     1      -0.749  -0.263  -2.442  0.00  0.00    +0.000 C 
BRANCH  33  35
ATOM     34  C   UNL     1       0.505   1.573  -3.581  0.00  0.00    +0.004 C 
ATOM     35  C   UNL     1       0.490   0.074  -3.274  0.00  0.00    -0.003 C 
ENDBRANCH  33  35
ENDBRANCH  32  33
ENDBRANCH  30  32
ENDBRANCH   1  30
TORSDOF 9
