REMARK  Name = ZINC33139521
REMARK  9 active torsions:
REMARK  status: ('A' for Active; 'I' for Inactive)
REMARK    1  A    between atoms: C_1  and  C_2
REMARK    2  A    between atoms: C_2  and  C_3
REMARK    3  A    between atoms: C_3  and  N_4
REMARK    4  A    between atoms: C_5  and  C_7
REMARK    5  A    between atoms: C_10  and  O_13
REMARK    6  A    between atoms: O_13  and  C_14
REMARK    7  A    between atoms: C_17  and  N_20
REMARK    8  A    between atoms: N_20  and  S_21
REMARK    9  A    between atoms: S_21  and  C_24
REMARK                            x       y       z     vdW  Elec       q    Type
REMARK                         _______ _______ _______ _____ _____    ______ ____
ROOT
ATOM      1  C   UNL     1      -3.617   3.753   0.462  0.00  0.00    +0.221 A 
ATOM      2  C   UNL     1      -2.483   4.191   1.134  0.00  0.00    +0.069 A 
ATOM      3  C   UNL     1      -1.292   3.508   0.963  0.00  0.00    +0.031 A 
ATOM      4  C   UNL     1      -1.277   2.400   0.118  0.00  0.00    +0.066 A 
ATOM      5  C   UNL     1      -2.448   2.025  -0.524  0.00  0.00    +0.139 A 
ATOM      6  N   UNL     1      -3.567   2.697  -0.333  0.00  0.00    -0.219 NA
ENDROOT
BRANCH   4   7
ATOM      7  N   UNL     1      -0.095   1.679  -0.086  0.00  0.00    -0.215 N 
ATOM      8  H   UNL     1       0.849   2.212  -0.273  0.00  0.00    +0.174 HD
BRANCH   7   9
ATOM      9  S   UNL     1      -0.117   0.024  -0.044  0.00  0.00    +0.072 S 
ATOM     10  O   UNL     1      -1.159  -0.390  -0.917  0.00  0.00    -0.150 OA
ATOM     11  O   UNL     1       1.228  -0.405  -0.207  0.00  0.00    -0.150 OA
BRANCH   9  12
ATOM     12  C   UNL     1      -0.604  -0.450   1.581  0.00  0.00    +0.109 A 
ATOM     13  C   UNL     1       0.339  -0.545   2.588  0.00  0.00    +0.029 A 
ATOM     14  C   UNL     1      -0.050  -0.914   3.859  0.00  0.00    +0.006 A 
ATOM     15  C   UNL     1      -1.381  -1.201   4.134  0.00  0.00    -0.044 A 
ATOM     16  C   UNL     1      -2.320  -1.109   3.131  0.00  0.00    -0.042 A 
ATOM     17  C   UNL     1      -1.926  -0.733   1.853  0.00  0.00    +0.032 A 
ATOM     18  C   UNL     1      -3.781  -1.396   3.360  0.00  0.00    +0.035 C 
ATOM     19  C   UNL     1      -3.977  -2.191   4.649  0.00  0.00    +0.005 C 
ATOM     20  C   UNL     1      -3.236  -1.468   5.780  0.00  0.00    +0.005 C 
ATOM     21  C   UNL     1      -1.734  -1.611   5.540  0.00  0.00    +0.035 C 
ENDBRANCH   9  12
ENDBRANCH   7   9
ENDBRANCH   4   7
BRANCH   1  22
ATOM     22  O   UNL     1      -4.790   4.416   0.623  0.00  0.00    -0.438 OA
BRANCH  22  26
ATOM     23  C   UNL     1      -8.020   3.223  -1.654  0.00  0.00    +0.037 A 
ATOM     24  C   UNL     1      -7.616   2.459  -0.556  0.00  0.00    +0.016 A 
ATOM     25  C   UNL     1      -6.538   2.860   0.201  0.00  0.00    +0.047 A 
ATOM     26  C   UNL     1      -5.852   4.024  -0.125  0.00  0.00    +0.130 A 
ATOM     27  C   UNL     1      -6.254   4.790  -1.213  0.00  0.00    +0.047 A 
ATOM     28  C   UNL     1      -7.327   4.393  -1.979  0.00  0.00    +0.016 A 
BRANCH  23  30
ATOM     29  N   UNL     1      -9.562   3.535  -3.527  0.00  0.00    -0.311 N 
ATOM     30  C   UNL     1      -9.174   2.796  -2.469  0.00  0.00    +0.244 C 
ATOM     31  O   UNL     1      -9.775   1.778  -2.185  0.00  0.00    -0.270 OA
ATOM     32  H   UNL     1      -9.018   4.456  -3.784  0.00  0.00    +0.149 HD
BRANCH  29  33
ATOM     33  C   UNL     1     -10.707   3.111  -4.336  0.00  0.00    +0.104 C 
BRANCH  33  35
ATOM     34  C   UNL     1     -12.131   3.675  -6.311  0.00  0.00    +0.005 C 
ATOM     35  C   UNL     1     -10.934   4.117  -5.466  0.00  0.00    +0.015 C 
ENDBRANCH  33  35
ENDBRANCH  29  33
ENDBRANCH  23  30
ENDBRANCH  22  26
ENDBRANCH   1  22
TORSDOF 8
