REMARK  Name = ZINC37180415
REMARK  5 active torsions:
REMARK  status: ('A' for Active; 'I' for Inactive)
REMARK    1  A    between atoms: C_1  and  C_2
REMARK    2  A    between atoms: C_2  and  C_3
REMARK    3  A    between atoms: C_2  and  C_12
REMARK    4  A    between atoms: C_2  and  N_15
REMARK    5  A    between atoms: N_15  and  C_16
REMARK                            x       y       z     vdW  Elec       q    Type
REMARK                         _______ _______ _______ _____ _____    ______ ____
ROOT
ATOM      1  C   UNL     1       0.420   1.185  -0.436  0.00  0.00    +0.006 C 
ATOM      2  C   UNL     1       0.144  -0.268  -0.044  0.00  0.00    +0.058 C 
ENDROOT
BRANCH   2   3
ATOM      3  C   UNL     1       0.593  -0.499   1.375  0.00  0.00    -0.044 A 
ATOM      4  C   UNL     1      -0.320  -0.911   2.329  0.00  0.00    +0.006 A 
ATOM      5  C   UNL     1       0.087  -1.125   3.633  0.00  0.00    +0.050 A 
ATOM      6  C   UNL     1       1.411  -0.927   3.987  0.00  0.00    +0.166 A 
ATOM      7  C   UNL     1       2.331  -0.513   3.026  0.00  0.00    +0.166 A 
ATOM      8  C   UNL     1       1.917  -0.306   1.721  0.00  0.00    +0.052 A 
ATOM      9  O   UNL     1       3.555  -0.391   3.618  0.00  0.00    -0.453 OA
ATOM     10  C   UNL     1       3.294  -0.340   5.034  0.00  0.00    +0.466 C 
ATOM     11  O   UNL     1       2.059  -1.065   5.180  0.00  0.00    -0.453 OA
ENDBRANCH   2   3
BRANCH   2  12
ATOM     12  N   UNL     1      -1.296  -0.539  -0.153  0.00  0.00    +0.391 N 
ATOM     13  C   UNL     1      -1.760  -0.184  -1.501  0.00  0.00    -0.098 C 
ATOM     14  H   UNL     1      -1.467  -1.519   0.014  0.00  0.00    -0.084 HD
ATOM     15  H   UNL     1      -1.794   0.011   0.530  0.00  0.00    -0.084 HD
ENDBRANCH   2  12
BRANCH   2  16
ATOM     16  C   UNL     1       0.900  -1.189  -0.967  0.00  0.00    +0.349 C 
ATOM     17  O   UNL     1       2.100  -1.042  -1.126  0.00  0.00    -0.248 OA
ATOM     18  O   UNL     1       0.312  -2.081  -1.554  0.00  0.00    -0.248 OA
ENDBRANCH   2  16
TORSDOF 3
