REMARK  Name = ZINC43763903
REMARK  15 active torsions:
REMARK  status: ('A' for Active; 'I' for Inactive)
REMARK    1  A    between atoms: C_1  and  C_2
REMARK    2  A    between atoms: C_2  and  C_3
REMARK    3  A    between atoms: C_2  and  C_4
REMARK    4  A    between atoms: C_6  and  C_31
REMARK    5  A    between atoms: C_7  and  C_13
REMARK    6  A    between atoms: C_8  and  C_10
REMARK    7  A    between atoms: C_10  and  C_11
REMARK    8  A    between atoms: C_10  and  C_12
REMARK    9  A    between atoms: C_13  and  N_14
REMARK   10  A    between atoms: N_14  and  C_15
REMARK   11  A    between atoms: C_20  and  N_21
REMARK   12  A    between atoms: S_22  and  C_24
REMARK   13  A    between atoms: S_22  and  C_25
REMARK   14  A    between atoms: C_31  and  C_32
REMARK   15  A    between atoms: C_31  and  C_33
REMARK                            x       y       z     vdW  Elec       q    Type
REMARK                         _______ _______ _______ _____ _____    ______ ____
ROOT
ATOM      1  N   UNL     1      -6.327  -1.380  -0.732  0.00  0.00    -0.338 N 
ATOM      2  H   UNL     1      -5.870  -0.724  -1.282  0.00  0.00    +0.146 HD
ENDROOT
BRANCH   1   3
ATOM      3  C   UNL     1      -7.698  -1.313  -0.571  0.00  0.00    +0.054 A 
ATOM      4  C   UNL     1      -8.364  -2.241   0.218  0.00  0.00    +0.025 A 
ATOM      5  C   UNL     1      -9.734  -2.162   0.372  0.00  0.00    +0.002 A 
ATOM      6  C   UNL     1     -10.478  -1.165  -0.252  0.00  0.00    +0.002 A 
ATOM      7  C   UNL     1      -9.884  -0.227  -1.037  0.00  0.00    +0.030 A 
ATOM      8  C   UNL     1      -8.479  -0.253  -1.226  0.00  0.00    +0.095 A 
BRANCH   8   9
ATOM      9  N   UNL     1      -7.882   0.655  -1.982  0.00  0.00    -0.193 NA
ATOM     10  S   UNL     1      -8.497   1.067  -3.280  0.00  0.00    +0.078 S 
ATOM     11  O   UNL     1      -9.617   0.230  -3.534  0.00  0.00    -0.243 OA
ATOM     12  C   UNL     1      -8.904   2.832  -3.190  0.00  0.00    +0.138 C 
BRANCH  10  13
ATOM     13  C   UNL     1      -7.317   0.829  -4.567  0.00  0.00    +0.048 A 
ATOM     14  C   UNL     1      -6.420   1.834  -4.876  0.00  0.00    +0.018 A 
ATOM     15  C   UNL     1      -5.494   1.648  -5.886  0.00  0.00    +0.001 A 
ATOM     16  C   UNL     1      -5.467   0.457  -6.587  0.00  0.00    +0.000 A 
ATOM     17  C   UNL     1      -6.364  -0.549  -6.278  0.00  0.00    +0.001 A 
ATOM     18  C   UNL     1      -7.286  -0.364  -5.265  0.00  0.00    +0.018 A 
ENDBRANCH  10  13
ENDBRANCH   8   9
ENDBRANCH   1   3
BRANCH   1  19
ATOM     19  C   UNL     1      -5.563  -2.442  -0.072  0.00  0.00    +0.137 C 
BRANCH  19  23
ATOM     20  C   UNL     1      -1.419  -2.017  -1.021  0.00  0.00    -0.044 A 
ATOM     21  C   UNL     1      -1.936  -1.407   0.107  0.00  0.00    +0.008 A 
ATOM     22  C   UNL     1      -3.277  -1.544   0.413  0.00  0.00    -0.040 A 
ATOM     23  C   UNL     1      -4.101  -2.291  -0.407  0.00  0.00    -0.024 A 
ATOM     24  C   UNL     1      -3.584  -2.901  -1.536  0.00  0.00    -0.040 A 
ATOM     25  C   UNL     1      -2.244  -2.760  -1.845  0.00  0.00    +0.008 A 
BRANCH  20  27
ATOM     26  C   UNL     1       0.373  -0.386  -1.546  0.00  0.00    +0.012 C 
ATOM     27  C   UNL     1       0.043  -1.867  -1.355  0.00  0.00    +0.013 C 
ATOM     28  C   UNL     1       0.888  -2.436  -0.213  0.00  0.00    +0.012 C 
ENDBRANCH  20  27
BRANCH  24  29
ATOM     29  C   UNL     1      -4.482  -3.716  -2.430  0.00  0.00    +0.013 C 
ATOM     30  C   UNL     1      -4.382  -3.193  -3.865  0.00  0.00    +0.012 C 
ATOM     31  C   UNL     1      -4.048  -5.182  -2.390  0.00  0.00    +0.012 C 
ENDBRANCH  24  29
BRANCH  22  32
ATOM     32  C   UNL     1      -3.841  -0.880   1.643  0.00  0.00    +0.013 C 
ATOM     33  C   UNL     1      -3.211  -1.501   2.892  0.00  0.00    +0.012 C 
ATOM     34  C   UNL     1      -3.526   0.617   1.604  0.00  0.00    +0.012 C 
ENDBRANCH  22  32
ENDBRANCH  19  23
ENDBRANCH   1  19
TORSDOF 8
