REMARK  Name = ZINC00959791
REMARK  7 active torsions:
REMARK  status: ('A' for Active; 'I' for Inactive)
REMARK    1  A    between atoms: C_1  and  C_2
REMARK    2  A    between atoms: C_2  and  C_36
REMARK    3  A    between atoms: C_6  and  C_24
REMARK    4  A    between atoms: C_12  and  S_16
REMARK    5  A    between atoms: S_16  and  C_17
REMARK    6  A    between atoms: C_17  and  C_18
REMARK    7  A    between atoms: C_29  and  N_30
REMARK                            x       y       z     vdW  Elec       q    Type
REMARK                         _______ _______ _______ _____ _____    ______ ____
ROOT
ATOM      1  C   UNL     1       0.828   2.616  -0.756  0.00  0.00    +0.011 C 
ATOM      2  C   UNL     1       0.519   1.126  -0.601  0.00  0.00    -0.023 C 
ATOM      3  C   UNL     1       1.193   0.340  -1.727  0.00  0.00    +0.058 C 
ATOM      4  C   UNL     1       2.690   0.520  -1.647  0.00  0.00    +0.017 C 
ATOM      5  C   UNL     1       3.305   0.711  -0.461  0.00  0.00    +0.024 C 
ATOM      6  C   UNL     1       4.801   0.877  -0.369  0.00  0.00    +0.095 C 
ATOM      7  C   UNL     1       5.394   1.228  -1.700  0.00  0.00    +0.071 A 
ATOM      8  C   UNL     1       6.673   1.767  -1.786  0.00  0.00    +0.280 A 
ATOM      9  O   UNL     1       7.404   1.989  -0.667  0.00  0.00    -0.265 OA
ATOM     10  N   UNL     1       7.167   2.062  -2.985  0.00  0.00    -0.183 NA
ATOM     11  C   UNL     1       6.458   1.849  -4.085  0.00  0.00    +0.194 A 
ATOM     12  N   UNL     1       5.236   1.336  -4.038  0.00  0.00    -0.206 NA
ATOM     13  C   UNL     1       4.681   1.019  -2.873  0.00  0.00    +0.135 A 
ATOM     14  N   UNL     1       3.404   0.488  -2.814  0.00  0.00    -0.302 N 
ATOM     15  C   UNL     1       2.567   0.763   0.735  0.00  0.00    +0.162 C 
ATOM     16  O   UNL     1       3.151   0.926   1.788  0.00  0.00    -0.292 OA
ATOM     17  C   UNL     1       1.070   0.622   0.738  0.00  0.00    +0.086 C 
ATOM     18  C   UNL     1      -0.994   0.905  -0.651  0.00  0.00    +0.011 C 
ATOM     19  H   UNL     1       3.011   0.091  -3.607  0.00  0.00    +0.153 HD
ENDROOT
BRANCH   6  20
ATOM     20  C   UNL     1       5.411  -0.412   0.117  0.00  0.00    -0.005 A 
ATOM     21  C   UNL     1       5.362  -1.543  -0.676  0.00  0.00    +0.007 A 
ATOM     22  C   UNL     1       5.922  -2.725  -0.230  0.00  0.00    +0.000 A 
ATOM     23  C   UNL     1       6.532  -2.777   1.009  0.00  0.00    +0.002 A 
ATOM     24  C   UNL     1       6.582  -1.646   1.802  0.00  0.00    +0.033 A 
ATOM     25  C   UNL     1       6.026  -0.462   1.354  0.00  0.00    +0.130 A 
BRANCH  25  26
ATOM     26  N   UNL     1       6.084   0.750   2.201  0.00  0.00    +0.057 N 
ATOM     27  O   UNL     1       6.915   0.838   3.075  0.00  0.00    -0.126 OA
ATOM     28  O   UNL     1       5.301   1.653   2.019  0.00  0.00    -0.126 OA
ENDBRANCH  25  26
ENDBRANCH   6  20
BRANCH  11  29
ATOM     29  S   UNL     1       7.159   2.256  -5.649  0.00  0.00    -0.081 S 
BRANCH  29  30
ATOM     30  C   UNL     1       8.801   2.909  -5.238  0.00  0.00    +0.112 C 
BRANCH  30  31
ATOM     31  C   UNL     1       9.517   3.300  -6.505  0.00  0.00    -0.037 A 
ATOM     32  C   UNL     1      10.300   2.376  -7.170  0.00  0.00    +0.004 A 
ATOM     33  C   UNL     1      10.957   2.735  -8.332  0.00  0.00    +0.000 A 
ATOM     34  C   UNL     1      10.831   4.019  -8.829  0.00  0.00    +0.000 A 
ATOM     35  C   UNL     1      10.047   4.943  -8.164  0.00  0.00    +0.000 A 
ATOM     36  C   UNL     1       9.386   4.583  -7.004  0.00  0.00    +0.004 A 
ENDBRANCH  30  31
ENDBRANCH  29  30
ENDBRANCH  11  29
TORSDOF 5
