REMARK  Name = ZINC12903242
REMARK  12 active torsions:
REMARK  status: ('A' for Active; 'I' for Inactive)
REMARK    1  A    between atoms: C_1  and  C_2
REMARK    2  A    between atoms: C_2  and  C_4
REMARK    3  A    between atoms: C_2  and  N_19
REMARK    4  A    between atoms: N_6  and  C_7
REMARK    5  A    between atoms: N_19  and  C_20
REMARK    6  A    between atoms: C_20  and  C_22
REMARK    7  A    between atoms: C_20  and  C_31
REMARK    8  A    between atoms: C_25  and  C_28
REMARK    9  A    between atoms: C_28  and  C_29
REMARK   10  A    between atoms: C_28  and  C_30
REMARK   11  A    between atoms: C_31  and  C_32
REMARK   12  A    between atoms: C_31  and  C_33
REMARK                            x       y       z     vdW  Elec       q    Type
REMARK                         _______ _______ _______ _____ _____    ______ ____
ROOT
ATOM      1  C   UNL     1       1.494  -2.656   0.081  0.00  0.00    -0.004 C 
ATOM      2  C   UNL     1       0.899  -1.923  -1.123  0.00  0.00    +0.014 C 
ENDROOT
BRANCH   2   3
ATOM      3  C   UNL     1      -0.523  -2.375  -1.334  0.00  0.00    +0.203 C 
ATOM      4  O   UNL     1      -1.429  -1.570  -1.282  0.00  0.00    -0.277 OA
ATOM      5  N   UNL     1      -0.788  -3.673  -1.581  0.00  0.00    -0.287 N 
ATOM      6  H   UNL     1      -0.073  -4.329  -1.548  0.00  0.00    +0.155 HD
BRANCH   5   7
ATOM      7  C   UNL     1      -2.095  -4.076  -1.884  0.00  0.00    +0.035 A 
ATOM      8  C   UNL     1      -2.549  -5.324  -1.471  0.00  0.00    +0.025 A 
ATOM      9  C   UNL     1      -3.836  -5.726  -1.767  0.00  0.00    +0.029 A 
ATOM     10  C   UNL     1      -4.678  -4.885  -2.478  0.00  0.00    +0.067 A 
ATOM     11  C   UNL     1      -4.225  -3.632  -2.894  0.00  0.00    +0.069 A 
ATOM     12  C   UNL     1      -2.934  -3.228  -2.591  0.00  0.00    +0.051 A 
ATOM     13  N   UNL     1      -5.279  -3.027  -3.574  0.00  0.00    -0.306 N 
ATOM     14  H   UNL     1      -5.262  -2.146  -3.980  0.00  0.00    +0.170 HD
ATOM     15  C   UNL     1      -6.327  -3.873  -3.572  0.00  0.00    +0.325 A 
ATOM     16  O   UNL     1      -7.408  -3.650  -4.084  0.00  0.00    -0.247 OA
ATOM     17  N   UNL     1      -5.996  -5.003  -2.919  0.00  0.00    -0.306 N 
ATOM     18  H   UNL     1      -6.576  -5.768  -2.779  0.00  0.00    +0.170 HD
ENDBRANCH   5   7
ENDBRANCH   2   3
BRANCH   2  19
ATOM     19  N   UNL     1       0.920  -0.475  -0.874  0.00  0.00    +0.391 N 
ATOM     20  H   UNL     1       0.441   0.002  -1.622  0.00  0.00    -0.084 HD
ATOM     21  H   UNL     1       0.459  -0.278   0.002  0.00  0.00    -0.084 HD
BRANCH  19  22
ATOM     22  C   UNL     1       2.312  -0.010  -0.809  0.00  0.00    -0.037 C 
BRANCH  22  23
ATOM     23  C   UNL     1       2.961  -0.178  -2.159  0.00  0.00    -0.061 A 
ATOM     24  C   UNL     1       2.251   0.113  -3.309  0.00  0.00    +0.002 A 
ATOM     25  C   UNL     1       2.845  -0.041  -4.547  0.00  0.00    +0.004 A 
ATOM     26  C   UNL     1       4.151  -0.487  -4.636  0.00  0.00    -0.045 A 
ATOM     27  C   UNL     1       4.862  -0.778  -3.486  0.00  0.00    +0.004 A 
ATOM     28  C   UNL     1       4.268  -0.620  -2.248  0.00  0.00    +0.002 A 
BRANCH  26  29
ATOM     29  C   UNL     1       4.799  -0.657  -5.986  0.00  0.00    +0.013 C 
ATOM     30  C   UNL     1       6.032   0.244  -6.076  0.00  0.00    +0.012 C 
ATOM     31  C   UNL     1       5.219  -2.116  -6.170  0.00  0.00    +0.012 C 
ENDBRANCH  26  29
ENDBRANCH  22  23
BRANCH  22  32
ATOM     32  C   UNL     1       2.339   1.467  -0.412  0.00  0.00    -0.027 C 
ATOM     33  C   UNL     1       1.784   1.624   1.005  0.00  0.00    +0.006 C 
ATOM     34  C   UNL     1       3.779   1.982  -0.456  0.00  0.00    +0.006 C 
ENDBRANCH  22  32
ENDBRANCH  19  22
ENDBRANCH   2  19
TORSDOF 7
