REMARK  Name = ZINC59112584
REMARK  16 active torsions:
REMARK  status: ('A' for Active; 'I' for Inactive)
REMARK    1  A    between atoms: C_1  and  C_2
REMARK    2  A    between atoms: C_2  and  C_3
REMARK    3  A    between atoms: C_8  and  N_9
REMARK    4  A    between atoms: N_9  and  C_10
REMARK    5  A    between atoms: C_10  and  N_12
REMARK    6  A    between atoms: N_12  and  C_13
REMARK    7  A    between atoms: C_13  and  C_14
REMARK    8  A    between atoms: C_14  and  C_35
REMARK    9  A    between atoms: C_16  and  N_23
REMARK   10  A    between atoms: C_19  and  C_21
REMARK   11  A    between atoms: C_19  and  C_22
REMARK   12  A    between atoms: N_23  and  C_24
REMARK   13  A    between atoms: C_24  and  N_26
REMARK   14  A    between atoms: N_26  and  C_27
REMARK   15  A    between atoms: C_32  and  C_33
REMARK   16  A    between atoms: C_33  and  C_34
REMARK                            x       y       z     vdW  Elec       q    Type
REMARK                         _______ _______ _______ _____ _____    ______ ____
ROOT
ATOM      1  C   UNL     1      -5.755  -0.136   5.363  0.00  0.00    -0.014 C 
ATOM      2  C   UNL     1      -5.798   1.233   4.692  0.00  0.00    +0.030 C 
ATOM      3  C   UNL     1      -7.218   1.795   4.700  0.00  0.00    +0.073 C 
ATOM      4  C   UNL     1      -7.672   1.968   6.148  0.00  0.00    +0.028 C 
ATOM      5  C   UNL     1      -7.695   0.627   6.872  0.00  0.00    -0.033 C 
ATOM      6  C   UNL     1      -6.387  -0.130   6.742  0.00  0.00    +0.014 C 
ATOM      7  C   UNL     1      -8.873  -0.216   6.375  0.00  0.00    +0.011 C 
ATOM      8  C   UNL     1      -7.934   0.910   8.372  0.00  0.00    +0.011 C 
ATOM      9  C   UNL     1      -6.412  -1.183   4.459  0.00  0.00    +0.013 C 
ENDROOT
BRANCH   3  10
ATOM     10  N   UNL     1      -7.219   3.105   4.036  0.00  0.00    -0.323 N 
ATOM     11  H   UNL     1      -6.407   3.634   4.005  0.00  0.00    +0.148 HD
BRANCH  10  12
ATOM     12  C   UNL     1      -8.350   3.572   3.470  0.00  0.00    +0.135 C 
ATOM     13  S   UNL     1      -9.784   2.639   3.526  0.00  0.00    -0.019 S 
BRANCH  12  14
ATOM     14  N   UNL     1      -8.351   4.775   2.861  0.00  0.00    -0.297 N 
ATOM     15  H   UNL     1      -7.524   5.273   2.769  0.00  0.00    +0.154 HD
BRANCH  14  16
ATOM     16  C   UNL     1      -9.546   5.303   2.360  0.00  0.00    +0.036 A 
ATOM     17  C   UNL     1     -10.395   4.508   1.601  0.00  0.00    +0.023 A 
ATOM     18  C   UNL     1     -11.574   5.033   1.109  0.00  0.00    +0.002 A 
ATOM     19  C   UNL     1     -11.908   6.349   1.370  0.00  0.00    +0.000 A 
ATOM     20  C   UNL     1     -11.065   7.144   2.124  0.00  0.00    +0.005 A 
ATOM     21  C   UNL     1      -9.887   6.623   2.625  0.00  0.00    -0.026 A 
BRANCH  21  22
ATOM     22  C   UNL     1      -8.972   7.488   3.452  0.00  0.00    +0.033 C 
ATOM     23  C   UNL     1      -7.898   8.101   2.551  0.00  0.00    +0.009 C 
ENDBRANCH  21  22
ENDBRANCH  14  16
ENDBRANCH  12  14
ENDBRANCH  10  12
ENDBRANCH   3  10
BRANCH   1  24
ATOM     24  C   UNL     1      -4.270  -0.532   5.521  0.00  0.00    +0.110 C 
BRANCH  24  25
ATOM     25  N   UNL     1      -3.626  -0.548   4.205  0.00  0.00    -0.326 N 
ATOM     26  H   UNL     1      -4.139  -0.328   3.411  0.00  0.00    +0.148 HD
BRANCH  25  27
ATOM     27  C   UNL     1      -2.321  -0.869   4.097  0.00  0.00    +0.135 C 
ATOM     28  S   UNL     1      -1.417  -1.257   5.497  0.00  0.00    -0.019 S 
BRANCH  27  29
ATOM     29  N   UNL     1      -1.729  -0.883   2.886  0.00  0.00    -0.297 N 
ATOM     30  H   UNL     1      -2.223  -0.600   2.101  0.00  0.00    +0.154 HD
BRANCH  29  36
ATOM     31  C   UNL     1      -0.051  -2.211   1.767  0.00  0.00    -0.026 A 
ATOM     32  C   UNL     1       1.262  -2.623   1.643  0.00  0.00    +0.005 A 
ATOM     33  C   UNL     1       2.224  -2.143   2.512  0.00  0.00    +0.000 A 
ATOM     34  C   UNL     1       1.876  -1.248   3.508  0.00  0.00    +0.002 A 
ATOM     35  C   UNL     1       0.566  -0.832   3.637  0.00  0.00    +0.023 A 
ATOM     36  C   UNL     1      -0.402  -1.308   2.762  0.00  0.00    +0.036 A 
BRANCH  31  38
ATOM     37  C   UNL     1      -1.276  -1.751  -0.339  0.00  0.00    +0.009 C 
ATOM     38  C   UNL     1      -1.099  -2.734   0.819  0.00  0.00    +0.033 C 
ENDBRANCH  31  38
ENDBRANCH  29  36
ENDBRANCH  27  29
ENDBRANCH  25  27
ENDBRANCH  24  25
ENDBRANCH   1  24
TORSDOF 11
