REMARK  Name = ZINC22108168
REMARK  12 active torsions:
REMARK  status: ('A' for Active; 'I' for Inactive)
REMARK    1  A    between atoms: C_1  and  C_2
REMARK    2  A    between atoms: C_5  and  N_8
REMARK    3  A    between atoms: C_9  and  C_13
REMARK    4  A    between atoms: C_13  and  O_14
REMARK    5  A    between atoms: O_14  and  C_15
REMARK    6  A    between atoms: C_18  and  C_23
REMARK    7  A    between atoms: C_20  and  O_21
REMARK    8  A    between atoms: O_21  and  C_22
REMARK    9  A    between atoms: C_23  and  N_24
REMARK   10  A    between atoms: N_24  and  C_25
REMARK   11  A    between atoms: C_29  and  C_36
REMARK   12  A    between atoms: C_32  and  C_35
REMARK                            x       y       z     vdW  Elec       q    Type
REMARK                         _______ _______ _______ _____ _____    ______ ____
ROOT
ATOM      1  C   UNL     1      -6.895  -5.460   0.250  0.00  0.00    +0.163 A 
ATOM      2  C   UNL     1      -6.194  -5.209  -0.919  0.00  0.00    +0.049 A 
ATOM      3  C   UNL     1      -4.884  -4.773  -0.858  0.00  0.00    +0.005 A 
ATOM      4  C   UNL     1      -4.270  -4.586   0.367  0.00  0.00    -0.061 A 
ATOM      5  C   UNL     1      -4.963  -4.839   1.536  0.00  0.00    +0.051 A 
ATOM      6  C   UNL     1      -6.278  -5.271   1.482  0.00  0.00    +0.162 A 
ENDROOT
BRANCH   6   7
ATOM      7  O   UNL     1      -6.962  -5.516   2.632  0.00  0.00    -0.491 OA
ATOM      8  C   UNL     1      -6.265  -5.300   3.860  0.00  0.00    +0.277 C 
ENDBRANCH   6   7
BRANCH   1   9
ATOM      9  O   UNL     1      -8.185  -5.889   0.192  0.00  0.00    -0.481 OA
BRANCH   9  10
ATOM     10  C   UNL     1      -8.754  -6.060  -1.108  0.00  0.00    +0.307 C 
BRANCH  10  12
ATOM     11  N   UNL     1     -10.601  -7.818  -1.026  0.00  0.00    -0.194 N 
ATOM     12  C   UNL     1     -10.177  -6.537  -0.974  0.00  0.00    +0.194 A 
ATOM     13  N   UNL     1     -11.232  -5.786  -0.792  0.00  0.00    -0.109 NA
ATOM     14  N   UNL     1     -12.293  -6.506  -0.720  0.00  0.00    -0.023 NA
ATOM     15  N   UNL     1     -11.994  -7.754  -0.850  0.00  0.00    -0.039 NA
BRANCH  11  20
ATOM     16  C   UNL     1      -7.434 -12.468  -1.783  0.00  0.00    +0.044 C 
ATOM     17  C   UNL     1      -8.274 -11.233  -1.582  0.00  0.00    -0.050 A 
ATOM     18  C   UNL     1      -7.834 -10.228  -0.742  0.00  0.00    +0.005 A 
ATOM     19  C   UNL     1      -8.602  -9.095  -0.555  0.00  0.00    +0.028 A 
ATOM     20  C   UNL     1      -9.818  -8.967  -1.213  0.00  0.00    +0.069 A 
ATOM     21  C   UNL     1     -10.260  -9.981  -2.052  0.00  0.00    +0.028 A 
ATOM     22  C   UNL     1      -9.485 -11.108  -2.239  0.00  0.00    +0.005 A 
ENDBRANCH  11  20
ENDBRANCH  10  12
ENDBRANCH   9  10
ENDBRANCH   1   9
BRANCH   4  23
ATOM     23  C   UNL     1      -2.841  -4.111   0.427  0.00  0.00    -0.046 C 
BRANCH  23  24
ATOM     24  N   UNL     1      -2.815  -2.642   0.465  0.00  0.00    +0.385 N 
ATOM     25  H   UNL     1      -3.296  -2.243  -0.440  0.00  0.00    -0.085 HD
ATOM     26  H   UNL     1      -3.357  -2.288   1.354  0.00  0.00    -0.085 HD
BRANCH  24  27
ATOM     27  C   UNL     1      -1.435  -2.142   0.524  0.00  0.00    -0.067 C 
ATOM     28  C   UNL     1      -0.752  -2.678   1.784  0.00  0.00    -0.009 C 
ATOM     29  C   UNL     1       0.686  -2.157   1.846  0.00  0.00    -0.011 C 
ATOM     30  C   UNL     1       0.673  -0.627   1.884  0.00  0.00    +0.010 C 
ATOM     31  C   UNL     1      -0.010  -0.092   0.624  0.00  0.00    -0.033 C 
ATOM     32  C   UNL     1      -1.448  -0.613   0.562  0.00  0.00    -0.006 C 
ATOM     33  C   UNL     1       0.757  -0.564  -0.612  0.00  0.00    +0.013 C 
ATOM     34  C   UNL     1       0.770  -2.094  -0.650  0.00  0.00    -0.033 C 
ATOM     35  C   UNL     1       1.453  -2.630   0.609  0.00  0.00    +0.010 C 
ATOM     36  C   UNL     1      -0.667  -2.615  -0.712  0.00  0.00    -0.006 C 
ATOM     37  C   UNL     1       1.537  -2.567  -1.887  0.00  0.00    +0.011 C 
ATOM     38  C   UNL     1      -0.023   1.438   0.662  0.00  0.00    +0.011 C 
ENDBRANCH  24  27
ENDBRANCH  23  24
ENDBRANCH   4  23
TORSDOF 8
