REMARK  Name = ZINC20881611
REMARK  12 active torsions:
REMARK  status: ('A' for Active; 'I' for Inactive)
REMARK    1  A    between atoms: C_1  and  C_2
REMARK    2  A    between atoms: C_2  and  C_3
REMARK    3  A    between atoms: C_2  and  O_4
REMARK    4  A    between atoms: O_4  and  C_5
REMARK    5  A    between atoms: C_8  and  C_11
REMARK    6  A    between atoms: C_16  and  C_26
REMARK    7  A    between atoms: C_29  and  O_34
REMARK    8  A    between atoms: C_30  and  O_32
REMARK    9  A    between atoms: O_32  and  C_33
REMARK   10  A    between atoms: O_34  and  C_35
REMARK   11  A    between atoms: C_35  and  C_36
REMARK   12  A    between atoms: C_35  and  C_37
REMARK                            x       y       z     vdW  Elec       q    Type
REMARK                         _______ _______ _______ _____ _____    ______ ____
ROOT
ATOM      1  C   UNL     1       1.706   0.814   3.874  0.00  0.00    +0.032 C 
ATOM      2  C   UNL     1       3.188   1.087   3.627  0.00  0.00    +0.059 C 
ATOM      3  C   UNL     1       3.428   1.361   2.152  0.00  0.00    +0.017 C 
ATOM      4  C   UNL     1       2.483   1.959   1.406  0.00  0.00    +0.036 C 
ATOM      5  C   UNL     1       2.596   2.300  -0.060  0.00  0.00    +0.136 C 
ATOM      6  N   UNL     1       3.930   2.175  -0.607  0.00  0.00    -0.331 N 
ATOM      7  C   UNL     1       4.564   0.936  -0.677  0.00  0.00    +0.049 A 
ATOM      8  C   UNL     1       4.882   0.352  -1.893  0.00  0.00    +0.025 A 
ATOM      9  C   UNL     1       5.468  -0.901  -1.913  0.00  0.00    +0.002 A 
ATOM     10  C   UNL     1       5.731  -1.570  -0.731  0.00  0.00    +0.002 A 
ATOM     11  C   UNL     1       5.430  -0.983   0.486  0.00  0.00    +0.025 A 
ATOM     12  C   UNL     1       4.865   0.281   0.507  0.00  0.00    +0.052 A 
ATOM     13  N   UNL     1       4.645   0.976   1.691  0.00  0.00    -0.316 N 
ATOM     14  C   UNL     1       1.245   2.325   1.986  0.00  0.00    +0.163 C 
ATOM     15  O   UNL     1       0.414   2.880   1.294  0.00  0.00    -0.292 OA
ATOM     16  C   UNL     1       0.922   2.052   3.425  0.00  0.00    +0.088 C 
ATOM     17  H   UNL     1       4.459   3.067  -0.974  0.00  0.00    +0.147 HD
ATOM     18  H   UNL     1       5.552   1.212   2.267  0.00  0.00    +0.152 HD
ENDROOT
BRANCH   1  22
ATOM     19  C   UNL     1       1.036   0.106   8.035  0.00  0.00    +0.121 A 
ATOM     20  C   UNL     1       0.723  -0.874   7.104  0.00  0.00    +0.046 A 
ATOM     21  C   UNL     1       0.940  -0.643   5.760  0.00  0.00    +0.007 A 
ATOM     22  C   UNL     1       1.470   0.564   5.341  0.00  0.00    -0.043 A 
ATOM     23  C   UNL     1       1.788   1.540   6.267  0.00  0.00    +0.007 A 
ATOM     24  C   UNL     1       1.568   1.316   7.612  0.00  0.00    +0.046 A 
BRANCH  19  25
ATOM     25  O   UNL     1       0.823  -0.119   9.358  0.00  0.00    -0.489 OA
BRANCH  25  27
ATOM     26  C   UNL     1       1.200  -2.466   9.792  0.00  0.00    +0.051 C 
ATOM     27  C   UNL     1       0.169  -1.339   9.711  0.00  0.00    +0.167 C 
ATOM     28  C   UNL     1      -0.516  -1.175  11.070  0.00  0.00    +0.051 C 
ENDBRANCH  25  27
ENDBRANCH  19  25
ENDBRANCH   1  22
BRANCH   5  29
ATOM     29  C   UNL     1       1.677   1.389  -0.834  0.00  0.00    -0.019 A 
ATOM     30  C   UNL     1       1.926   0.030  -0.875  0.00  0.00    +0.009 A 
ATOM     31  C   UNL     1       1.086  -0.809  -1.583  0.00  0.00    +0.050 A 
ATOM     32  C   UNL     1      -0.006  -0.287  -2.258  0.00  0.00    +0.162 A 
ATOM     33  C   UNL     1      -0.260   1.080  -2.212  0.00  0.00    +0.162 A 
ATOM     34  C   UNL     1       0.586   1.916  -1.501  0.00  0.00    +0.055 A 
BRANCH  33  35
ATOM     35  O   UNL     1      -1.333   1.597  -2.869  0.00  0.00    -0.491 OA
ATOM     36  C   UNL     1      -1.528   3.010  -2.784  0.00  0.00    +0.277 C 
ENDBRANCH  33  35
BRANCH  32  37
ATOM     37  O   UNL     1      -0.830  -1.110  -2.960  0.00  0.00    -0.486 OA
BRANCH  37  38
ATOM     38  C   UNL     1      -0.443  -2.482  -3.062  0.00  0.00    +0.167 C 
ATOM     39  C   UNL     1      -0.908  -3.237  -1.815  0.00  0.00    +0.051 C 
ATOM     40  C   UNL     1      -1.087  -3.102  -4.304  0.00  0.00    +0.051 C 
ENDBRANCH  37  38
ENDBRANCH  32  37
ENDBRANCH   5  29
TORSDOF 7
