REMARK  Name = ZINC64023966
REMARK  12 active torsions:
REMARK  status: ('A' for Active; 'I' for Inactive)
REMARK    1  A    between atoms: C_1  and  C_2
REMARK    2  A    between atoms: C_7  and  C_12
REMARK    3  A    between atoms: C_12  and  C_14
REMARK    4  A    between atoms: C_12  and  N_15
REMARK    5  A    between atoms: C_16  and  C_18
REMARK    6  A    between atoms: C_18  and  C_19
REMARK    7  A    between atoms: C_19  and  C_31
REMARK    8  A    between atoms: N_23  and  C_26
REMARK    9  A    between atoms: C_26  and  C_27
REMARK   10  A    between atoms: C_27  and  C_28
REMARK   11  A    between atoms: C_28  and  O_29
REMARK   12  A    between atoms: O_29  and  C_30
REMARK                            x       y       z     vdW  Elec       q    Type
REMARK                         _______ _______ _______ _____ _____    ______ ____
ROOT
ATOM      1  C   UNL     1       2.534  -8.393   0.392  0.00  0.00    +0.117 C 
ENDROOT
BRANCH   1   2
ATOM      2  C   UNL     1       3.990  -8.813   0.176  0.00  0.00    +0.089 C 
ATOM      3  C   UNL     1       4.061 -10.192  -0.511  0.00  0.00    +0.117 C 
ATOM      4  C   UNL     1       4.784 -11.055   0.500  0.00  0.00    +0.223 C 
ATOM      5  O   UNL     1       5.052 -12.228   0.357  0.00  0.00    -0.275 OA
ATOM      6  N   UNL     1       5.080 -10.317   1.577  0.00  0.00    -0.241 N 
ATOM      7  C   UNL     1       4.680  -9.042   1.503  0.00  0.00    +0.233 C 
ATOM      8  O   UNL     1       4.845  -8.203   2.362  0.00  0.00    -0.274 OA
BRANCH   2   9
ATOM      9  C   UNL     1       4.725  -7.776  -0.633  0.00  0.00    -0.032 A 
ATOM     10  C   UNL     1       4.221  -7.364  -1.852  0.00  0.00    +0.005 A 
ATOM     11  C   UNL     1       4.895  -6.413  -2.594  0.00  0.00    +0.000 A 
ATOM     12  C   UNL     1       6.074  -5.872  -2.116  0.00  0.00    +0.000 A 
ATOM     13  C   UNL     1       6.578  -6.282  -0.896  0.00  0.00    +0.000 A 
ATOM     14  C   UNL     1       5.902  -7.231  -0.152  0.00  0.00    +0.005 A 
ENDBRANCH   2   9
BRANCH   6  15
ATOM     15  C   UNL     1       5.783 -10.861   2.741  0.00  0.00    +0.118 C 
BRANCH  15  16
ATOM     16  C   UNL     1       7.292 -10.689   2.552  0.00  0.00    +0.047 C 
BRANCH  16  17
ATOM     17  C   UNL     1       8.026 -11.257   3.768  0.00  0.00    +0.161 C 
BRANCH  17  18
ATOM     18  O   UNL     1       9.435 -11.096   3.591  0.00  0.00    -0.383 OA
ATOM     19  C   UNL     1      10.218 -11.597   4.677  0.00  0.00    +0.193 C 
ENDBRANCH  17  18
ENDBRANCH  16  17
ENDBRANCH  15  16
ENDBRANCH   6  15
ENDBRANCH   1   2
BRANCH   1  21
ATOM     20  N   UNL     1       1.313  -6.441   1.296  0.00  0.00    -0.309 N 
ATOM     21  C   UNL     1       2.495  -7.047   1.068  0.00  0.00    +0.215 C 
ATOM     22  O   UNL     1       3.527  -6.508   1.408  0.00  0.00    -0.276 OA
ATOM     23  H   UNL     1       0.487  -6.872   1.024  0.00  0.00    +0.149 HD
BRANCH  20  24
ATOM     24  C   UNL     1       1.274  -5.133   1.953  0.00  0.00    +0.112 C 
ATOM     25  C   UNL     1       1.302  -5.324   3.471  0.00  0.00    +0.032 C 
BRANCH  24  32
ATOM     26  C   UNL     1      -0.214   1.442   0.049  0.00  0.00    +0.044 C 
ATOM     27  C   UNL     1      -0.165  -0.064   0.034  0.00  0.00    -0.048 A 
ATOM     28  C   UNL     1      -0.158  -0.727  -1.206  0.00  0.00    +0.005 A 
ATOM     29  C   UNL     1      -0.116  -2.070  -1.312  0.00  0.00    +0.027 A 
ATOM     30  C   UNL     1      -0.075  -2.892  -0.095  0.00  0.00    +0.060 A 
ATOM     31  N   UNL     1      -0.032  -4.178   0.104  0.00  0.00    -0.362 N 
ATOM     32  C   UNL     1      -0.008  -4.399   1.555  0.00  0.00    +0.194 C 
ATOM     33  N   UNL     1      -0.043  -3.070   2.177  0.00  0.00    -0.362 N 
ATOM     34  C   UNL     1      -0.082  -2.190   1.218  0.00  0.00    +0.060 A 
ATOM     35  C   UNL     1      -0.125  -0.722   1.210  0.00  0.00    +0.030 A 
ATOM     36  H   UNL     1      -0.018  -4.864  -0.582  0.00  0.00    +0.162 HD
ATOM     37  H   UNL     1      -0.038  -2.881   3.129  0.00  0.00    +0.162 HD
ENDBRANCH  24  32
ENDBRANCH  20  24
ENDBRANCH   1  21
TORSDOF 9
