REMARK  Name = ZINC61594361
REMARK  9 active torsions:
REMARK  status: ('A' for Active; 'I' for Inactive)
REMARK    1  A    between atoms: C_1  and  C_2
REMARK    2  A    between atoms: C_2  and  C_3
REMARK    3  A    between atoms: C_3  and  C_5
REMARK    4  A    between atoms: C_3  and  N_24
REMARK    5  A    between atoms: C_5  and  C_7
REMARK    6  A    between atoms: C_5  and  S_14
REMARK    7  A    between atoms: S_14  and  C_15
REMARK    8  A    between atoms: N_21  and  C_22
REMARK    9  A    between atoms: C_22  and  C_23
REMARK                            x       y       z     vdW  Elec       q    Type
REMARK                         _______ _______ _______ _____ _____    ______ ____
ROOT
ATOM      1  C   UNL     1      -1.408  -2.068   0.005  0.00  0.00    +0.071 C 
ENDROOT
BRANCH   1   2
ATOM      2  C   UNL     1      -2.846  -2.425  -0.269  0.00  0.00    -0.022 A 
ATOM      3  C   UNL     1      -3.735  -2.565   0.781  0.00  0.00    +0.006 A 
ATOM      4  C   UNL     1      -5.055  -2.892   0.529  0.00  0.00    +0.000 A 
ATOM      5  C   UNL     1      -5.486  -3.078  -0.771  0.00  0.00    +0.001 A 
ATOM      6  C   UNL     1      -4.598  -2.938  -1.820  0.00  0.00    +0.015 A 
ATOM      7  C   UNL     1      -3.278  -2.606  -1.570  0.00  0.00    +0.022 A 
ATOM      8 BR   UNL     1      -2.064  -2.407  -3.006  0.00  0.00    -0.050 Br
ENDBRANCH   1   2
BRANCH   1   9
ATOM      9  C   UNL     1      -1.246  -0.547  -0.018  0.00  0.00    -0.057 C 
BRANCH   9  10
ATOM     10  N   UNL     1      -1.627  -0.034  -1.341  0.00  0.00    +0.381 N 
ATOM     11  H   UNL     1      -1.034  -0.446  -2.045  0.00  0.00    -0.090 HD
ATOM     12  H   UNL     1      -2.589  -0.273  -1.530  0.00  0.00    -0.090 HD
ATOM     13  H   UNL     1      -1.520   0.969  -1.356  0.00  0.00    -0.090 HD
ENDBRANCH   9  10
BRANCH   9  15
ATOM     14  C   UNL     1       0.357   1.337   0.332  0.00  0.00    +0.002 C 
ATOM     15  C   UNL     1       0.213  -0.185   0.269  0.00  0.00    -0.018 C 
ENDBRANCH   9  15
ENDBRANCH   1   9
BRANCH   1  16
ATOM     16  S   UNL     1      -0.927  -2.703   1.635  0.00  0.00    -0.080 S 
BRANCH  16  17
ATOM     17  C   UNL     1      -1.012  -4.453   1.453  0.00  0.00    +0.193 A 
ATOM     18  N   UNL     1      -1.257  -5.090   0.345  0.00  0.00    -0.145 NA
ATOM     19  N   UNL     1      -1.237  -6.464   0.621  0.00  0.00    -0.226 N 
ATOM     20  H   UNL     1      -1.387  -7.180  -0.017  0.00  0.00    +0.194 HD
ATOM     21  C   UNL     1      -0.970  -6.608   1.935  0.00  0.00    +0.345 A 
ATOM     22  O   UNL     1      -0.875  -7.662   2.539  0.00  0.00    -0.245 OA
ATOM     23  N   UNL     1      -0.824  -5.375   2.458  0.00  0.00    -0.271 N 
BRANCH  23  24
ATOM     24  C   UNL     1      -0.520  -5.067   3.858  0.00  0.00    +0.125 C 
ATOM     25  C   UNL     1      -1.825  -4.923   4.644  0.00  0.00    +0.027 C 
ENDBRANCH  23  24
ENDBRANCH  16  17
ENDBRANCH   1  16
TORSDOF 7
