REMARK  Name = ZINC20762045
REMARK  10 active torsions:
REMARK  status: ('A' for Active; 'I' for Inactive)
REMARK    1  A    between atoms: C_1  and  C_2
REMARK    2  A    between atoms: C_2  and  C_3
REMARK    3  A    between atoms: C_2  and  C_4
REMARK    4  A    between atoms: C_4  and  C_6
REMARK    5  A    between atoms: C_4  and  N_10
REMARK    6  A    between atoms: C_6  and  O_8
REMARK    7  A    between atoms: O_8  and  C_9
REMARK    8  A    between atoms: C_22  and  C_24
REMARK    9  A    between atoms: C_27  and  O_30
REMARK   10  A    between atoms: O_30  and  C_31
REMARK                            x       y       z     vdW  Elec       q    Type
REMARK                         _______ _______ _______ _____ _____    ______ ____
ROOT
ATOM      1  N   UNL     1      -1.239  -2.029   2.719  0.00  0.00    -0.286 N 
ATOM      2  C   UNL     1      -1.280  -2.525   1.467  0.00  0.00    +0.304 C 
ATOM      3  O   UNL     1      -1.451  -1.778   0.522  0.00  0.00    -0.253 OA
ATOM      4  N   UNL     1      -1.133  -3.849   1.261  0.00  0.00    -0.273 N 
ATOM      5  C   UNL     1      -1.056  -4.395  -0.102  0.00  0.00    +0.116 C 
ATOM      6  C   UNL     1      -2.267  -5.304  -0.348  0.00  0.00    +0.074 C 
ATOM      7  C   UNL     1      -2.456  -6.194   0.853  0.00  0.00    +0.040 A 
ATOM      8  C   UNL     1      -1.922  -5.969   2.072  0.00  0.00    +0.062 A 
ATOM      9  N   UNL     1      -2.306  -6.957   2.883  0.00  0.00    -0.348 N 
ATOM     10  C   UNL     1      -3.057  -7.793   2.213  0.00  0.00    +0.171 A 
ATOM     11  N   UNL     1      -3.173  -7.349   0.940  0.00  0.00    -0.349 N 
ATOM     12  H   UNL     1      -3.672  -7.774   0.225  0.00  0.00    +0.166 HD
ATOM     13  C   UNL     1      -1.038  -4.784   2.397  0.00  0.00    +0.156 C 
ATOM     14  H   UNL     1      -1.166  -2.631   3.477  0.00  0.00    +0.151 HD
ATOM     15  H   UNL     1      -2.066  -7.043   3.819  0.00  0.00    +0.167 HD
ENDROOT
BRANCH  13  16
ATOM     16  C   UNL     1       0.389  -5.236   2.571  0.00  0.00    -0.021 A 
ATOM     17  C   UNL     1       1.009  -5.963   1.572  0.00  0.00    +0.009 A 
ATOM     18  C   UNL     1       2.317  -6.380   1.730  0.00  0.00    +0.046 A 
ATOM     19  C   UNL     1       3.008  -6.067   2.891  0.00  0.00    +0.120 A 
ATOM     20  C   UNL     1       2.384  -5.336   3.892  0.00  0.00    +0.046 A 
ATOM     21  C   UNL     1       1.077  -4.918   3.727  0.00  0.00    +0.009 A 
BRANCH  19  22
ATOM     22  O   UNL     1       4.295  -6.475   3.049  0.00  0.00    -0.495 OA
ATOM     23  C   UNL     1       4.944  -6.117   4.270  0.00  0.00    +0.277 C 
ENDBRANCH  19  22
ENDBRANCH  13  16
BRANCH   1  24
ATOM     24  C   UNL     1      -1.305  -0.582   2.937  0.00  0.00    +0.186 C 
BRANCH  24  26
ATOM     25  C   UNL     1      -2.837   1.375   3.192  0.00  0.00    +0.009 C 
ATOM     26  C   UNL     1      -2.769  -0.137   2.966  0.00  0.00    +0.014 C 
ATOM     27  C   UNL     1      -3.433  -0.483   1.632  0.00  0.00    +0.009 C 
ENDBRANCH  24  26
BRANCH  24  28
ATOM     28  C   UNL     1      -0.650  -0.241   4.250  0.00  0.00    +0.328 C 
ATOM     29  O   UNL     1      -0.177  -1.117   4.935  0.00  0.00    -0.249 OA
BRANCH  28  30
ATOM     30  O   UNL     1      -0.593   1.036   4.660  0.00  0.00    -0.467 OA
ATOM     31  C   UNL     1       0.043   1.286   5.915  0.00  0.00    +0.280 C 
ENDBRANCH  28  30
ENDBRANCH  24  28
ENDBRANCH   1  24
TORSDOF 6
