REMARK  Name = ZINC20704248
REMARK  7 active torsions:
REMARK  status: ('A' for Active; 'I' for Inactive)
REMARK    1  A    between atoms: C_1  and  C_2
REMARK    2  A    between atoms: C_5  and  N_9
REMARK    3  A    between atoms: C_6  and  C_8
REMARK    4  A    between atoms: N_9  and  S_10
REMARK    5  A    between atoms: S_10  and  C_13
REMARK    6  A    between atoms: C_26  and  C_29
REMARK    7  A    between atoms: C_33  and  N_35
REMARK                            x       y       z     vdW  Elec       q    Type
REMARK                         _______ _______ _______ _____ _____    ______ ____
ROOT
ATOM      1  C   UNL     1      -2.365  -0.209   2.469  0.00  0.00    +0.109 A 
ATOM      2  C   UNL     1      -1.119  -0.218   3.070  0.00  0.00    +0.030 A 
ATOM      3  C   UNL     1      -1.016  -0.024   4.433  0.00  0.00    +0.025 A 
ATOM      4  C   UNL     1      -2.160   0.169   5.197  0.00  0.00    +0.031 A 
ATOM      5  C   UNL     1      -3.411   0.175   4.599  0.00  0.00    -0.018 A 
ATOM      6  C   UNL     1      -3.502  -0.017   3.227  0.00  0.00    +0.034 A 
ATOM      7  C   UNL     1      -4.670   0.382   5.380  0.00  0.00    +0.049 C 
ATOM      8  C   UNL     1      -5.429  -0.912   5.557  0.00  0.00    -0.023 C 
ATOM      9  C   UNL     1      -5.996  -0.947   6.739  0.00  0.00    -0.030 C 
ATOM     10  C   UNL     1      -5.696   0.324   7.510  0.00  0.00    +0.033 C 
ATOM     11  C   UNL     1      -4.412   0.870   6.819  0.00  0.00    +0.029 C 
ATOM     12  C   UNL     1      -3.219   0.121   7.418  0.00  0.00    +0.105 C 
ATOM     13  N   UNL     1      -2.040   0.356   6.578  0.00  0.00    -0.336 N 
ATOM     14  H   UNL     1      -1.091   0.672   7.037  0.00  0.00    +0.147 HD
ENDROOT
BRANCH  12  15
ATOM     15  C   UNL     1      -3.520  -1.355   7.463  0.00  0.00    -0.025 A 
ATOM     16  C   UNL     1      -3.383  -2.123   6.322  0.00  0.00    +0.007 A 
ATOM     17  C   UNL     1      -3.659  -3.477   6.363  0.00  0.00    +0.022 A 
ATOM     18  C   UNL     1      -4.072  -4.063   7.546  0.00  0.00    +0.071 A 
ATOM     19  C   UNL     1      -4.209  -3.293   8.688  0.00  0.00    +0.145 A 
ATOM     20  C   UNL     1      -3.927  -1.941   8.647  0.00  0.00    +0.039 A 
ATOM     21 CL   UNL     1      -4.420  -5.763   7.598  0.00  0.00    -0.081 Cl
BRANCH  19  22
ATOM     22  N   UNL     1      -4.650  -3.920   9.954  0.00  0.00    +0.058 N 
ATOM     23  O   UNL     1      -4.770  -3.242  10.959  0.00  0.00    -0.126 OA
ATOM     24  O   UNL     1      -4.894  -5.113   9.991  0.00  0.00    -0.126 OA
ENDBRANCH  19  22
ENDBRANCH  12  15
BRANCH   1  25
ATOM     25  S   UNL     1      -2.501  -0.452   0.730  0.00  0.00    +0.072 S 
ATOM     26  O   UNL     1      -3.811  -0.950   0.490  0.00  0.00    -0.150 OA
ATOM     27  O   UNL     1      -1.334  -1.153   0.324  0.00  0.00    -0.150 OA
BRANCH  25  28
ATOM     28  N   UNL     1      -2.426   1.042   0.020  0.00  0.00    -0.216 N 
ATOM     29  H   UNL     1      -3.270   1.408  -0.584  0.00  0.00    +0.174 HD
BRANCH  28  34
ATOM     30  C   UNL     1       2.183   4.277   0.689  0.00  0.00    +0.044 C 
ATOM     31  C   UNL     1       0.958   3.417   0.514  0.00  0.00    -0.050 A 
ATOM     32  C   UNL     1       1.088   2.044   0.413  0.00  0.00    +0.005 A 
ATOM     33  C   UNL     1      -0.033   1.253   0.253  0.00  0.00    +0.025 A 
ATOM     34  C   UNL     1      -1.291   1.839   0.187  0.00  0.00    +0.051 A 
ATOM     35  C   UNL     1      -1.418   3.218   0.294  0.00  0.00    -0.028 A 
ATOM     36  C   UNL     1      -0.293   4.003   0.454  0.00  0.00    +0.008 A 
ATOM     37  C   UNL     1      -2.781   3.857   0.229  0.00  0.00    +0.046 C 
ENDBRANCH  28  34
ENDBRANCH  25  28
ENDBRANCH   1  25
TORSDOF 5
