REMARK  Name = ZINC39445527
REMARK  8 active torsions:
REMARK  status: ('A' for Active; 'I' for Inactive)
REMARK    1  A    between atoms: C_1  and  O_2
REMARK    2  A    between atoms: O_2  and  C_3
REMARK    3  A    between atoms: C_6  and  C_9
REMARK    4  A    between atoms: C_9  and  C_10
REMARK    5  A    between atoms: C_10  and  C_11
REMARK    6  A    between atoms: N_20  and  C_21
REMARK    7  A    between atoms: C_27  and  C_29
REMARK    8  A    between atoms: C_29  and  C_30
REMARK                            x       y       z     vdW  Elec       q    Type
REMARK                         _______ _______ _______ _____ _____    ______ ____
ROOT
ATOM      1  C   UNL     1      -6.796  -3.578  -1.395  0.00  0.00    +0.160 C 
ATOM      2  N   UNL     1      -7.834  -2.689  -0.859  0.00  0.00    -0.323 N 
ATOM      3  C   UNL     1      -8.786  -2.509  -1.870  0.00  0.00    +0.067 A 
ATOM      4  C   UNL     1      -9.962  -1.768  -1.891  0.00  0.00    +0.028 A 
ATOM      5  C   UNL     1     -10.726  -1.772  -3.050  0.00  0.00    +0.019 A 
ATOM      6  C   UNL     1     -10.298  -2.505  -4.137  0.00  0.00    +0.084 A 
ATOM      7  N   UNL     1      -9.179  -3.200  -4.091  0.00  0.00    -0.348 N 
ATOM      8  C   UNL     1      -8.414  -3.228  -3.006  0.00  0.00    +0.122 A 
ATOM      9  N   UNL     1      -7.211  -3.896  -2.767  0.00  0.00    -0.294 N 
ATOM     10  H   UNL     1      -7.857  -2.299   0.029  0.00  0.00    +0.148 HD
ATOM     11  H   UNL     1      -8.906  -3.706  -4.872  0.00  0.00    +0.167 HD
ENDROOT
BRANCH   9  12
ATOM     12  C   UNL     1      -6.493  -4.756  -3.712  0.00  0.00    +0.080 C 
ATOM     13  C   UNL     1      -6.120  -3.946  -4.955  0.00  0.00    +0.041 C 
ATOM     14  C   UNL     1      -5.340  -4.839  -5.926  0.00  0.00    +0.109 C 
ATOM     15  N   UNL     1      -6.135  -6.042  -6.205  0.00  0.00    -0.301 N 
ATOM     16  C   UNL     1      -6.623  -6.845  -5.075  0.00  0.00    +0.109 C 
ATOM     17  C   UNL     1      -7.389  -5.930  -4.114  0.00  0.00    +0.041 C 
ATOM     18  C   UNL     1      -6.413  -6.403  -7.473  0.00  0.00    +0.220 C 
ATOM     19  O   UNL     1      -6.005  -5.732  -8.398  0.00  0.00    -0.275 OA
BRANCH  18  20
ATOM     20  C   UNL     1      -7.230  -7.640  -7.744  0.00  0.00    +0.133 C 
BRANCH  20  21
ATOM     21  C   UNL     1      -7.396  -7.818  -9.231  0.00  0.00    -0.014 A 
ATOM     22  C   UNL     1      -6.455  -8.477 -10.139  0.00  0.00    +0.003 A 
ATOM     23  C   UNL     1      -5.217  -9.101  -9.970  0.00  0.00    +0.010 A 
ATOM     24  C   UNL     1      -4.573  -9.635 -11.050  0.00  0.00    +0.001 A 
ATOM     25  C   UNL     1      -5.138  -9.561 -12.316  0.00  0.00    +0.002 A 
ATOM     26  C   UNL     1      -6.359  -8.950 -12.506  0.00  0.00    +0.026 A 
ATOM     27  C   UNL     1      -7.032  -8.400 -11.420  0.00  0.00    +0.047 A 
ATOM     28  N   UNL     1      -8.234  -7.742 -11.285  0.00  0.00    -0.360 N 
ATOM     29  C   UNL     1      -8.436  -7.407  -9.973  0.00  0.00    +0.087 A 
ATOM     30  H   UNL     1      -8.848  -7.547 -12.010  0.00  0.00    +0.165 HD
ENDBRANCH  20  21
ENDBRANCH  18  20
ENDBRANCH   9  12
BRANCH   1  31
ATOM     31  C   UNL     1      -5.443  -2.865  -1.405  0.00  0.00    +0.047 C 
BRANCH  31  32
ATOM     32  C   UNL     1      -4.981  -2.629   0.035  0.00  0.00    +0.038 C 
BRANCH  32  36
ATOM     33  C   UNL     1      -1.200  -0.637   0.010  0.00  0.00    +0.120 A 
ATOM     34  C   UNL     1      -2.375   0.101   0.019  0.00  0.00    +0.046 A 
ATOM     35  C   UNL     1      -3.596  -0.545   0.027  0.00  0.00    +0.007 A 
ATOM     36  C   UNL     1      -3.648  -1.927   0.026  0.00  0.00    -0.047 A 
ATOM     37  C   UNL     1      -2.479  -2.665   0.017  0.00  0.00    +0.007 A 
ATOM     38  C   UNL     1      -1.255  -2.024   0.003  0.00  0.00    +0.046 A 
BRANCH  33  40
ATOM     39  C   UNL     1      -0.017   1.425   0.010  0.00  0.00    +0.277 C 
ATOM     40  O   UNL     1       0.002  -0.004   0.002  0.00  0.00    -0.495 OA
ENDBRANCH  33  40
ENDBRANCH  32  36
ENDBRANCH  31  32
ENDBRANCH   1  31
TORSDOF 7
