REMARK  Name = ZINC08919613
REMARK  9 active torsions:
REMARK  status: ('A' for Active; 'I' for Inactive)
REMARK    1  A    between atoms: C_1  and  C_2
REMARK    2  A    between atoms: C_2  and  C_3
REMARK    3  A    between atoms: C_3  and  C_4
REMARK    4  A    between atoms: C_3  and  C_5
REMARK    5  A    between atoms: C_3  and  C_6
REMARK    6  A    between atoms: C_15  and  O_33
REMARK    7  A    between atoms: C_17  and  C_20
REMARK    8  A    between atoms: C_23  and  C_25
REMARK    9  A    between atoms: C_28  and  C_32
REMARK                            x       y       z     vdW  Elec       q    Type
REMARK                         _______ _______ _______ _____ _____    ______ ____
ROOT
ATOM      1  C   UNL     1      -1.413  -2.063   0.004  0.00  0.00    -0.000 C 
ATOM      2  C   UNL     1      -2.848  -2.596   0.021  0.00  0.00    +0.009 C 
ATOM      3  C   UNL     1      -2.847  -4.105  -0.235  0.00  0.00    +0.037 C 
ATOM      4  C   UNL     1      -1.882  -4.765   0.740  0.00  0.00    -0.023 A 
ATOM      5  C   UNL     1      -0.932  -4.045   1.380  0.00  0.00    -0.004 A 
ATOM      6  S   UNL     1      -0.072  -5.223   2.386  0.00  0.00    -0.078 S 
ATOM      7  C   UNL     1      -0.919  -6.592   1.990  0.00  0.00    +0.080 A 
ATOM      8  C   UNL     1      -1.885  -6.180   1.065  0.00  0.00    +0.068 A 
ATOM      9  C   UNL     1      -2.795  -7.218   0.515  0.00  0.00    +0.220 C 
ATOM     10  N   UNL     1      -2.808  -8.384   1.103  0.00  0.00    -0.220 NA
ATOM     11  C   UNL     1      -2.041  -8.716   2.296  0.00  0.00    +0.260 C 
ATOM     12  N   UNL     1      -0.816  -7.902   2.399  0.00  0.00    -0.311 N 
ATOM     13  C   UNL     1      -0.676  -2.575   1.251  0.00  0.00    +0.046 C 
ATOM     14  H   UNL     1       0.016  -8.269   2.737  0.00  0.00    +0.149 HD
ENDROOT
BRANCH  11  15
ATOM     15  C   UNL     1      -2.895  -8.473   3.514  0.00  0.00    +0.148 A 
ATOM     16  C   UNL     1      -4.237  -8.586   3.567  0.00  0.00    +0.049 A 
ATOM     17  C   UNL     1      -4.625  -8.273   4.885  0.00  0.00    +0.050 A 
ATOM     18  C   UNL     1      -3.487  -7.984   5.571  0.00  0.00    +0.135 A 
ATOM     19  O   UNL     1      -2.445  -8.115   4.727  0.00  0.00    -0.456 OA
BRANCH  18  20
ATOM     20  C   UNL     1      -3.407  -7.598   6.995  0.00  0.00    +0.019 A 
ATOM     21  C   UNL     1      -4.569  -7.509   7.764  0.00  0.00    +0.012 A 
ATOM     22  C   UNL     1      -4.488  -7.149   9.093  0.00  0.00    +0.005 A 
ATOM     23  C   UNL     1      -3.258  -6.875   9.665  0.00  0.00    -0.032 A 
ATOM     24  C   UNL     1      -2.102  -6.960   8.909  0.00  0.00    +0.045 A 
ATOM     25  C   UNL     1      -2.169  -7.327   7.579  0.00  0.00    +0.031 A 
ATOM     26 CL   UNL     1      -0.563  -6.614   9.635  0.00  0.00    -0.083 Cl
ATOM     27  C   UNL     1      -3.177  -6.481  11.117  0.00  0.00    +0.045 C 
ENDBRANCH  18  20
ENDBRANCH  11  15
BRANCH   1  28
ATOM     28  C   UNL     1      -1.433  -0.534   0.013  0.00  0.00    -0.032 C 
ATOM     29  C   UNL     1      -2.149  -0.040   1.272  0.00  0.00    +0.011 C 
ATOM     30  C   UNL     1      -2.173  -0.027  -1.227  0.00  0.00    +0.011 C 
BRANCH  28  32
ATOM     31  C   UNL     1      -0.019   1.526   0.010  0.00  0.00    +0.004 C 
ATOM     32  C   UNL     1       0.002  -0.004   0.002  0.00  0.00    +0.003 C 
ENDBRANCH  28  32
ENDBRANCH   1  28
BRANCH   9  33
ATOM     33  O   UNL     1      -3.583  -6.964  -0.555  0.00  0.00    -0.492 OA
ATOM     34  H   UNL     1      -4.133  -7.712  -0.825  0.00  0.00    +0.294 HD
ENDBRANCH   9  33
TORSDOF 5
