REMARK  Name = ZINC45067837
REMARK  9 active torsions:
REMARK  status: ('A' for Active; 'I' for Inactive)
REMARK    1  A    between atoms: C_3  and  C_6
REMARK    2  A    between atoms: C_6  and  C_7
REMARK    3  A    between atoms: C_10  and  S_13
REMARK    4  A    between atoms: N_11  and  N_12
REMARK    5  A    between atoms: S_13  and  C_14
REMARK    6  A    between atoms: C_14  and  C_16
REMARK    7  A    between atoms: C_14  and  C_24
REMARK    8  A    between atoms: C_16  and  C_17
REMARK    9  A    between atoms: C_17  and  C_19
REMARK                            x       y       z     vdW  Elec       q    Type
REMARK                         _______ _______ _______ _____ _____    ______ ____
ROOT
ATOM      1  C   UNL     1       5.940   2.218   5.990  0.00  0.00    +0.092 C 
ENDROOT
BRANCH   1   2
ATOM      2  C   UNL     1       4.521   2.528   6.394  0.00  0.00    -0.034 A 
ATOM      3  C   UNL     1       3.729   1.540   6.947  0.00  0.00    +0.006 A 
ATOM      4  C   UNL     1       2.428   1.824   7.319  0.00  0.00    +0.015 A 
ATOM      5  C   UNL     1       1.919   3.097   7.136  0.00  0.00    +0.018 A 
ATOM      6  C   UNL     1       2.713   4.086   6.583  0.00  0.00    +0.015 A 
ATOM      7  C   UNL     1       4.015   3.802   6.217  0.00  0.00    +0.006 A 
ATOM      8 BR   UNL     1       0.140   3.486   7.643  0.00  0.00    -0.050 Br
ENDBRANCH   1   2
BRANCH   1   9
ATOM      9  S   UNL     1       5.938   0.911   4.732  0.00  0.00    -0.076 S 
BRANCH   9  13
ATOM     10  C   UNL     1       4.247   2.008   1.393  0.00  0.00    +0.156 A 
ATOM     11  N   UNL     1       4.137   3.077   2.129  0.00  0.00    -0.132 NA
ATOM     12  N   UNL     1       4.658   2.872   3.286  0.00  0.00    -0.121 NA
ATOM     13  C   UNL     1       5.133   1.650   3.350  0.00  0.00    +0.209 A 
ATOM     14  N   UNL     1       4.881   1.059   2.146  0.00  0.00    -0.228 N 
BRANCH  14  15
ATOM     15  N   UNL     1       5.199  -0.215   1.770  0.00  0.00    -0.295 N 
ATOM     16  H   UNL     1       6.117  -0.250   1.350  0.00  0.00    +0.163 HD
ATOM     17  H   UNL     1       5.135  -0.850   2.552  0.00  0.00    +0.163 HD
ENDBRANCH  14  15
BRANCH  10  18
ATOM     18  C   UNL     1       3.761   1.845  -0.024  0.00  0.00    +0.120 C 
BRANCH  18  21
ATOM     19  C   UNL     1      -0.016   1.351   0.009  0.00  0.00    +0.008 A 
ATOM     20  C   UNL     1       1.183   2.038   0.002  0.00  0.00    +0.011 A 
ATOM     21  C   UNL     1       2.343   1.336  -0.013  0.00  0.00    -0.003 A 
ATOM     22  S   UNL     1       1.754  -0.349  -0.017  0.00  0.00    -0.101 S 
ATOM     23  C   UNL     1       0.002  -0.004   0.002  0.00  0.00    +0.045 A 
ENDBRANCH  18  21
ENDBRANCH  10  18
ENDBRANCH   9  13
ENDBRANCH   1   9
BRANCH   1  24
ATOM     24  C   UNL     1       6.727   1.747   7.215  0.00  0.00    +0.099 C 
BRANCH  24  25
ATOM     25  C   UNL     1       8.174   1.554   6.838  0.00  0.00    +0.171 C 
ATOM     26  O   UNL     1       8.539   1.773   5.700  0.00  0.00    -0.291 OA
BRANCH  25  27
ATOM     27  C   UNL     1       9.104   1.120   7.807  0.00  0.00    +0.055 A 
ATOM     28  C   UNL     1      10.470   0.888   7.671  0.00  0.00    +0.019 A 
ATOM     29  C   UNL     1      11.117   0.466   8.805  0.00  0.00    +0.008 A 
ATOM     30  C   UNL     1      10.406   0.307   9.951  0.00  0.00    +0.046 A 
ATOM     31  S   UNL     1       8.838   0.733   9.527  0.00  0.00    -0.094 S 
ENDBRANCH  25  27
ENDBRANCH  24  25
ENDBRANCH   1  24
TORSDOF 9
