REMARK  Name = ZINC06830988
REMARK  9 active torsions:
REMARK  status: ('A' for Active; 'I' for Inactive)
REMARK    1  A    between atoms: C_1  and  C_2
REMARK    2  A    between atoms: C_2  and  C_4
REMARK    3  A    between atoms: C_2  and  S_15
REMARK    4  A    between atoms: N_6  and  C_7
REMARK    5  A    between atoms: C_7  and  C_13
REMARK    6  A    between atoms: S_15  and  C_16
REMARK    7  A    between atoms: N_21  and  C_22
REMARK    8  A    between atoms: C_27  and  O_28
REMARK    9  A    between atoms: O_28  and  C_29
REMARK                            x       y       z     vdW  Elec       q    Type
REMARK                         _______ _______ _______ _____ _____    ______ ____
ROOT
ATOM      1  S   UNL     1       4.351   1.992   2.653  0.00  0.00    -0.084 S 
ENDROOT
BRANCH   1   2
ATOM      2  C   UNL     1       5.940   2.737   2.503  0.00  0.00    +0.161 A 
ATOM      3  N   UNL     1       6.625   3.034   1.415  0.00  0.00    -0.133 NA
ATOM      4  N   UNL     1       7.865   3.620   1.526  0.00  0.00    -0.125 NA
ATOM      5  C   UNL     1       8.362   3.884   2.719  0.00  0.00    +0.187 A 
ATOM      6  S   UNL     1       7.051   3.301   3.783  0.00  0.00    -0.024 S 
ATOM      7  N   UNL     1       9.578   4.466   3.057  0.00  0.00    -0.289 N 
ATOM      8  H   UNL     1       9.848   4.520   3.987  0.00  0.00    +0.154 HD
BRANCH   7   9
ATOM      9  C   UNL     1      10.413   4.974   2.055  0.00  0.00    +0.075 A 
ATOM     10  C   UNL     1       9.955   5.070   0.749  0.00  0.00    +0.027 A 
ATOM     11  C   UNL     1      10.781   5.573  -0.238  0.00  0.00    +0.002 A 
ATOM     12  C   UNL     1      12.065   5.981   0.072  0.00  0.00    +0.004 A 
ATOM     13  C   UNL     1      12.529   5.889   1.372  0.00  0.00    +0.047 A 
ATOM     14  C   UNL     1      11.706   5.391   2.368  0.00  0.00    +0.141 A 
BRANCH  14  15
ATOM     15  O   UNL     1      12.159   5.304   3.647  0.00  0.00    -0.493 OA
ATOM     16  C   UNL     1      13.494   5.749   3.894  0.00  0.00    +0.277 C 
ENDBRANCH  14  15
ENDBRANCH   7   9
ENDBRANCH   1   2
BRANCH   1  18
ATOM     17  C   UNL     1       4.772   0.686   0.287  0.00  0.00    +0.029 C 
ATOM     18  C   UNL     1       3.836   1.706   0.937  0.00  0.00    +0.136 C 
BRANCH  18  19
ATOM     19  C   UNL     1       2.425   1.178   0.917  0.00  0.00    +0.227 C 
ATOM     20  O   UNL     1       1.953   0.671   1.913  0.00  0.00    -0.275 OA
ATOM     21  N   UNL     1       1.687   1.268  -0.207  0.00  0.00    -0.296 N 
ATOM     22  H   UNL     1       2.065   1.673  -1.004  0.00  0.00    +0.150 HD
BRANCH  21  23
ATOM     23  C   UNL     1       0.316   0.754  -0.227  0.00  0.00    +0.121 C 
ATOM     24  C   UNL     1      -0.520   1.490   0.823  0.00  0.00    +0.041 C 
ATOM     25  C   UNL     1      -1.952   0.953   0.802  0.00  0.00    +0.003 C 
ATOM     26  C   UNL     1      -2.561   1.178  -0.583  0.00  0.00    +0.000 C 
ATOM     27  C   UNL     1      -1.726   0.442  -1.633  0.00  0.00    +0.003 C 
ATOM     28  C   UNL     1      -0.294   0.979  -1.612  0.00  0.00    +0.041 C 
BRANCH  23  29
ATOM     29  C   UNL     1       0.327  -0.686   0.076  0.00  0.00    +0.088 C 
ATOM     30  N   UNL     1       0.336  -1.798   0.310  0.00  0.00    -0.194 NA
ENDBRANCH  23  29
ENDBRANCH  21  23
ENDBRANCH  18  19
ENDBRANCH   1  18
TORSDOF 7
