REMARK  Name = ZINC08620873
REMARK  6 active torsions:
REMARK  status: ('A' for Active; 'I' for Inactive)
REMARK    1  A    between atoms: C_1  and  C_2
REMARK    2  A    between atoms: C_2  and  C_4
REMARK    3  A    between atoms: C_2  and  O_16
REMARK    4  A    between atoms: O_16  and  C_17
REMARK    5  A    between atoms: C_17  and  C_19
REMARK    6  A    between atoms: C_32  and  C_33
REMARK                            x       y       z     vdW  Elec       q    Type
REMARK                         _______ _______ _______ _____ _____    ______ ____
ROOT
ATOM      1  C   UNL     1      -0.017   1.383   0.010  0.00  0.00    +0.073 A 
ATOM      2  C   UNL     1       1.272   2.077   0.001  0.00  0.00    +0.015 A 
ATOM      3  C   UNL     1       1.352   3.473   0.007  0.00  0.00    +0.011 A 
ATOM      4  C   UNL     1       2.575   4.078  -0.001  0.00  0.00    +0.001 A 
ATOM      5  C   UNL     1       3.744   3.321  -0.016  0.00  0.00    +0.002 A 
ATOM      6  C   UNL     1       3.701   1.960  -0.022  0.00  0.00    +0.028 A 
ATOM      7  C   UNL     1       2.458   1.301  -0.013  0.00  0.00    +0.072 A 
ATOM      8  N   UNL     1       2.384  -0.028  -0.020  0.00  0.00    -0.247 NA
ATOM      9  C   UNL     1       1.230  -0.689  -0.013  0.00  0.00    +0.072 A 
ATOM     10  C   UNL     1       0.002  -0.004   0.002  0.00  0.00    -0.007 A 
ATOM     11  C   UNL     1      -1.135  -0.996   0.007  0.00  0.00    +0.043 C 
ATOM     12  C   UNL     1      -0.490  -2.388  -0.006  0.00  0.00    +0.042 C 
ATOM     13  C   UNL     1       0.999  -2.144  -0.019  0.00  0.00    -0.018 C 
ATOM     14  C   UNL     1       1.956  -3.096  -0.033  0.00  0.00    +0.052 C 
ENDROOT
BRANCH  14  15
ATOM     15  C   UNL     1       1.581  -4.510  -0.037  0.00  0.00    +0.128 A 
ATOM     16  C   UNL     1       2.444  -5.570  -0.056  0.00  0.00    +0.049 A 
ATOM     17  C   UNL     1       1.655  -6.733  -0.049  0.00  0.00    +0.042 A 
ATOM     18  C   UNL     1       0.364  -6.338  -0.034  0.00  0.00    +0.195 A 
ATOM     19  O   UNL     1       0.323  -4.997  -0.027  0.00  0.00    -0.464 OA
ENDBRANCH  14  15
BRANCH   1  20
ATOM     20  C   UNL     1      -1.291   2.132   0.020  0.00  0.00    +0.341 C 
ATOM     21  O   UNL     1      -1.809   2.434   1.076  0.00  0.00    -0.245 OA
BRANCH  20  22
ATOM     22  O   UNL     1      -1.877   2.479  -1.142  0.00  0.00    -0.450 OA
BRANCH  22  24
ATOM     23  C   UNL     1      -2.835   4.715  -1.023  0.00  0.00    +0.060 C 
ATOM     24  C   UNL     1      -3.127   3.214  -1.056  0.00  0.00    +0.239 C 
BRANCH  24  25
ATOM     25  C   UNL     1      -3.980   2.894  -2.256  0.00  0.00    +0.151 A 
ATOM     26  N   UNL     1      -4.599   1.686  -2.304  0.00  0.00    -0.307 N 
ATOM     27  H   UNL     1      -4.481   1.057  -1.575  0.00  0.00    +0.170 HD
ATOM     28  C   UNL     1      -5.381   1.353  -3.358  0.00  0.00    +0.259 A 
ATOM     29  O   UNL     1      -5.944   0.276  -3.412  0.00  0.00    -0.267 OA
ATOM     30  C   UNL     1      -5.518   2.342  -4.438  0.00  0.00    +0.065 A 
ATOM     31  C   UNL     1      -6.295   2.096  -5.568  0.00  0.00    +0.015 A 
ATOM     32  C   UNL     1      -6.388   3.058  -6.550  0.00  0.00    +0.001 A 
ATOM     33  C   UNL     1      -5.716   4.266  -6.421  0.00  0.00    +0.002 A 
ATOM     34  C   UNL     1      -4.944   4.529  -5.312  0.00  0.00    +0.028 A 
ATOM     35  C   UNL     1      -4.833   3.570  -4.303  0.00  0.00    +0.078 A 
ATOM     36  N   UNL     1      -4.083   3.787  -3.194  0.00  0.00    -0.230 NA
ENDBRANCH  24  25
ENDBRANCH  22  24
ENDBRANCH  20  22
ENDBRANCH   1  20
TORSDOF 5
