REMARK  Name = ZINC40686592
REMARK  4 active torsions:
REMARK  status: ('A' for Active; 'I' for Inactive)
REMARK    1  A    between atoms: C_3  and  C_7
REMARK    2  A    between atoms: C_7  and  N_8
REMARK    3  A    between atoms: C_10  and  N_23
REMARK    4  A    between atoms: C_11  and  N_15
REMARK                            x       y       z     vdW  Elec       q    Type
REMARK                         _______ _______ _______ _____ _____    ______ ____
ROOT
ATOM      1  N   UNL     1       4.149   2.255   1.356  0.00  0.00    -0.323 N 
ATOM      2  C   UNL     1       5.356   2.898   1.601  0.00  0.00    +0.145 A 
ATOM      3  C   UNL     1       5.792   3.114   2.910  0.00  0.00    +0.105 A 
ATOM      4  C   UNL     1       7.012   3.764   3.100  0.00  0.00    +0.150 A 
ATOM      5  N   UNL     1       7.708   4.152   2.034  0.00  0.00    -0.219 NA
ATOM      6  C   UNL     1       7.261   3.930   0.815  0.00  0.00    +0.225 A 
ATOM      7  N   UNL     1       6.117   3.314   0.592  0.00  0.00    -0.219 NA
ATOM      8  H   UNL     1       3.600   1.954   2.097  0.00  0.00    +0.148 HD
ENDROOT
BRANCH   4   9
ATOM      9  N   UNL     1       7.492   4.004   4.383  0.00  0.00    -0.283 N 
ATOM     10  C   UNL     1       8.758   4.555   4.561  0.00  0.00    +0.124 A 
ATOM     11  C   UNL     1       9.276   4.692   5.845  0.00  0.00    +0.045 A 
ATOM     12  C   UNL     1      10.535   5.240   6.008  0.00  0.00    +0.025 A 
ATOM     13  C   UNL     1      11.238   5.635   4.875  0.00  0.00    +0.059 A 
ATOM     14  C   UNL     1      10.662   5.469   3.631  0.00  0.00    +0.132 A 
ATOM     15  N   UNL     1       9.460   4.938   3.506  0.00  0.00    -0.239 NA
ATOM     16 CL   UNL     1      12.822   6.329   5.024  0.00  0.00    -0.082 Cl
ATOM     17  H   UNL     1       6.945   3.788   5.155  0.00  0.00    +0.155 HD
ENDBRANCH   4   9
BRANCH   3  18
ATOM     18  N   UNL     1       5.024   2.687   4.006  0.00  0.00    -0.353 N 
ATOM     19  H   UNL     1       4.177   2.236   3.858  0.00  0.00    +0.143 HD
ATOM     20  H   UNL     1       5.339   2.844   4.910  0.00  0.00    +0.143 HD
ENDBRANCH   3  18
BRANCH   1  21
ATOM     21  C   UNL     1       3.706   2.029  -0.022  0.00  0.00    +0.139 C 
BRANCH  21  24
ATOM     22  C   UNL     1      -0.005   1.345   0.009  0.00  0.00    +0.020 A 
ATOM     23  C   UNL     1       1.194   2.041   0.001  0.00  0.00    +0.008 A 
ATOM     24  C   UNL     1       2.377   1.318  -0.012  0.00  0.00    -0.012 A 
ATOM     25  C   UNL     1       2.322  -0.063  -0.017  0.00  0.00    +0.115 A 
ATOM     26  N   UNL     1       1.163  -0.692  -0.010  0.00  0.00    -0.263 NA
ATOM     27  C   UNL     1       0.019  -0.037   0.004  0.00  0.00    +0.111 A 
ENDBRANCH  21  24
ENDBRANCH   1  21
TORSDOF 4
