REMARK  Name = ZINC33633147
REMARK  12 active torsions:
REMARK  status: ('A' for Active; 'I' for Inactive)
REMARK    1  A    between atoms: C_1  and  C_2
REMARK    2  A    between atoms: C_3  and  C_32
REMARK    3  A    between atoms: C_4  and  C_24
REMARK    4  A    between atoms: C_10  and  C_11
REMARK    5  A    between atoms: C_14  and  O_17
REMARK    6  A    between atoms: O_17  and  C_18
REMARK    7  A    between atoms: C_18  and  C_19
REMARK    8  A    between atoms: C_27  and  O_30
REMARK    9  A    between atoms: O_30  and  C_31
REMARK   10  A    between atoms: C_32  and  O_34
REMARK   11  A    between atoms: O_34  and  C_35
REMARK   12  A    between atoms: C_35  and  C_36
REMARK                            x       y       z     vdW  Elec       q    Type
REMARK                         _______ _______ _______ _____ _____    ______ ____
ROOT
ATOM      1  C   UNL     1       2.158  12.709  -2.814  0.00  0.00    +0.066 C 
ATOM      2  C   UNL     1       1.689  11.404  -2.224  0.00  0.00    +0.053 C 
ATOM      3  C   UNL     1       1.977  10.230  -2.860  0.00  0.00    +0.085 C 
ATOM      4  C   UNL     1       1.489   8.943  -2.236  0.00  0.00    +0.162 C 
ATOM      5  N   UNL     1       0.723   9.054  -0.963  0.00  0.00    -0.275 N 
ATOM      6  C   UNL     1       0.216   8.033  -0.259  0.00  0.00    +0.268 A 
ATOM      7  O   UNL     1       0.354   6.883  -0.633  0.00  0.00    -0.266 OA
ATOM      8  C   UNL     1      -0.517   8.344   0.976  0.00  0.00    +0.081 A 
ATOM      9  C   UNL     1      -1.123   7.504   1.855  0.00  0.00    +0.028 C 
ATOM     10  S   UNL     1      -0.389  10.125   1.013  0.00  0.00    -0.046 S 
ATOM     11  C   UNL     1       0.544  10.334  -0.491  0.00  0.00    +0.178 A 
ATOM     12  N   UNL     1       0.999  11.405  -1.090  0.00  0.00    -0.228 NA
ENDROOT
BRANCH   9  13
ATOM     13  C   UNL     1      -1.253   6.077   1.536  0.00  0.00    -0.024 A 
ATOM     14  C   UNL     1      -1.062   5.113   2.534  0.00  0.00    +0.011 A 
ATOM     15  C   UNL     1      -1.185   3.776   2.229  0.00  0.00    +0.046 A 
ATOM     16  C   UNL     1      -1.500   3.383   0.933  0.00  0.00    +0.121 A 
ATOM     17  C   UNL     1      -1.687   4.335  -0.062  0.00  0.00    +0.046 A 
ATOM     18  C   UNL     1      -1.570   5.674   0.232  0.00  0.00    +0.011 A 
BRANCH  16  19
ATOM     19  O   UNL     1      -1.621   2.063   0.638  0.00  0.00    -0.488 OA
BRANCH  19  20
ATOM     20  C   UNL     1      -1.946   1.727  -0.712  0.00  0.00    +0.256 C 
BRANCH  20  21
ATOM     21  C   UNL     1      -2.038   0.229  -0.849  0.00  0.00    +0.006 C 
ATOM     22  C   UNL     1      -3.035  -0.309  -1.506  0.00  0.00    +0.007 C 
ENDBRANCH  20  21
ENDBRANCH  19  20
ENDBRANCH  16  19
ENDBRANCH   9  13
BRANCH   4  23
ATOM     23  C   UNL     1       2.688   8.068  -1.980  0.00  0.00    -0.020 A 
ATOM     24  C   UNL     1       3.483   8.293  -0.872  0.00  0.00    +0.009 A 
ATOM     25  C   UNL     1       4.580   7.488  -0.632  0.00  0.00    +0.046 A 
ATOM     26  C   UNL     1       4.890   6.460  -1.511  0.00  0.00    +0.120 A 
ATOM     27  C   UNL     1       4.093   6.239  -2.625  0.00  0.00    +0.046 A 
ATOM     28  C   UNL     1       2.994   7.043  -2.857  0.00  0.00    +0.009 A 
BRANCH  26  29
ATOM     29  O   UNL     1       5.971   5.669  -1.280  0.00  0.00    -0.495 OA
ATOM     30  C   UNL     1       6.745   5.954  -0.113  0.00  0.00    +0.277 C 
ENDBRANCH  26  29
ENDBRANCH   4  23
BRANCH   3  31
ATOM     31  C   UNL     1       2.707  10.219  -4.060  0.00  0.00    +0.340 C 
ATOM     32  O   UNL     1       3.093  11.266  -4.548  0.00  0.00    -0.245 OA
BRANCH  31  33
ATOM     33  O   UNL     1       2.982   9.047  -4.673  0.00  0.00    -0.457 OA
BRANCH  33  34
ATOM     34  C   UNL     1       3.728   9.111  -5.890  0.00  0.00    +0.259 C 
BRANCH  34  35
ATOM     35  C   UNL     1       3.936   7.717  -6.425  0.00  0.00    +0.006 C 
ATOM     36  C   UNL     1       3.749   7.469  -7.698  0.00  0.00    +0.007 C 
ENDBRANCH  34  35
ENDBRANCH  33  34
ENDBRANCH  31  33
ENDBRANCH   3  31
TORSDOF 10
