REMARK  Name = ZINC23054922
REMARK  8 active torsions:
REMARK  status: ('A' for Active; 'I' for Inactive)
REMARK    1  A    between atoms: C_1  and  C_2
REMARK    2  A    between atoms: C_2  and  C_4
REMARK    3  A    between atoms: C_2  and  N_12
REMARK    4  A    between atoms: N_12  and  C_13
REMARK    5  A    between atoms: C_13  and  C_15
REMARK    6  A    between atoms: C_13  and  C_16
REMARK    7  A    between atoms: N_18  and  C_19
REMARK    8  A    between atoms: C_21  and  N_26
REMARK                            x       y       z     vdW  Elec       q    Type
REMARK                         _______ _______ _______ _____ _____    ______ ____
ROOT
ATOM      1  C   UNL     1       1.350   1.558   0.011  0.00  0.00    +0.014 C 
ATOM      2  C   UNL     1       1.366   2.910   0.726  0.00  0.00    -0.004 C 
ENDROOT
BRANCH   1   3
ATOM      3  C   UNL     1       2.277   0.604   0.719  0.00  0.00    +0.203 C 
ATOM      4  O   UNL     1       1.843  -0.427   1.188  0.00  0.00    -0.277 OA
ATOM      5  N   UNL     1       3.587   0.897   0.832  0.00  0.00    -0.286 N 
ATOM      6  H   UNL     1       3.998   1.786   0.330  0.00  0.00    +0.155 HD
BRANCH   5   7
ATOM      7  C   UNL     1       4.427   0.071   1.589  0.00  0.00    +0.054 A 
ATOM      8  C   UNL     1       3.899  -0.709   2.610  0.00  0.00    +0.057 A 
ATOM      9  C   UNL     1       4.730  -1.524   3.354  0.00  0.00    +0.128 A 
ATOM     10  C   UNL     1       6.086  -1.563   3.085  0.00  0.00    +0.034 A 
ATOM     11  C   UNL     1       6.615  -0.789   2.069  0.00  0.00    +0.024 A 
ATOM     12  C   UNL     1       5.788   0.024   1.316  0.00  0.00    +0.062 A 
ATOM     13 CL   UNL     1       6.452   0.991   0.036  0.00  0.00    -0.082 Cl
BRANCH   9  14
ATOM     14  N   UNL     1       4.168  -2.355   4.442  0.00  0.00    +0.056 N 
ATOM     15  O   UNL     1       2.974  -2.321   4.680  0.00  0.00    -0.126 OA
ATOM     16  O   UNL     1       4.900  -3.074   5.099  0.00  0.00    -0.126 OA
ENDBRANCH   9  14
ENDBRANCH   5   7
ENDBRANCH   1   3
BRANCH   1  17
ATOM     17  N   UNL     1      -0.015   1.014   0.022  0.00  0.00    +0.391 N 
ATOM     18  H   UNL     1      -0.496   1.289   0.972  0.00  0.00    -0.084 HD
ATOM     19  H   UNL     1       0.042  -0.082  -0.056  0.00  0.00    -0.084 HD
BRANCH  17  21
ATOM     20  C   UNL     1      -0.546   0.699  -2.348  0.00  0.00    -0.009 C 
ATOM     21  C   UNL     1      -0.802   1.545  -1.099  0.00  0.00    -0.043 C 
BRANCH  21  22
ATOM     22  C   UNL     1      -2.268   1.495  -0.750  0.00  0.00    -0.060 A 
ATOM     23  C   UNL     1      -2.782   0.401  -0.080  0.00  0.00    +0.003 A 
ATOM     24  C   UNL     1      -4.125   0.356   0.244  0.00  0.00    +0.021 A 
ATOM     25  C   UNL     1      -4.957   1.403  -0.112  0.00  0.00    +0.059 A 
ATOM     26  C   UNL     1      -4.443   2.496  -0.788  0.00  0.00    +0.059 A 
ATOM     27  C   UNL     1      -3.098   2.541  -1.107  0.00  0.00    +0.023 A 
ATOM     28 CL   UNL     1      -5.486   3.810  -1.234  0.00  0.00    -0.082 Cl
ATOM     29 CL   UNL     1      -6.645   1.344   0.289  0.00  0.00    -0.082 Cl
ENDBRANCH  21  22
ENDBRANCH  17  21
ENDBRANCH   1  17
TORSDOF 6
