REMARK  Name = ZINC39862662
REMARK  2 active torsions:
REMARK  status: ('A' for Active; 'I' for Inactive)
REMARK    1  A    between atoms: C_4  and  N_7
REMARK    2  A    between atoms: N_23  and  C_24
REMARK                            x       y       z     vdW  Elec       q    Type
REMARK                         _______ _______ _______ _____ _____    ______ ____
ROOT
ATOM      1  N   UNL     1       3.621  -0.656  -0.084  0.00  0.00    -0.214 N 
ATOM      2  C   UNL     1       4.748   0.025  -0.203  0.00  0.00    +0.264 C 
ATOM      3  O   UNL     1       4.753   1.232  -0.347  0.00  0.00    -0.269 OA
ATOM      4  C   UNL     1       6.010  -0.759  -0.151  0.00  0.00    +0.091 C 
ATOM      5  C   UNL     1       7.319  -0.323  -0.246  0.00  0.00    +0.065 C 
ATOM      6  C   UNL     1       7.803   1.074  -0.254  0.00  0.00    +0.010 A 
ATOM      7  C   UNL     1       7.160   2.306  -0.176  0.00  0.00    +0.010 A 
ATOM      8  C   UNL     1       7.903   3.469  -0.210  0.00  0.00    +0.001 A 
ATOM      9  C   UNL     1       9.283   3.408  -0.322  0.00  0.00    +0.002 A 
ATOM     10  C   UNL     1       9.930   2.191  -0.400  0.00  0.00    +0.024 A 
ATOM     11  C   UNL     1       9.199   1.008  -0.367  0.00  0.00    +0.042 A 
ATOM     12  N   UNL     1       9.593  -0.324  -0.427  0.00  0.00    -0.281 N 
ATOM     13  C   UNL     1       8.536  -1.150  -0.354  0.00  0.00    +0.250 C 
ATOM     14  O   UNL     1       8.575  -2.366  -0.377  0.00  0.00    -0.270 OA
ATOM     15  S   UNL     1       5.380  -2.417   0.068  0.00  0.00    -0.048 S 
ATOM     16  C   UNL     1       3.639  -2.024   0.084  0.00  0.00    +0.174 C 
ATOM     17  N   UNL     1       2.620  -2.842   0.222  0.00  0.00    -0.206 NA
ATOM     18  H   UNL     1      10.513  -0.619  -0.508  0.00  0.00    +0.155 HD
ENDROOT
BRANCH   1  22
ATOM     19  C   UNL     1      -0.025   1.360  -0.204  0.00  0.00    +0.000 A 
ATOM     20  C   UNL     1       0.401   0.774   0.974  0.00  0.00    +0.002 A 
ATOM     21  C   UNL     1       1.609   0.106   1.017  0.00  0.00    +0.024 A 
ATOM     22  C   UNL     1       2.395   0.021  -0.124  0.00  0.00    +0.043 A 
ATOM     23  C   UNL     1       1.964   0.610  -1.306  0.00  0.00    +0.024 A 
ATOM     24  C   UNL     1       0.756   1.278  -1.342  0.00  0.00    +0.002 A 
ENDBRANCH   1  22
BRANCH  17  25
ATOM     25  C   UNL     1       2.836  -4.180   0.380  0.00  0.00    +0.155 A 
ATOM     26  C   UNL     1       1.748  -5.047   0.521  0.00  0.00    +0.048 A 
ATOM     27  C   UNL     1       1.984  -6.399   0.679  0.00  0.00    +0.005 A 
ATOM     28  C   UNL     1       3.299  -6.847   0.692  0.00  0.00    +0.020 A 
ATOM     29  C   UNL     1       4.328  -5.936   0.548  0.00  0.00    +0.113 A 
ATOM     30  N   UNL     1       4.079  -4.651   0.393  0.00  0.00    -0.236 NA
ENDBRANCH  17  25
TORSDOF 2
