REMARK  Name = ZINC04697952
REMARK  9 active torsions:
REMARK  status: ('A' for Active; 'I' for Inactive)
REMARK    1  A    between atoms: C_1  and  C_2
REMARK    2  A    between atoms: C_2  and  C_33
REMARK    3  A    between atoms: C_3  and  C_4
REMARK    4  A    between atoms: C_6  and  C_11
REMARK    5  A    between atoms: C_8  and  C_9
REMARK    6  A    between atoms: C_8  and  C_10
REMARK    7  A    between atoms: N_13  and  C_14
REMARK    8  A    between atoms: C_17  and  N_20
REMARK    9  A    between atoms: C_21  and  C_23
REMARK                            x       y       z     vdW  Elec       q    Type
REMARK                         _______ _______ _______ _____ _____    ______ ____
ROOT
ATOM      1  C   UNL     1       0.628   4.926   1.516  0.00  0.00    +0.034 A 
ATOM      2  C   UNL     1       1.833   4.237   1.523  0.00  0.00    +0.025 A 
ATOM      3  C   UNL     1       1.849   2.877   1.755  0.00  0.00    +0.025 A 
ATOM      4  C   UNL     1       0.659   2.197   1.982  0.00  0.00    +0.034 A 
ATOM      5  C   UNL     1      -0.546   2.885   1.970  0.00  0.00    +0.025 A 
ATOM      6  C   UNL     1      -0.562   4.247   1.744  0.00  0.00    +0.025 A 
ENDROOT
BRANCH   1   9
ATOM      7  C   UNL     1      -0.428   6.868   0.630  0.00  0.00    +0.221 C 
ATOM      8  O   UNL     1      -1.305   6.167   0.171  0.00  0.00    -0.275 OA
ATOM      9  N   UNL     1       0.612   6.307   1.280  0.00  0.00    -0.285 N 
ATOM     10  H   UNL     1       1.348   6.860   1.584  0.00  0.00    +0.155 HD
BRANCH   7  12
ATOM     11  C   UNL     1      -0.557   8.925  -0.948  0.00  0.00    +0.030 C 
ATOM     12  C   UNL     1      -0.500   8.365   0.474  0.00  0.00    +0.089 C 
ATOM     13  C   UNL     1      -1.804   8.957  -0.063  0.00  0.00    -0.016 C 
ATOM     14  C   UNL     1      -2.936   7.984  -0.401  0.00  0.00    +0.012 C 
ATOM     15  C   UNL     1      -2.244  10.314   0.490  0.00  0.00    +0.012 C 
BRANCH  11  18
ATOM     16  C   UNL     1      -0.292   9.838  -3.600  0.00  0.00    +0.038 C 
ATOM     17  C   UNL     1      -0.414   8.362  -3.320  0.00  0.00    -0.079 C 
ATOM     18  C   UNL     1      -0.537   7.938  -2.087  0.00  0.00    -0.023 C 
ATOM     19  C   UNL     1      -0.394   7.374  -4.458  0.00  0.00    +0.038 C 
ENDBRANCH  11  18
ENDBRANCH   7  12
ENDBRANCH   1   9
BRANCH   4  20
ATOM     20  N   UNL     1       0.676   0.817   2.218  0.00  0.00    -0.285 N 
ATOM     21  C   UNL     1       1.716   0.255   2.865  0.00  0.00    +0.223 C 
ATOM     22  O   UNL     1       2.591   0.956   3.328  0.00  0.00    -0.275 OA
ATOM     23  H   UNL     1      -0.062   0.264   1.915  0.00  0.00    +0.155 HD
BRANCH  21  24
ATOM     24  C   UNL     1       1.792  -1.242   3.013  0.00  0.00    +0.048 C 
ATOM     25  C   UNL     1       1.825  -1.891   1.628  0.00  0.00    +0.019 C 
ATOM     26  C   UNL     1       1.903  -3.412   1.778  0.00  0.00    -0.009 C 
ATOM     27  C   UNL     1       3.172  -3.784   2.546  0.00  0.00    +0.007 C 
ATOM     28  C   UNL     1       3.139  -3.136   3.931  0.00  0.00    -0.009 C 
ATOM     29  C   UNL     1       3.062  -1.615   3.781  0.00  0.00    +0.019 C 
ATOM     30  C   UNL     1       1.914  -3.635   4.699  0.00  0.00    +0.007 C 
ATOM     31  C   UNL     1       0.644  -3.263   3.931  0.00  0.00    -0.009 C 
ATOM     32  C   UNL     1       0.677  -3.911   2.546  0.00  0.00    +0.007 C 
ATOM     33  C   UNL     1       0.567  -1.742   3.781  0.00  0.00    +0.019 C 
ENDBRANCH  21  24
ENDBRANCH   4  20
TORSDOF 5
