REMARK  Name = ZINC40205466
REMARK  9 active torsions:
REMARK  status: ('A' for Active; 'I' for Inactive)
REMARK    1  A    between atoms: C_1  and  C_2
REMARK    2  A    between atoms: C_7  and  C_9
REMARK    3  A    between atoms: C_7  and  C_10
REMARK    4  A    between atoms: N_11  and  C_13
REMARK    5  A    between atoms: C_13  and  C_14
REMARK    6  A    between atoms: N_16  and  C_17
REMARK    7  A    between atoms: C_26  and  C_27
REMARK    8  A    between atoms: C_27  and  O_29
REMARK    9  A    between atoms: O_29  and  C_30
REMARK                            x       y       z     vdW  Elec       q    Type
REMARK                         _______ _______ _______ _____ _____    ______ ____
ROOT
ATOM      1  C   UNL     1      -3.516  -2.510  -0.173  0.00  0.00    +0.201 C 
ATOM      2  O   UNL     1      -3.824  -1.337  -0.155  0.00  0.00    -0.278 OA
ATOM      3  N   UNL     1      -4.471  -3.458  -0.112  0.00  0.00    -0.285 N 
ATOM      4  H   UNL     1      -4.233  -4.394  -0.205  0.00  0.00    +0.155 HD
ENDROOT
BRANCH   3   5
ATOM      5  C   UNL     1      -5.800  -3.096   0.085  0.00  0.00    +0.073 A 
ATOM      6  C   UNL     1      -6.480  -1.926  -0.476  0.00  0.00    +0.022 A 
ATOM      7  C   UNL     1      -6.069  -0.883  -1.312  0.00  0.00    +0.012 A 
ATOM      8  C   UNL     1      -6.958   0.089  -1.671  0.00  0.00    +0.001 A 
ATOM      9  C   UNL     1      -8.269   0.051  -1.211  0.00  0.00    +0.002 A 
ATOM     10  C   UNL     1      -8.695  -0.966  -0.387  0.00  0.00    +0.026 A 
ATOM     11  C   UNL     1      -7.806  -1.970  -0.008  0.00  0.00    +0.049 A 
ATOM     12  N   UNL     1      -7.939  -3.085   0.785  0.00  0.00    -0.348 N 
ATOM     13  H   UNL     1      -8.755  -3.354   1.236  0.00  0.00    +0.166 HD
ATOM     14  C   UNL     1      -6.735  -3.771   0.841  0.00  0.00    +0.147 A 
BRANCH  14  15
ATOM     15  C   UNL     1      -6.503  -4.971   1.561  0.00  0.00    +0.357 C 
ATOM     16  O   UNL     1      -5.379  -5.434   1.625  0.00  0.00    -0.243 OA
BRANCH  15  17
ATOM     17  O   UNL     1      -7.527  -5.599   2.174  0.00  0.00    -0.463 OA
ATOM     18  C   UNL     1      -7.221  -6.802   2.881  0.00  0.00    +0.280 C 
ENDBRANCH  15  17
ENDBRANCH  14  15
ENDBRANCH   3   5
BRANCH   1  19
ATOM     19  C   UNL     1      -2.065  -2.907  -0.264  0.00  0.00    +0.019 C 
BRANCH  19  29
ATOM     20  C   UNL     1       0.120   1.039   1.692  0.00  0.00    +0.009 C 
ATOM     21  C   UNL     1       0.089  -0.433   1.253  0.00  0.00    -0.048 C 
ATOM     22  C   UNL     1       0.875  -0.673  -0.066  0.00  0.00    -0.011 C 
ATOM     23  C   UNL     1       0.198  -1.994  -0.526  0.00  0.00    -0.067 C 
ATOM     24  C   UNL     1       0.703  -3.109   0.370  0.00  0.00    -0.009 C 
ATOM     25  C   UNL     1       0.786  -2.819   1.852  0.00  0.00    -0.036 C 
ATOM     26  C   UNL     1       0.693  -1.373   2.296  0.00  0.00    +0.011 C 
ATOM     27  C   UNL     1      -0.281  -3.645   2.596  0.00  0.00    +0.011 C 
ATOM     28  C   UNL     1       2.156  -3.356   2.344  0.00  0.00    +0.011 C 
ATOM     29  N   UNL     1      -1.236  -1.709  -0.318  0.00  0.00    +0.388 N 
ATOM     30  C   UNL     1      -1.341  -0.917   0.922  0.00  0.00    -0.071 C 
ATOM     31  H   UNL     1      -1.560  -1.124  -1.091  0.00  0.00    -0.081 HD
ENDBRANCH  19  29
ENDBRANCH   1  19
TORSDOF 5
