REMARK  Name = ZINC62538673
REMARK  3 active torsions:
REMARK  status: ('A' for Active; 'I' for Inactive)
REMARK    1  A    between atoms: C_8  and  C_10
REMARK    2  A    between atoms: C_10  and  C_11
REMARK    3  A    between atoms: C_11  and  C_12
REMARK                            x       y       z     vdW  Elec       q    Type
REMARK                         _______ _______ _______ _____ _____    ______ ____
ROOT
ATOM      1  C   UNL     1      -0.017   1.382   0.010  0.00  0.00    +0.068 A 
ATOM      2  C   UNL     1       1.171   2.086   0.002  0.00  0.00    +0.046 A 
ATOM      3  C   UNL     1       2.386   1.416  -0.014  0.00  0.00    +0.042 A 
ATOM      4  C   UNL     1       2.422   0.039  -0.022  0.00  0.00    +0.071 A 
ATOM      5  C   UNL     1       1.228  -0.686  -0.014  0.00  0.00    +0.128 A 
ATOM      6  C   UNL     1       0.002  -0.004   0.002  0.00  0.00    +0.158 A 
ATOM      7  O   UNL     1      -0.958  -0.955   0.005  0.00  0.00    -0.440 OA
ATOM      8  C   UNL     1      -0.358  -2.156  -0.007  0.00  0.00    +0.197 A 
ATOM      9  N   UNL     1       0.933  -2.014  -0.018  0.00  0.00    -0.212 NA
ATOM     10 CL   UNL     1       3.946  -0.793  -0.043  0.00  0.00    -0.081 Cl
ATOM     11 CL   UNL     1       1.144   3.822   0.012  0.00  0.00    -0.083 Cl
ENDROOT
BRANCH   8  12
ATOM     12  C   UNL     1      -1.080  -3.479  -0.008  0.00  0.00    +0.107 C 
BRANCH  12  13
ATOM     13  C   UNL     1      -1.310  -3.935   1.435  0.00  0.00    +0.134 C 
BRANCH  13  14
ATOM     14  C   UNL     1      -2.031  -5.258   1.434  0.00  0.00    +0.356 C 
ATOM     15  O   UNL     1      -2.333  -5.787   0.378  0.00  0.00    -0.246 OA
ATOM     16  O   UNL     1      -2.313  -5.799   2.490  0.00  0.00    -0.246 OA
ENDBRANCH  13  14
ENDBRANCH  12  13
ENDBRANCH   8  12
TORSDOF 3
