REMARK  Name = ZINC06244920
REMARK  7 active torsions:
REMARK  status: ('A' for Active; 'I' for Inactive)
REMARK    1  A    between atoms: C_1  and  C_2
REMARK    2  A    between atoms: C_5  and  C_38
REMARK    3  A    between atoms: C_9  and  C_14
REMARK    4  A    between atoms: C_14  and  C_16
REMARK    5  A    between atoms: C_14  and  N_28
REMARK    6  A    between atoms: N_20  and  C_21
REMARK    7  A    between atoms: C_21  and  C_22
REMARK                            x       y       z     vdW  Elec       q    Type
REMARK                         _______ _______ _______ _____ _____    ______ ____
ROOT
ATOM      1  C   UNL     1       2.849   4.724   1.887  0.00  0.00    +0.179 C 
ENDROOT
BRANCH   1  10
ATOM      2  C   UNL     1       6.455   5.374  -1.813  0.00  0.00    +0.044 C 
ATOM      3  C   UNL     1       6.223   6.718  -1.173  0.00  0.00    -0.041 A 
ATOM      4  C   UNL     1       6.917   7.813  -1.606  0.00  0.00    +0.004 A 
ATOM      5  C   UNL     1       6.711   9.055  -1.023  0.00  0.00    +0.005 A 
ATOM      6  C   UNL     1       5.802   9.210   0.002  0.00  0.00    -0.026 A 
ATOM      7  C   UNL     1       5.083   8.110   0.458  0.00  0.00    +0.052 A 
ATOM      8  C   UNL     1       5.295   6.851  -0.135  0.00  0.00    +0.002 A 
ATOM      9  C   UNL     1       4.534   5.699   0.352  0.00  0.00    +0.021 A 
ATOM     10  C   UNL     1       3.648   5.888   1.361  0.00  0.00    +0.045 A 
ATOM     11  C   UNL     1       3.469   7.173   1.918  0.00  0.00    +0.255 A 
ATOM     12  O   UNL     1       2.664   7.322   2.821  0.00  0.00    -0.268 OA
ATOM     13  N   UNL     1       4.167   8.235   1.481  0.00  0.00    -0.322 N 
ATOM     14  H   UNL     1       4.022   9.104   1.889  0.00  0.00    +0.169 HD
ATOM     15  C   UNL     1       5.587  10.565   0.625  0.00  0.00    +0.046 C 
ENDBRANCH   1  10
BRANCH   1  16
ATOM     16  N   UNL     1       2.925   4.699   3.353  0.00  0.00    -0.316 N 
ATOM     17  C   UNL     1       1.715   4.113   3.932  0.00  0.00    +0.106 C 
ATOM     18  C   UNL     1       1.863   4.089   5.459  0.00  0.00    +0.024 C 
ATOM     19  C   UNL     1       2.957   3.079   5.811  0.00  0.00    +0.038 C 
ATOM     20  C   UNL     1       4.162   3.310   4.934  0.00  0.00    -0.026 A 
ATOM     21  C   UNL     1       4.095   4.074   3.782  0.00  0.00    +0.034 A 
ATOM     22  C   UNL     1       5.241   4.239   3.002  0.00  0.00    +0.023 A 
ATOM     23  C   UNL     1       6.431   3.651   3.377  0.00  0.00    +0.002 A 
ATOM     24  C   UNL     1       6.493   2.893   4.531  0.00  0.00    +0.000 A 
ATOM     25  C   UNL     1       5.362   2.724   5.305  0.00  0.00    +0.005 A 
ENDBRANCH   1  16
BRANCH   1  26
ATOM     26  C   UNL     1       1.410   4.870   1.461  0.00  0.00    +0.176 A 
ATOM     27  N   UNL     1       0.557   5.770   1.884  0.00  0.00    -0.111 NA
ATOM     28  N   UNL     1      -0.567   5.564   1.288  0.00  0.00    -0.023 NA
ATOM     29  N   UNL     1      -0.450   4.560   0.491  0.00  0.00    -0.044 NA
ATOM     30  N   UNL     1       0.753   4.101   0.574  0.00  0.00    -0.225 N 
BRANCH  30  31
ATOM     31  C   UNL     1       1.302   2.960  -0.164  0.00  0.00    +0.179 C 
BRANCH  31  32
ATOM     32  C   UNL     1       1.089   1.679   0.644  0.00  0.00    +0.140 C 
ATOM     33  C   UNL     1       1.672   0.456  -0.107  0.00  0.00    +0.035 C 
ATOM     34  C   UNL     1       0.842  -0.712   0.480  0.00  0.00    +0.031 C 
ATOM     35  C   UNL     1      -0.420  -0.032   1.044  0.00  0.00    +0.160 C 
ATOM     36  O   UNL     1      -0.318   1.371   0.748  0.00  0.00    -0.375 OA
ENDBRANCH  31  32
ENDBRANCH  30  31
ENDBRANCH   1  26
TORSDOF 5
