REMARK  Name = ZINC43090676
REMARK  7 active torsions:
REMARK  status: ('A' for Active; 'I' for Inactive)
REMARK    1  A    between atoms: C_1  and  C_2
REMARK    2  A    between atoms: C_2  and  C_3
REMARK    3  A    between atoms: C_3  and  C_5
REMARK    4  A    between atoms: C_3  and  N_24
REMARK    5  A    between atoms: C_5  and  C_7
REMARK    6  A    between atoms: C_5  and  N_14
REMARK    7  A    between atoms: C_18  and  C_21
REMARK                            x       y       z     vdW  Elec       q    Type
REMARK                         _______ _______ _______ _____ _____    ______ ____
ROOT
ATOM      1  C   UNL     1      -1.523  -2.050   0.192  0.00  0.00    -0.051 C 
ENDROOT
BRANCH   1   2
ATOM      2  C   UNL     1      -2.992  -2.385   0.185  0.00  0.00    -0.049 A 
ATOM      3  C   UNL     1      -3.714  -2.350   1.363  0.00  0.00    +0.003 A 
ATOM      4  C   UNL     1      -5.062  -2.657   1.357  0.00  0.00    +0.000 A 
ATOM      5  C   UNL     1      -5.688  -2.999   0.173  0.00  0.00    +0.001 A 
ATOM      6  C   UNL     1      -4.967  -3.034  -1.005  0.00  0.00    +0.015 A 
ATOM      7  C   UNL     1      -3.619  -2.723  -1.000  0.00  0.00    +0.019 A 
ATOM      8 BR   UNL     1      -2.633  -2.764  -2.613  0.00  0.00    -0.050 Br
ENDBRANCH   1   2
BRANCH   1   9
ATOM      9  N   UNL     1      -0.918  -2.526   1.444  0.00  0.00    +0.384 N 
ATOM     10  C   UNL     1       0.513  -2.196   1.450  0.00  0.00    -0.078 C 
ATOM     11  C   UNL     1       1.131  -2.616   2.785  0.00  0.00    -0.018 C 
ATOM     12  C   UNL     1       0.953  -4.125   2.972  0.00  0.00    +0.009 C 
ATOM     13  C   UNL     1      -0.538  -4.467   2.889  0.00  0.00    +0.058 C 
ATOM     14  C   UNL     1      -1.094  -3.979   1.550  0.00  0.00    -0.065 C 
ATOM     15  H   UNL     1      -1.368  -2.075   2.226  0.00  0.00    -0.081 HD
BRANCH  13  16
ATOM     16  C   UNL     1      -0.718  -5.960   2.995  0.00  0.00    +0.212 C 
ATOM     17  O   UNL     1      -1.244  -6.573   2.091  0.00  0.00    -0.276 OA
ATOM     18  N   UNL     1      -0.295  -6.613   4.096  0.00  0.00    -0.329 N 
ATOM     19  H   UNL     1       0.125  -6.122   4.820  0.00  0.00    +0.145 HD
ATOM     20  H   UNL     1      -0.412  -7.573   4.165  0.00  0.00    +0.145 HD
ENDBRANCH  13  16
ENDBRANCH   1   9
BRANCH   1  21
ATOM     21  C   UNL     1      -1.345  -0.535   0.083  0.00  0.00    -0.085 C 
BRANCH  21  22
ATOM     22  N   UNL     1      -2.011   0.120   1.216  0.00  0.00    +0.379 N 
ATOM     23  H   UNL     1      -1.603  -0.205   2.080  0.00  0.00    -0.090 HD
ATOM     24  H   UNL     1      -1.894   1.119   1.144  0.00  0.00    -0.090 HD
ATOM     25  H   UNL     1      -2.995  -0.105   1.203  0.00  0.00    -0.090 HD
ENDBRANCH  21  22
BRANCH  21  27
ATOM     26  C   UNL     1      -1.680   1.452  -1.394  0.00  0.00    +0.002 C 
ATOM     27  C   UNL     1      -1.963  -0.042  -1.227  0.00  0.00    -0.021 C 
ENDBRANCH  21  27
ENDBRANCH   1  21
TORSDOF 6
