REMARK  Name = ZINC49739582
REMARK  5 active torsions:
REMARK  status: ('A' for Active; 'I' for Inactive)
REMARK    1  A    between atoms: C_1  and  N_2
REMARK    2  A    between atoms: C_10  and  C_14
REMARK    3  A    between atoms: C_14  and  N_15
REMARK    4  A    between atoms: N_15  and  S_16
REMARK    5  A    between atoms: S_16  and  C_19
REMARK                            x       y       z     vdW  Elec       q    Type
REMARK                         _______ _______ _______ _____ _____    ______ ____
ROOT
ATOM      1  C   UNL     1       1.178  -2.539  -1.638  0.00  0.00    +0.160 C 
ENDROOT
BRANCH   1  11
ATOM      2  C   UNL     1      -0.018   1.461   0.010  0.00  0.00    +0.138 C 
ATOM      3  N   UNL     1       0.002  -0.004   0.002  0.00  0.00    -0.268 N 
ATOM      4  C   UNL     1      -1.197  -0.730   0.004  0.00  0.00    +0.078 A 
ATOM      5  C   UNL     1      -2.407  -0.091  -0.215  0.00  0.00    +0.027 A 
ATOM      6  C   UNL     1      -3.580  -0.823  -0.224  0.00  0.00    +0.002 A 
ATOM      7  C   UNL     1      -3.548  -2.190  -0.014  0.00  0.00    +0.004 A 
ATOM      8  C   UNL     1      -2.344  -2.832   0.210  0.00  0.00    +0.047 A 
ATOM      9  C   UNL     1      -1.166  -2.105   0.225  0.00  0.00    +0.143 A 
ATOM     10  O   UNL     1       0.020  -2.720   0.476  0.00  0.00    -0.476 OA
ATOM     11  C   UNL     1       1.181  -2.172  -0.152  0.00  0.00    +0.274 C 
ATOM     12  C   UNL     1       1.175  -0.671  -0.013  0.00  0.00    +0.262 C 
ATOM     13  O   UNL     1       2.221  -0.066   0.090  0.00  0.00    -0.271 OA
ENDBRANCH   1  11
BRANCH   1  14
ATOM     14  N   UNL     1       1.188  -3.997  -1.780  0.00  0.00    -0.186 NA
ATOM     15  H   UNL     1       1.412  -4.557  -1.021  0.00  0.00    +0.148 HD
BRANCH  14  16
ATOM     16  S   UNL     1       0.816  -4.689  -3.238  0.00  0.00    +0.059 S 
ATOM     17  O   UNL     1       0.938  -6.094  -3.064  0.00  0.00    -0.153 OA
ATOM     18  O   UNL     1      -0.388  -4.078  -3.682  0.00  0.00    -0.153 OA
BRANCH  16  19
ATOM     19  C   UNL     1       2.072  -4.211  -4.377  0.00  0.00    +0.105 A 
ATOM     20  C   UNL     1       1.930  -3.052  -5.117  0.00  0.00    +0.031 A 
ATOM     21  C   UNL     1       2.916  -2.676  -6.010  0.00  0.00    +0.040 A 
ATOM     22  C   UNL     1       4.045  -3.462  -6.164  0.00  0.00    +0.124 A 
ATOM     23  C   UNL     1       4.187  -4.622  -5.423  0.00  0.00    +0.040 A 
ATOM     24  C   UNL     1       3.203  -4.993  -4.527  0.00  0.00    +0.031 A 
ATOM     25  F   UNL     1       5.009  -3.095  -7.037  0.00  0.00    -0.205 F 
ENDBRANCH  16  19
ENDBRANCH  14  16
ENDBRANCH   1  14
TORSDOF 4
