REMARK  Name = ZINC23516650
REMARK  14 active torsions:
REMARK  status: ('A' for Active; 'I' for Inactive)
REMARK    1  A    between atoms: C_1  and  C_2
REMARK    2  A    between atoms: C_2  and  O_3
REMARK    3  A    between atoms: O_3  and  C_4
REMARK    4  A    between atoms: C_4  and  C_6
REMARK    5  A    between atoms: C_7  and  C_22
REMARK    6  A    between atoms: C_12  and  C_14
REMARK    7  A    between atoms: C_17  and  O_20
REMARK    8  A    between atoms: O_20  and  C_21
REMARK    9  A    between atoms: C_22  and  O_23
REMARK   10  A    between atoms: O_23  and  C_24
REMARK   11  A    between atoms: C_24  and  C_26
REMARK   12  A    between atoms: C_29  and  N_32
REMARK   13  A    between atoms: C_33  and  C_35
REMARK   14  A    between atoms: C_35  and  C_36
REMARK                            x       y       z     vdW  Elec       q    Type
REMARK                         _______ _______ _______ _____ _____    ______ ____
ROOT
ATOM      1  C   UNL     1      -3.018   0.979  -1.434  0.00  0.00    +0.081 C 
ATOM      2  C   UNL     1      -4.252   1.487  -1.644  0.00  0.00    +0.061 C 
ATOM      3  N   UNL     1      -4.991   1.992  -0.613  0.00  0.00    -0.269 N 
ATOM      4  C   UNL     1      -4.569   2.024   0.657  0.00  0.00    +0.304 C 
ATOM      5  O   UNL     1      -5.299   2.494   1.508  0.00  0.00    -0.252 OA
ATOM      6  N   UNL     1      -3.360   1.554   1.023  0.00  0.00    -0.288 N 
ATOM      7  C   UNL     1      -2.484   0.988  -0.016  0.00  0.00    +0.144 C 
ATOM      8  H   UNL     1      -5.994   2.401  -0.803  0.00  0.00    +0.156 HD
ATOM      9  H   UNL     1      -3.022   1.586   2.070  0.00  0.00    +0.151 HD
ENDROOT
BRANCH   7  10
ATOM     10  C   UNL     1      -1.194   1.766  -0.011  0.00  0.00    -0.022 A 
ATOM     11  C   UNL     1       0.016   1.097  -0.024  0.00  0.00    +0.009 A 
ATOM     12  C   UNL     1       1.201   1.809  -0.026  0.00  0.00    +0.046 A 
ATOM     13  C   UNL     1       1.175   3.196  -0.008  0.00  0.00    +0.120 A 
ATOM     14  C   UNL     1      -0.040   3.865   0.010  0.00  0.00    +0.046 A 
ATOM     15  C   UNL     1      -1.221   3.149   0.012  0.00  0.00    +0.009 A 
BRANCH  13  16
ATOM     16  O   UNL     1       2.339   3.898  -0.010  0.00  0.00    -0.495 OA
ATOM     17  C   UNL     1       2.236   5.323   0.008  0.00  0.00    +0.277 C 
ENDBRANCH  13  16
ENDBRANCH   7  10
BRANCH   1  18
ATOM     18  C   UNL     1      -2.251   0.457  -2.502  0.00  0.00    +0.339 C 
ATOM     19  O   UNL     1      -2.734   0.376  -3.615  0.00  0.00    -0.245 OA
BRANCH  18  20
ATOM     20  O   UNL     1      -0.984   0.048  -2.285  0.00  0.00    -0.462 OA
BRANCH  20  22
ATOM     21  C   UNL     1       1.141  -0.878  -2.971  0.00  0.00    +0.048 C 
ATOM     22  C   UNL     1      -0.267  -0.469  -3.408  0.00  0.00    +0.229 C 
ENDBRANCH  20  22
ENDBRANCH  18  20
ENDBRANCH   1  18
BRANCH   2  23
ATOM     23  C   UNL     1      -4.822   1.498  -3.039  0.00  0.00    +0.283 C 
BRANCH  23  24
ATOM     24  O   UNL     1      -6.097   2.191  -3.035  0.00  0.00    -0.455 OA
BRANCH  24  25
ATOM     25  C   UNL     1      -6.743   2.290  -4.214  0.00  0.00    +0.340 C 
ATOM     26  O   UNL     1      -6.254   1.810  -5.217  0.00  0.00    -0.245 OA
BRANCH  25  27
ATOM     27  C   UNL     1      -8.044   2.981  -4.286  0.00  0.00    +0.059 A 
ATOM     28  C   UNL     1      -8.612   3.528  -3.132  0.00  0.00    +0.017 A 
ATOM     29  C   UNL     1      -9.823   4.178  -3.204  0.00  0.00    +0.024 A 
ATOM     30  C   UNL     1     -10.489   4.279  -4.422  0.00  0.00    +0.033 A 
ATOM     31  C   UNL     1      -9.930   3.729  -5.572  0.00  0.00    +0.024 A 
ATOM     32  C   UNL     1      -8.716   3.084  -5.508  0.00  0.00    +0.017 A 
BRANCH  30  33
ATOM     33  N   UNL     1     -11.719   4.932  -4.490  0.00  0.00    -0.285 N 
ATOM     34  C   UNL     1     -12.671   4.490  -5.336  0.00  0.00    +0.231 C 
ATOM     35  O   UNL     1     -12.429   3.576  -6.096  0.00  0.00    -0.274 OA
ATOM     36  H   UNL     1     -11.912   5.808  -3.854  0.00  0.00    +0.155 HD
BRANCH  34  37
ATOM     37  C   UNL     1     -14.034   5.130  -5.336  0.00  0.00    +0.214 C 
BRANCH  37  38
ATOM     38  C   UNL     1     -14.885   4.473  -6.342  0.00  0.00    +0.072 C 
ATOM     39  N   UNL     1     -15.542   3.965  -7.117  0.00  0.00    -0.196 NA
ENDBRANCH  37  38
ENDBRANCH  34  37
ENDBRANCH  30  33
ENDBRANCH  25  27
ENDBRANCH  24  25
ENDBRANCH  23  24
ENDBRANCH   2  23
TORSDOF 12
