REMARK  Name = ZINC00701031
REMARK  16 active torsions:
REMARK  status: ('A' for Active; 'I' for Inactive)
REMARK    1  A    between atoms: C_1  and  C_2
REMARK    2  A    between atoms: C_2  and  C_3
REMARK    3  A    between atoms: C_2  and  C_4
REMARK    4  A    between atoms: C_4  and  C_5
REMARK    5  A    between atoms: C_5  and  N_6
REMARK    6  A    between atoms: C_7  and  C_9
REMARK    7  A    between atoms: C_12  and  C_14
REMARK    8  A    between atoms: C_14  and  N_15
REMARK    9  A    between atoms: N_15  and  C_16
REMARK   10  A    between atoms: N_15  and  C_27
REMARK   11  A    between atoms: C_16  and  C_17
REMARK   12  A    between atoms: C_20  and  C_23
REMARK   13  A    between atoms: C_23  and  C_24
REMARK   14  A    between atoms: C_23  and  C_25
REMARK   15  A    between atoms: C_23  and  C_26
REMARK   16  A    between atoms: C_27  and  C_28
REMARK                            x       y       z     vdW  Elec       q    Type
REMARK                         _______ _______ _______ _____ _____    ______ ____
ROOT
ATOM      1  N   UNL     1       6.208  -1.064   1.357  0.00  0.00    +0.389 N 
ATOM      2  H   UNL     1       5.709  -0.190   0.916  0.00  0.00    -0.080 HD
ENDROOT
BRANCH   1   3
ATOM      3  C   UNL     1       5.906  -2.230   0.516  0.00  0.00    -0.014 C 
BRANCH   3   7
ATOM      4  C   UNL     1       2.681  -1.696  -1.288  0.00  0.00    +0.133 A 
ATOM      5  C   UNL     1       1.879  -2.249  -0.323  0.00  0.00    +0.079 A 
ATOM      6  S   UNL     1       3.046  -2.708   0.877  0.00  0.00    -0.082 S 
ATOM      7  C   UNL     1       4.472  -2.159   0.057  0.00  0.00    +0.063 A 
ATOM      8  N   UNL     1       3.994  -1.665  -1.055  0.00  0.00    -0.241 NA
BRANCH   4  10
ATOM      9  N   UNL     1       2.925  -0.614  -3.465  0.00  0.00    -0.310 N 
ATOM     10  C   UNL     1       2.113  -1.152  -2.533  0.00  0.00    +0.263 C 
ATOM     11  O   UNL     1       0.912  -1.189  -2.720  0.00  0.00    -0.269 OA
ATOM     12  H   UNL     1       4.011  -0.581  -3.296  0.00  0.00    +0.149 HD
BRANCH   9  13
ATOM     13  C   UNL     1       2.360  -0.073  -4.704  0.00  0.00    +0.105 C 
BRANCH  13  14
ATOM     14  C   UNL     1       3.487   0.473  -5.582  0.00  0.00    +0.022 C 
BRANCH  14  16
ATOM     15  C   UNL     1       4.008   1.695  -7.699  0.00  0.00    +0.007 C 
ATOM     16  C   UNL     1       2.897   1.038  -6.876  0.00  0.00    -0.016 C 
ATOM     17  C   UNL     1       2.265  -0.096  -7.686  0.00  0.00    +0.007 C 
ENDBRANCH  14  16
ENDBRANCH  13  14
ENDBRANCH   9  13
ENDBRANCH   4  10
ENDBRANCH   3   7
ENDBRANCH   1   3
BRANCH   1  18
ATOM     18  C   UNL     1       7.652  -0.794   1.383  0.00  0.00    -0.042 C 
BRANCH  18  19
ATOM     19  C   UNL     1       7.888   0.643   1.770  0.00  0.00    -0.064 A 
ATOM     20  C   UNL     1       7.960   1.618   0.793  0.00  0.00    +0.002 A 
ATOM     21  C   UNL     1       8.171   2.938   1.148  0.00  0.00    +0.004 A 
ATOM     22  C   UNL     1       8.320   3.280   2.479  0.00  0.00    -0.042 A 
ATOM     23  C   UNL     1       8.253   2.304   3.455  0.00  0.00    +0.004 A 
ATOM     24  C   UNL     1       8.037   0.985   3.101  0.00  0.00    +0.002 A 
BRANCH  22  25
ATOM     25  C   UNL     1       8.556   4.718   2.865  0.00  0.00    -0.013 C 
ATOM     26  C   UNL     1       9.893   4.836   3.599  0.00  0.00    +0.015 C 
ATOM     27  C   UNL     1       8.586   5.586   1.606  0.00  0.00    +0.015 C 
ATOM     28  C   UNL     1       7.426   5.190   3.783  0.00  0.00    +0.015 C 
ENDBRANCH  22  25
ENDBRANCH  18  19
ENDBRANCH   1  18
BRANCH   1  29
ATOM     29  C   UNL     1       5.682  -1.246   2.717  0.00  0.00    -0.042 C 
BRANCH  29  30
ATOM     30  C   UNL     1       6.299  -2.474   3.334  0.00  0.00    -0.060 A 
ATOM     31  C   UNL     1       7.515  -2.382   3.986  0.00  0.00    +0.005 A 
ATOM     32  C   UNL     1       8.085  -3.506   4.554  0.00  0.00    +0.050 A 
ATOM     33  C   UNL     1       7.439  -4.729   4.471  0.00  0.00    +0.166 A 
ATOM     34  C   UNL     1       6.214  -4.822   3.815  0.00  0.00    +0.166 A 
ATOM     35  C   UNL     1       5.648  -3.691   3.248  0.00  0.00    +0.051 A 
ATOM     36  O   UNL     1       5.787  -6.117   3.869  0.00  0.00    -0.453 OA
ATOM     37  C   UNL     1       6.561  -6.733   4.916  0.00  0.00    +0.466 C 
ATOM     38  O   UNL     1       7.779  -5.966   4.937  0.00  0.00    -0.453 OA
ENDBRANCH  29  30
ENDBRANCH   1  29
TORSDOF 11
