REMARK  Name = ZINC63506217
REMARK  7 active torsions:
REMARK  status: ('A' for Active; 'I' for Inactive)
REMARK    1  A    between atoms: C_1  and  C_2
REMARK    2  A    between atoms: C_7  and  C_12
REMARK    3  A    between atoms: C_12  and  C_13
REMARK    4  A    between atoms: C_13  and  N_14
REMARK    5  A    between atoms: C_15  and  C_17
REMARK    6  A    between atoms: C_17  and  C_18
REMARK    7  A    between atoms: C_18  and  N_19
REMARK                            x       y       z     vdW  Elec       q    Type
REMARK                         _______ _______ _______ _____ _____    ______ ____
ROOT
ATOM      1  C   UNL     1       3.938  -9.322   1.481  0.00  0.00    +0.115 C 
ENDROOT
BRANCH   1   3
ATOM      2  N   UNL     1       2.506  -7.307   1.565  0.00  0.00    -0.315 N 
ATOM      3  C   UNL     1       2.691  -8.562   1.109  0.00  0.00    +0.215 C 
ATOM      4  O   UNL     1       1.855  -9.079   0.399  0.00  0.00    -0.276 OA
ATOM      5  H   UNL     1       3.175  -6.894   2.133  0.00  0.00    +0.149 HD
BRANCH   2   6
ATOM      6  C   UNL     1       1.294  -6.568   1.204  0.00  0.00    +0.106 C 
BRANCH   6   7
ATOM      7  C   UNL     1       1.333  -5.180   1.847  0.00  0.00    +0.047 C 
BRANCH   7  14
ATOM      8  C   UNL     1      -0.018   1.503   0.010  0.00  0.00    +0.044 C 
ATOM      9  C   UNL     1       0.002  -0.004   0.002  0.00  0.00    -0.050 A 
ATOM     10  C   UNL     1       0.005  -0.680  -1.226  0.00  0.00    +0.005 A 
ATOM     11  C   UNL     1       0.023  -2.026  -1.317  0.00  0.00    +0.026 A 
ATOM     12  C   UNL     1       0.039  -2.826  -0.141  0.00  0.00    +0.043 A 
ATOM     13  N   UNL     1       0.057  -4.126   0.030  0.00  0.00    -0.378 N 
ATOM     14  C   UNL     1       0.067  -4.408   1.470  0.00  0.00    +0.104 C 
ATOM     15  C   UNL     1       0.052  -3.060   2.156  0.00  0.00    +0.007 C 
ATOM     16  C   UNL     1       0.036  -2.137   1.168  0.00  0.00    -0.004 A 
ATOM     17  C   UNL     1       0.022  -0.669   1.180  0.00  0.00    +0.013 A 
ATOM     18  H   UNL     1       0.062  -4.790  -0.677  0.00  0.00    +0.160 HD
ENDBRANCH   7  14
ENDBRANCH   6   7
ENDBRANCH   2   6
ENDBRANCH   1   3
BRANCH   1  19
ATOM     19  C   UNL     1       3.900 -10.710   0.837  0.00  0.00    +0.123 C 
BRANCH  19  20
ATOM     20  N   UNL     1       5.112 -11.450   1.199  0.00  0.00    -0.266 N 
ATOM     21  C   UNL     1       6.177 -11.283   0.326  0.00  0.00    +0.050 A 
ATOM     22  C   UNL     1       5.932 -11.350  -1.044  0.00  0.00    +0.024 A 
ATOM     23  C   UNL     1       6.962 -11.187  -1.949  0.00  0.00    +0.002 A 
ATOM     24  C   UNL     1       8.250 -10.954  -1.504  0.00  0.00    +0.001 A 
ATOM     25  C   UNL     1       8.506 -10.885  -0.147  0.00  0.00    +0.017 A 
ATOM     26  C   UNL     1       7.475 -11.050   0.767  0.00  0.00    +0.036 A 
ATOM     27  S   UNL     1       7.828 -10.962   2.491  0.00  0.00    -0.067 S 
ATOM     28  C   UNL     1       7.355 -12.550   3.094  0.00  0.00    +0.114 A 
ATOM     29  C   UNL     1       6.029 -12.984   2.942  0.00  0.00    +0.069 A 
ATOM     30  C   UNL     1       5.682 -14.251   3.434  0.00  0.00    +0.017 A 
ATOM     31  C   UNL     1       6.660 -15.015   4.044  0.00  0.00    +0.020 A 
ATOM     32  C   UNL     1       7.945 -14.516   4.154  0.00  0.00    +0.112 A 
ATOM     33  N   UNL     1       8.254 -13.322   3.687  0.00  0.00    -0.248 NA
ATOM     34  C   UNL     1       5.016 -12.156   2.294  0.00  0.00    +0.253 C 
ATOM     35  O   UNL     1       3.934 -12.124   2.846  0.00  0.00    -0.270 OA
ENDBRANCH  19  20
ENDBRANCH   1  19
TORSDOF 6
