REMARK  Name = ZINC02412658
REMARK  9 active torsions:
REMARK  status: ('A' for Active; 'I' for Inactive)
REMARK    1  A    between atoms: C_1  and  C_2
REMARK    2  A    between atoms: C_2  and  O_3
REMARK    3  A    between atoms: O_3  and  C_4
REMARK    4  A    between atoms: C_6  and  C_18
REMARK    5  A    between atoms: C_9  and  O_10
REMARK    6  A    between atoms: O_10  and  C_11
REMARK    7  A    between atoms: C_11  and  C_12
REMARK    8  A    between atoms: C_32  and  N_36
REMARK    9  A    between atoms: C_33  and  C_34
REMARK                            x       y       z     vdW  Elec       q    Type
REMARK                         _______ _______ _______ _____ _____    ______ ____
ROOT
ATOM      1  C   UNL     1      -1.199  -2.185   0.005  0.00  0.00    +0.105 C 
ATOM      2  C   UNL     1       0.140  -2.728  -0.415  0.00  0.00    +0.092 A 
ATOM      3  C   UNL     1       1.247  -1.932  -0.400  0.00  0.00    +0.152 A 
ATOM      4  C   UNL     1       2.530  -2.517  -0.823  0.00  0.00    +0.060 A 
ATOM      5  C   UNL     1       3.700  -1.756  -0.832  0.00  0.00    +0.015 A 
ATOM      6  C   UNL     1       4.884  -2.335  -1.232  0.00  0.00    +0.001 A 
ATOM      7  C   UNL     1       4.916  -3.665  -1.624  0.00  0.00    +0.004 A 
ATOM      8  C   UNL     1       3.767  -4.427  -1.621  0.00  0.00    +0.047 A 
ATOM      9  C   UNL     1       2.563  -3.864  -1.220  0.00  0.00    +0.143 A 
ATOM     10  O   UNL     1       1.427  -4.594  -1.208  0.00  0.00    -0.422 OA
ATOM     11  C   UNL     1       0.253  -4.067  -0.826  0.00  0.00    +0.345 A 
ATOM     12  O   UNL     1      -0.743  -4.770  -0.836  0.00  0.00    -0.245 OA
ATOM     13  O   UNL     1       1.185  -0.645  -0.013  0.00  0.00    -0.440 OA
ATOM     14  C   UNL     1       0.002  -0.004   0.002  0.00  0.00    +0.199 C 
ATOM     15  C   UNL     1      -1.171  -0.681   0.015  0.00  0.00    +0.098 C 
ENDROOT
BRANCH   1  18
ATOM     16  C   UNL     1      -2.966  -3.897   2.872  0.00  0.00    +0.162 A 
ATOM     17  C   UNL     1      -2.665  -3.436   1.600  0.00  0.00    +0.054 A 
ATOM     18  C   UNL     1      -1.527  -2.680   1.389  0.00  0.00    -0.031 A 
ATOM     19  C   UNL     1      -0.693  -2.373   2.448  0.00  0.00    +0.008 A 
ATOM     20  C   UNL     1      -0.990  -2.824   3.720  0.00  0.00    +0.050 A 
ATOM     21  C   UNL     1      -2.126  -3.587   3.937  0.00  0.00    +0.162 A 
BRANCH  16  22
ATOM     22  O   UNL     1      -4.082  -4.645   3.079  0.00  0.00    -0.489 OA
BRANCH  22  24
ATOM     23  C   UNL     1      -6.098  -5.771   2.366  0.00  0.00    +0.048 C 
ATOM     24  C   UNL     1      -4.898  -4.924   1.940  0.00  0.00    +0.226 C 
ENDBRANCH  22  24
ENDBRANCH  16  22
BRANCH  21  25
ATOM     25  O   UNL     1      -2.419  -4.032   5.188  0.00  0.00    -0.484 OA
BRANCH  25  26
ATOM     26  C   UNL     1      -1.512  -3.676   6.233  0.00  0.00    +0.264 C 
BRANCH  26  27
ATOM     27  C   UNL     1      -1.997  -4.253   7.538  0.00  0.00    -0.010 A 
ATOM     28  C   UNL     1      -2.844  -3.519   8.346  0.00  0.00    +0.007 A 
ATOM     29  C   UNL     1      -3.293  -4.050   9.540  0.00  0.00    +0.000 A 
ATOM     30  C   UNL     1      -2.886  -5.312   9.932  0.00  0.00    +0.000 A 
ATOM     31  C   UNL     1      -2.034  -6.044   9.126  0.00  0.00    +0.000 A 
ATOM     32  C   UNL     1      -1.589  -5.515   7.929  0.00  0.00    +0.007 A 
ENDBRANCH  26  27
ENDBRANCH  25  26
ENDBRANCH  21  25
ENDBRANCH   1  18
BRANCH  14  33
ATOM     33  N   UNL     1      -0.017   1.368   0.010  0.00  0.00    -0.328 N 
ATOM     34  H   UNL     1       0.817   1.865   0.004  0.00  0.00    +0.145 HD
ATOM     35  H   UNL     1      -0.863   1.842   0.016  0.00  0.00    +0.145 HD
ENDBRANCH  14  33
BRANCH  15  36
ATOM     36  C   UNL     1      -2.404   0.046   0.035  0.00  0.00    +0.101 C 
ATOM     37  N   UNL     1      -3.382   0.624   0.051  0.00  0.00    -0.191 NA
ENDBRANCH  15  36
TORSDOF 8
