REMARK  Name = ZINC10384387
REMARK  12 active torsions:
REMARK  status: ('A' for Active; 'I' for Inactive)
REMARK    1  A    between atoms: N_14  and  C_15
REMARK    2  A    between atoms: C_15  and  C_16
REMARK    3  A    between atoms: C_16  and  C_18
REMARK    4  A    between atoms: C_16  and  O_26
REMARK    5  A    between atoms: C_18  and  N_48
REMARK    6  A    between atoms: C_19  and  C_20
REMARK    7  A    between atoms: C_19  and  C_22
REMARK    8  A    between atoms: C_19  and  C_24
REMARK    9  A    between atoms: C_19  and  N_48
REMARK   10  A    between atoms: C_20  and  O_21
REMARK   11  A    between atoms: C_22  and  O_23
REMARK   12  A    between atoms: C_24  and  O_25
REMARK                            x       y       z     vdW  Elec       q    Type
REMARK                         _______ _______ _______ _____ _____    ______ ____
ROOT
ATOM      1  C   UNL     1      -2.207   0.938  -1.076  0.00  0.00    +0.117 C 
ENDROOT
BRANCH   1   2
ATOM      2  O   UNL     1      -2.132  -0.486  -1.167  0.00  0.00    -0.392 OA
ATOM      3  H   UNL     1      -1.714  -0.807  -1.978  0.00  0.00    +0.210 HD
ENDBRANCH   1   2
BRANCH   1   4
ATOM      4  C   UNL     1      -3.023   1.482  -2.250  0.00  0.00    +0.151 C 
BRANCH   4  18
ATOM      5  C   UNL     1      -5.020  -2.244  -3.874  0.00  0.00    +0.017 A 
ATOM      6  C   UNL     1      -4.283  -1.162  -3.444  0.00  0.00    +0.027 A 
ATOM      7  C   UNL     1      -4.892  -0.158  -2.697  0.00  0.00    +0.050 A 
ATOM      8  C   UNL     1      -6.254  -0.267  -2.380  0.00  0.00    +0.009 A 
ATOM      9  C   UNL     1      -6.987  -1.367  -2.820  0.00  0.00    +0.026 A 
ATOM     10  C   UNL     1      -6.367  -2.349  -3.564  0.00  0.00    +0.019 A 
ATOM     11 BR   UNL     1      -7.359  -3.843  -4.163  0.00  0.00    -0.050 Br
ATOM     12  C   UNL     1      -6.596   0.928  -1.587  0.00  0.00    +0.009 A 
ATOM     13  C   UNL     1      -7.774   1.381  -0.998  0.00  0.00    +0.026 A 
ATOM     14  C   UNL     1      -7.778   2.571  -0.301  0.00  0.00    +0.019 A 
ATOM     15  C   UNL     1      -6.614   3.317  -0.188  0.00  0.00    +0.017 A 
ATOM     16  C   UNL     1      -5.442   2.880  -0.766  0.00  0.00    +0.027 A 
ATOM     17  C   UNL     1      -5.418   1.681  -1.472  0.00  0.00    +0.050 A 
ATOM     18  N   UNL     1      -4.407   1.013  -2.141  0.00  0.00    -0.337 N 
ATOM     19 BR   UNL     1      -9.375   3.189   0.500  0.00  0.00    -0.050 Br
ENDBRANCH   4  18
ENDBRANCH   1   4
BRANCH   1  20
ATOM     20  C   UNL     1      -0.795   1.527  -1.120  0.00  0.00    -0.048 C 
BRANCH  20  21
ATOM     21  N   UNL     1      -0.015   0.998   0.015  0.00  0.00    +0.389 N 
ATOM     22  H   UNL     1       0.032  -0.025  -0.054  0.00  0.00    -0.085 HD
ATOM     23  H   UNL     1      -0.475   1.261   0.894  0.00  0.00    -0.085 HD
BRANCH  21  24
ATOM     24  C   UNL     1       1.353   1.550  -0.003  0.00  0.00    +0.002 C 
BRANCH  24  25
ATOM     25  C   UNL     1       2.136   0.985   1.184  0.00  0.00    +0.148 C 
BRANCH  25  26
ATOM     26  O   UNL     1       3.463   1.515   1.174  0.00  0.00    -0.396 OA
ATOM     27  H   UNL     1       4.019   1.199   1.899  0.00  0.00    +0.209 HD
ENDBRANCH  25  26
ENDBRANCH  24  25
BRANCH  24  28
ATOM     28  C   UNL     1       2.049   1.158  -1.307  0.00  0.00    +0.148 C 
BRANCH  28  29
ATOM     29  O   UNL     1       2.001  -0.262  -1.465  0.00  0.00    -0.396 OA
ATOM     30  H   UNL     1       2.425  -0.582  -2.273  0.00  0.00    +0.209 HD
ENDBRANCH  28  29
ENDBRANCH  24  28
BRANCH  24  31
ATOM     31  C   UNL     1       1.293   3.075   0.106  0.00  0.00    +0.148 C 
BRANCH  31  32
ATOM     32  O   UNL     1       0.643   3.441   1.324  0.00  0.00    -0.396 OA
ATOM     33  H   UNL     1       0.570   4.396   1.460  0.00  0.00    +0.209 HD
ENDBRANCH  31  32
ENDBRANCH  24  31
ENDBRANCH  21  24
ENDBRANCH  20  21
ENDBRANCH   1  20
TORSDOF 12
