REMARK  Name = ZINC03096215
REMARK  12 active torsions:
REMARK  status: ('A' for Active; 'I' for Inactive)
REMARK    1  A    between atoms: C_1  and  C_2
REMARK    2  A    between atoms: C_2  and  C_3
REMARK    3  A    between atoms: C_2  and  C_4
REMARK    4  A    between atoms: C_7  and  C_10
REMARK    5  A    between atoms: C_11  and  C_12
REMARK    6  A    between atoms: N_14  and  C_15
REMARK    7  A    between atoms: C_15  and  N_17
REMARK    8  A    between atoms: N_17  and  C_18
REMARK    9  A    between atoms: C_21  and  S_24
REMARK   10  A    between atoms: S_24  and  N_27
REMARK   11  A    between atoms: C_29  and  O_34
REMARK   12  A    between atoms: O_34  and  C_35
REMARK                            x       y       z     vdW  Elec       q    Type
REMARK                         _______ _______ _______ _____ _____    ______ ____
ROOT
ATOM      1  N   UNL     1      -4.433   7.814   7.718  0.00  0.00    -0.297 N 
ATOM      2  H   UNL     1      -4.258   8.409   6.972  0.00  0.00    +0.154 HD
ENDROOT
BRANCH   1   3
ATOM      3  C   UNL     1      -5.177   8.265   8.813  0.00  0.00    +0.033 A 
ATOM      4  C   UNL     1      -6.348   8.984   8.610  0.00  0.00    +0.025 A 
ATOM      5  C   UNL     1      -7.083   9.422   9.694  0.00  0.00    +0.030 A 
ATOM      6  C   UNL     1      -6.649   9.157  10.980  0.00  0.00    +0.109 A 
ATOM      7  C   UNL     1      -5.480   8.446  11.185  0.00  0.00    +0.030 A 
ATOM      8  C   UNL     1      -4.743   8.000  10.106  0.00  0.00    +0.025 A 
BRANCH   6   9
ATOM      9  S   UNL     1      -7.587   9.724  12.359  0.00  0.00    +0.074 S 
ATOM     10  O   UNL     1      -8.922   9.891  11.902  0.00  0.00    -0.150 OA
ATOM     11  O   UNL     1      -7.256   8.876  13.451  0.00  0.00    -0.150 OA
BRANCH   9  12
ATOM     12  N   UNL     1      -7.026  11.233  12.745  0.00  0.00    -0.195 N 
ATOM     13  C   UNL     1      -7.184  12.285  11.847  0.00  0.00    +0.201 A 
ATOM     14  C   UNL     1      -6.711  13.562  12.171  0.00  0.00    +0.257 A 
ATOM     15  N   UNL     1      -6.864  14.556  11.312  0.00  0.00    -0.217 NA
ATOM     16  C   UNL     1      -7.464  14.341  10.150  0.00  0.00    +0.134 A 
ATOM     17  C   UNL     1      -7.931  13.084   9.831  0.00  0.00    +0.133 A 
ATOM     18  N   UNL     1      -7.777  12.080  10.681  0.00  0.00    -0.233 NA
ATOM     19  H   UNL     1      -6.588  11.385  13.597  0.00  0.00    +0.175 HD
BRANCH  14  20
ATOM     20  O   UNL     1      -6.097  13.780  13.362  0.00  0.00    -0.477 OA
ATOM     21  C   UNL     1      -5.640  15.109  13.623  0.00  0.00    +0.279 C 
ENDBRANCH  14  20
ENDBRANCH   9  12
ENDBRANCH   6   9
ENDBRANCH   1   3
BRANCH   1  22
ATOM     22  C   UNL     1      -3.959   6.552   7.699  0.00  0.00    +0.141 C 
ATOM     23  S   UNL     1      -4.175   5.536   9.059  0.00  0.00    -0.018 S 
BRANCH  22  26
ATOM     24  C   UNL     1      -2.843   4.829   6.588  0.00  0.00    +0.242 C 
ATOM     25  O   UNL     1      -2.996   4.106   7.556  0.00  0.00    -0.270 OA
ATOM     26  N   UNL     1      -3.316   6.090   6.608  0.00  0.00    -0.264 N 
ATOM     27  H   UNL     1      -3.194   6.666   5.837  0.00  0.00    +0.157 HD
BRANCH  24  29
ATOM     28  C   UNL     1      -1.671   3.065   5.385  0.00  0.00    +0.013 C 
ATOM     29  C   UNL     1      -2.144   4.327   5.404  0.00  0.00    +0.068 C 
BRANCH  28  33
ATOM     30  C   UNL     1       0.353   1.611   1.952  0.00  0.00    -0.045 A 
ATOM     31  C   UNL     1      -0.127   2.909   1.970  0.00  0.00    +0.004 A 
ATOM     32  C   UNL     1      -0.791   3.387   3.080  0.00  0.00    +0.008 A 
ATOM     33  C   UNL     1      -0.968   2.560   4.194  0.00  0.00    -0.025 A 
ATOM     34  C   UNL     1      -0.475   1.252   4.170  0.00  0.00    +0.008 A 
ATOM     35  C   UNL     1       0.181   0.787   3.050  0.00  0.00    +0.004 A 
BRANCH  30  37
ATOM     36  C   UNL     1       2.308   1.958   0.466  0.00  0.00    +0.012 C 
ATOM     37  C   UNL     1       1.073   1.095   0.733  0.00  0.00    +0.013 C 
ATOM     38  C   UNL     1       0.137   1.157  -0.476  0.00  0.00    +0.012 C 
ENDBRANCH  30  37
ENDBRANCH  28  33
ENDBRANCH  24  29
ENDBRANCH  22  26
ENDBRANCH   1  22
TORSDOF 9
