REMARK  Name = ZINC39666368
REMARK  10 active torsions:
REMARK  status: ('A' for Active; 'I' for Inactive)
REMARK    1  A    between atoms: C_1  and  C_2
REMARK    2  A    between atoms: C_2  and  C_4
REMARK    3  A    between atoms: C_2  and  O_31
REMARK    4  A    between atoms: C_4  and  N_5
REMARK    5  A    between atoms: C_6  and  C_8
REMARK    6  A    between atoms: C_19  and  C_21
REMARK    7  A    between atoms: C_26  and  O_27
REMARK    8  A    between atoms: O_27  and  C_28
REMARK    9  A    between atoms: C_28  and  C_30
REMARK   10  A    between atoms: O_31  and  C_32
REMARK                            x       y       z     vdW  Elec       q    Type
REMARK                         _______ _______ _______ _____ _____    ______ ____
ROOT
ATOM      1  C   UNL     1      -1.129  -8.004  -2.451  0.00  0.00    +0.100 C 
ATOM      2  C   UNL     1      -1.961  -7.018  -3.302  0.00  0.00    +0.121 C 
ATOM      3  N   UNL     1      -0.954  -6.199  -4.017  0.00  0.00    -0.296 N 
ATOM      4  C   UNL     1       0.108  -7.163  -4.390  0.00  0.00    +0.115 C 
ATOM      5  C   UNL     1       0.227  -8.099  -3.171  0.00  0.00    -0.004 C 
ATOM      6  C   UNL     1       0.483  -9.532  -3.627  0.00  0.00    -0.010 C 
ATOM      7  C   UNL     1       1.863  -9.614  -4.288  0.00  0.00    -0.082 C 
ATOM      8  N   UNL     1       2.892  -9.193  -3.330  0.00  0.00    +0.379 N 
ATOM      9  C   UNL     1       2.692  -7.785  -2.967  0.00  0.00    -0.082 C 
ATOM     10  C   UNL     1       1.348  -7.626  -2.251  0.00  0.00    -0.010 C 
ATOM     11  C   UNL     1      -0.996  -4.876  -4.272  0.00  0.00    +0.250 C 
ATOM     12  O   UNL     1      -0.113  -4.355  -4.926  0.00  0.00    -0.270 OA
ATOM     13  H   UNL     1       2.831  -9.764  -2.501  0.00  0.00    -0.086 HD
ATOM     14  H   UNL     1       3.804  -9.306  -3.747  0.00  0.00    -0.086 HD
ENDROOT
BRANCH  11  15
ATOM     15  C   UNL     1      -2.113  -4.060  -3.758  0.00  0.00    +0.079 A 
ATOM     16  C   UNL     1      -2.191  -3.754  -2.397  0.00  0.00    +0.017 A 
ATOM     17  C   UNL     1      -3.236  -2.991  -1.924  0.00  0.00    +0.001 A 
ATOM     18  C   UNL     1      -4.211  -2.526  -2.791  0.00  0.00    +0.004 A 
ATOM     19  C   UNL     1      -4.146  -2.821  -4.138  0.00  0.00    +0.047 A 
ATOM     20  C   UNL     1      -3.098  -3.583  -4.633  0.00  0.00    +0.144 A 
BRANCH  20  21
ATOM     21  O   UNL     1      -3.030  -3.870  -5.958  0.00  0.00    -0.425 OA
BRANCH  21  22
ATOM     22  C   UNL     1      -3.337  -5.117  -6.349  0.00  0.00    +0.309 C 
ATOM     23  O   UNL     1      -3.752  -5.918  -5.546  0.00  0.00    -0.251 OA
ATOM     24  C   UNL     1      -3.162  -5.519  -7.792  0.00  0.00    +0.136 C 
ENDBRANCH  21  22
ENDBRANCH  20  21
ENDBRANCH  11  15
BRANCH   1  26
ATOM     25  N   UNL     1      -0.689  -8.311  -0.036  0.00  0.00    -0.312 N 
ATOM     26  C   UNL     1      -0.945  -7.466  -1.055  0.00  0.00    +0.218 C 
ATOM     27  O   UNL     1      -1.028  -6.274  -0.848  0.00  0.00    -0.275 OA
ATOM     28  H   UNL     1      -0.694  -9.269  -0.188  0.00  0.00    +0.149 HD
BRANCH  25  29
ATOM     29  C   UNL     1      -0.403  -7.781   1.299  0.00  0.00    +0.148 C 
BRANCH  29  31
ATOM     30  C   UNL     1       0.400  -8.370   3.591  0.00  0.00    +0.053 C 
ATOM     31  C   UNL     1      -0.030  -8.933   2.235  0.00  0.00    +0.187 C 
BRANCH  31  32
ATOM     32  O   UNL     1      -1.161  -9.789   2.411  0.00  0.00    -0.486 OA
BRANCH  32  33
ATOM     33  C   UNL     1      -0.910 -11.081   2.751  0.00  0.00    +0.139 A 
ATOM     34  C   UNL     1       0.390 -11.491   3.010  0.00  0.00    +0.047 A 
ATOM     35  C   UNL     1       0.642 -12.805   3.355  0.00  0.00    +0.004 A 
ATOM     36  C   UNL     1      -0.399 -13.711   3.441  0.00  0.00    +0.002 A 
ATOM     37  C   UNL     1      -1.695 -13.306   3.183  0.00  0.00    +0.023 A 
ATOM     38  C   UNL     1      -1.954 -11.991   2.843  0.00  0.00    +0.083 A 
ATOM     39 CL   UNL     1      -3.583 -11.480   2.526  0.00  0.00    -0.080 Cl
ENDBRANCH  32  33
ENDBRANCH  31  32
ENDBRANCH  29  31
ENDBRANCH  25  29
ENDBRANCH   1  26
TORSDOF 8
