REMARK  Name = ZINC33291863
REMARK  5 active torsions:
REMARK  status: ('A' for Active; 'I' for Inactive)
REMARK    1  A    between atoms: C_4  and  C_7
REMARK    2  A    between atoms: C_16  and  S_17
REMARK    3  A    between atoms: S_17  and  C_18
REMARK    4  A    between atoms: C_18  and  C_19
REMARK    5  A    between atoms: N_21  and  C_22
REMARK                            x       y       z     vdW  Elec       q    Type
REMARK                         _______ _______ _______ _____ _____    ______ ____
ROOT
ATOM      1  C   UNL     1       5.693  11.009   0.774  0.00  0.00    +0.026 A 
ATOM      2  C   UNL     1       6.665  10.060   0.728  0.00  0.00    +0.093 A 
ATOM      3  N   UNL     1       6.098   8.829   0.609  0.00  0.00    -0.357 N 
ATOM      4  H   UNL     1       6.734   7.933   0.552  0.00  0.00    +0.165 HD
ATOM      5  C   UNL     1       4.726   8.940   0.579  0.00  0.00    +0.098 A 
ATOM      6  C   UNL     1       4.410  10.305   0.674  0.00  0.00    +0.100 A 
ATOM      7  N   UNL     1       3.130  10.680   0.663  0.00  0.00    -0.233 NA
ATOM      8  C   UNL     1       2.173   9.783   0.557  0.00  0.00    +0.223 A 
ATOM      9  N   UNL     1       2.425   8.490   0.460  0.00  0.00    -0.227 NA
ATOM     10  C   UNL     1       3.672   8.026   0.464  0.00  0.00    +0.124 A 
ENDROOT
BRANCH   1  14
ATOM     11  C   UNL     1       6.262  15.207   1.134  0.00  0.00    +0.000 A 
ATOM     12  C   UNL     1       6.903  14.347   2.008  0.00  0.00    +0.001 A 
ATOM     13  C   UNL     1       6.722  12.984   1.896  0.00  0.00    +0.008 A 
ATOM     14  C   UNL     1       5.891  12.473   0.900  0.00  0.00    -0.014 A 
ATOM     15  C   UNL     1       5.252  13.344   0.019  0.00  0.00    +0.008 A 
ATOM     16  C   UNL     1       5.436  14.706   0.144  0.00  0.00    +0.001 A 
ENDBRANCH   1  14
BRANCH  10  17
ATOM     17  S   UNL     1       3.989   6.298   0.333  0.00  0.00    -0.094 S 
BRANCH  17  18
ATOM     18  C   UNL     1       2.293   5.675   0.226  0.00  0.00    +0.172 C 
BRANCH  18  19
ATOM     19  C   UNL     1       2.317   4.173   0.104  0.00  0.00    +0.227 C 
ATOM     20  O   UNL     1       3.376   3.582   0.091  0.00  0.00    -0.275 OA
ATOM     21  N   UNL     1       1.161   3.486   0.010  0.00  0.00    -0.285 N 
ATOM     22  H   UNL     1       0.205   4.025  -0.066  0.00  0.00    +0.155 HD
BRANCH  21  23
ATOM     23  C   UNL     1       1.177   2.086   0.008  0.00  0.00    +0.033 A 
ATOM     24  C   UNL     1       2.134   1.400   0.744  0.00  0.00    +0.025 A 
ATOM     25  C   UNL     1       2.147   0.019   0.741  0.00  0.00    +0.022 A 
ATOM     26  C   UNL     1       1.208  -0.681   0.004  0.00  0.00    +0.041 A 
ATOM     27  C   UNL     1       0.253   0.000  -0.731  0.00  0.00    +0.022 A 
ATOM     28  C   UNL     1       0.236   1.381  -0.731  0.00  0.00    +0.025 A 
ATOM     29 CL   UNL     1       1.227  -2.417   0.002  0.00  0.00    -0.084 Cl
ENDBRANCH  21  23
ENDBRANCH  18  19
ENDBRANCH  17  18
ENDBRANCH  10  17
TORSDOF 5
