REMARK  Name = ZINC07022969
REMARK  7 active torsions:
REMARK  status: ('A' for Active; 'I' for Inactive)
REMARK    1  A    between atoms: C_7  and  C_11
REMARK    2  A    between atoms: C_11  and  C_12
REMARK    3  A    between atoms: C_12  and  N_13
REMARK    4  A    between atoms: C_14  and  C_16
REMARK    5  A    between atoms: C_16  and  O_17
REMARK    6  A    between atoms: O_17  and  C_18
REMARK    7  A    between atoms: C_23  and  C_24
REMARK                            x       y       z     vdW  Elec       q    Type
REMARK                         _______ _______ _______ _____ _____    ______ ____
ROOT
ATOM      1  N   UNL     1       3.909  -2.192  -0.047  0.00  0.00    -0.312 N 
ATOM      2  C   UNL     1       3.712  -0.859  -0.038  0.00  0.00    +0.251 C 
ATOM      3  O   UNL     1       4.663  -0.105  -0.043  0.00  0.00    -0.272 OA
ATOM      4  H   UNL     1       3.149  -2.795  -0.043  0.00  0.00    +0.149 HD
ENDROOT
BRANCH   1   5
ATOM      5  C   UNL     1       5.271  -2.732  -0.063  0.00  0.00    +0.109 C 
BRANCH   5   6
ATOM      6  C   UNL     1       5.214  -4.260  -0.071  0.00  0.00    +0.056 C 
BRANCH   6  13
ATOM      7  C   UNL     1       8.338  -5.182   3.301  0.00  0.00    +0.001 A 
ATOM      8  C   UNL     1       9.529  -5.699   2.808  0.00  0.00    +0.002 A 
ATOM      9  C   UNL     1       9.704  -5.893   1.456  0.00  0.00    +0.026 A 
ATOM     10  C   UNL     1       8.679  -5.570   0.573  0.00  0.00    +0.047 A 
ATOM     11  C   UNL     1       7.474  -5.047   1.077  0.00  0.00    +0.003 A 
ATOM     12  C   UNL     1       7.318  -4.857   2.451  0.00  0.00    +0.010 A 
ATOM     13  C   UNL     1       6.615  -4.815  -0.087  0.00  0.00    -0.021 A 
ATOM     14  C   UNL     1       7.311  -5.196  -1.170  0.00  0.00    +0.087 A 
ATOM     15  N   UNL     1       8.548  -5.645  -0.796  0.00  0.00    -0.360 N 
ATOM     16  H   UNL     1       9.230  -5.971  -1.404  0.00  0.00    +0.165 HD
ENDBRANCH   6  13
ENDBRANCH   5   6
ENDBRANCH   1   5
BRANCH   2  17
ATOM     17  C   UNL     1       2.311  -0.304  -0.022  0.00  0.00    +0.324 C 
BRANCH  17  18
ATOM     18  O   UNL     1       2.365   1.124  -0.015  0.00  0.00    -0.482 OA
BRANCH  18  19
ATOM     19  C   UNL     1       1.180   1.785   0.000  0.00  0.00    +0.133 A 
ATOM     20  C   UNL     1      -0.013   1.076   0.008  0.00  0.00    +0.048 A 
ATOM     21  C   UNL     1      -1.218   1.749   0.017  0.00  0.00    +0.023 A 
ATOM     22  C   UNL     1      -1.247   3.135   0.030  0.00  0.00    +0.042 A 
ATOM     23  C   UNL     1      -0.071   3.855   0.022  0.00  0.00    +0.036 A 
ATOM     24  C   UNL     1       1.155   3.186   0.008  0.00  0.00    +0.079 A 
ATOM     25 CL   UNL     1      -2.770   3.967   0.048  0.00  0.00    -0.084 Cl
BRANCH  24  26
ATOM     26  C   UNL     1       2.417   3.950   0.000  0.00  0.00    +0.245 C 
ATOM     27  O   UNL     1       3.483   3.364  -0.012  0.00  0.00    -0.270 OA
ATOM     28  N   UNL     1       2.389   5.297   0.007  0.00  0.00    -0.325 N 
ATOM     29  H   UNL     1       1.540   5.764   0.017  0.00  0.00    +0.145 HD
ATOM     30  H   UNL     1       3.219   5.799   0.002  0.00  0.00    +0.145 HD
ENDBRANCH  24  26
ENDBRANCH  18  19
ENDBRANCH  17  18
ENDBRANCH   2  17
TORSDOF 7
