REMARK  Name = ZINC65228033
REMARK  6 active torsions:
REMARK  status: ('A' for Active; 'I' for Inactive)
REMARK    1  A    between atoms: C_1  and  C_2
REMARK    2  A    between atoms: C_2  and  C_4
REMARK    3  A    between atoms: C_2  and  N_11
REMARK    4  A    between atoms: C_12  and  C_14
REMARK    5  A    between atoms: C_22  and  C_27
REMARK    6  A    between atoms: C_29  and  C_32
REMARK                            x       y       z     vdW  Elec       q    Type
REMARK                         _______ _______ _______ _____ _____    ______ ____
ROOT
ATOM      1  C   UNL     1      -3.491  -1.147  -1.124  0.00  0.00    +0.092 C 
ATOM      2  C   UNL     1      -4.381  -0.233  -0.278  0.00  0.00    +0.016 C 
ATOM      3  C   UNL     1      -5.803  -0.796  -0.241  0.00  0.00    +0.020 C 
ATOM      4  C   UNL     1      -6.369  -0.840  -1.664  0.00  0.00    +0.106 C 
ATOM      5  N   UNL     1      -5.442  -1.596  -2.518  0.00  0.00    -0.315 N 
ATOM      6  C   UNL     1      -4.030  -1.195  -2.557  0.00  0.00    +0.119 C 
ATOM      7  C   UNL     1      -5.893  -2.669  -3.272  0.00  0.00    +0.110 A 
ATOM      8  C   UNL     1      -6.436  -2.446  -4.546  0.00  0.00    +0.060 A 
ATOM      9  C   UNL     1      -6.883  -3.539  -5.288  0.00  0.00    +0.016 A 
ATOM     10  C   UNL     1      -6.771  -4.803  -4.732  0.00  0.00    +0.018 A 
ATOM     11  C   UNL     1      -6.225  -4.945  -3.470  0.00  0.00    +0.084 A 
ATOM     12  N   UNL     1      -5.804  -3.897  -2.788  0.00  0.00    -0.349 N 
ATOM     13  H   UNL     1      -5.421  -4.030  -1.907  0.00  0.00    +0.167 HD
ENDROOT
BRANCH   8  14
ATOM     14  C   UNL     1      -6.532  -1.072  -5.094  0.00  0.00    +0.205 A 
ATOM     15  N   UNL     1      -7.132  -0.728  -6.249  0.00  0.00    -0.191 NA
ATOM     16  C   UNL     1      -7.038   0.558  -6.434  0.00  0.00    +0.231 A 
ATOM     17  O   UNL     1      -6.372   1.089  -5.401  0.00  0.00    -0.337 OA
ATOM     18  N   UNL     1      -6.053   0.011  -4.533  0.00  0.00    -0.056 NA
BRANCH  16  19
ATOM     19  C   UNL     1      -7.586   1.320  -7.613  0.00  0.00    +0.078 C 
ATOM     20  C   UNL     1      -6.678   2.470  -8.080  0.00  0.00    +0.013 C 
ATOM     21  C   UNL     1      -7.960   3.293  -8.289  0.00  0.00    +0.001 C 
ATOM     22  C   UNL     1      -8.616   2.395  -7.227  0.00  0.00    +0.013 C 
ENDBRANCH  16  19
ENDBRANCH   8  14
BRANCH   1  24
ATOM     23  N   UNL     1      -1.405  -0.476   0.024  0.00  0.00    -0.308 N 
ATOM     24  C   UNL     1      -2.083  -0.609  -1.133  0.00  0.00    +0.218 C 
ATOM     25  O   UNL     1      -1.561  -0.296  -2.182  0.00  0.00    -0.275 OA
ATOM     26  H   UNL     1      -1.823  -0.726   0.862  0.00  0.00    +0.149 HD
BRANCH  23  28
ATOM     27  C   UNL     1      -0.074   1.577   0.031  0.00  0.00    +0.033 C 
ATOM     28  C   UNL     1      -0.036   0.047   0.014  0.00  0.00    +0.100 C 
BRANCH  28  29
ATOM     29  C   UNL     1       0.700  -0.450   1.232  0.00  0.00    -0.027 A 
ATOM     30  C   UNL     1       0.051  -0.519   2.451  0.00  0.00    +0.008 A 
ATOM     31  C   UNL     1       0.725  -0.975   3.567  0.00  0.00    +0.038 A 
ATOM     32  C   UNL     1       2.050  -1.363   3.465  0.00  0.00    +0.123 A 
ATOM     33  C   UNL     1       2.699  -1.294   2.244  0.00  0.00    +0.038 A 
ATOM     34  C   UNL     1       2.021  -0.842   1.127  0.00  0.00    +0.008 A 
ATOM     35  F   UNL     1       2.710  -1.809   4.557  0.00  0.00    -0.205 F 
ENDBRANCH  28  29
ENDBRANCH  23  28
ENDBRANCH   1  24
TORSDOF 5
