REMARK  Name = ZINC09595366
REMARK  10 active torsions:
REMARK  status: ('A' for Active; 'I' for Inactive)
REMARK    1  A    between atoms: C_1  and  C_2
REMARK    2  A    between atoms: C_2  and  C_4
REMARK    3  A    between atoms: C_2  and  N_56
REMARK    4  A    between atoms: C_7  and  S_10
REMARK    5  A    between atoms: S_10  and  N_13
REMARK    6  A    between atoms: C_14  and  N_56
REMARK    7  A    between atoms: C_15  and  C_16
REMARK    8  A    between atoms: C_15  and  N_56
REMARK    9  A    between atoms: C_19  and  C_29
REMARK   10  A    between atoms: C_22  and  C_24
REMARK                            x       y       z     vdW  Elec       q    Type
REMARK                         _______ _______ _______ _____ _____    ______ ____
ROOT
ATOM      1  C   UNL     1      -2.849   1.538   0.099  0.00  0.00    +0.021 C 
ENDROOT
BRANCH   1   2
ATOM      2  C   UNL     1      -4.165   0.809   0.013  0.00  0.00    +0.219 C 
ATOM      3  O   UNL     1      -4.456  -0.020   0.850  0.00  0.00    -0.276 OA
ATOM      4  N   UNL     1      -5.019   1.076  -0.995  0.00  0.00    -0.186 N 
ATOM      5  C   UNL     1      -6.330   0.440  -1.198  0.00  0.00    +0.143 C 
ATOM      6  C   UNL     1      -6.866   1.111  -2.478  0.00  0.00    +0.088 C 
ATOM      7  C   UNL     1      -5.771   2.078  -2.868  0.00  0.00    +0.075 C 
ATOM      8  N   UNL     1      -4.807   2.005  -2.012  0.00  0.00    -0.180 NA
BRANCH   7   9
ATOM      9  C   UNL     1      -5.803   2.967  -4.034  0.00  0.00    +0.035 A 
ATOM     10  C   UNL     1      -4.855   3.881  -4.460  0.00  0.00    +0.017 A 
ATOM     11  C   UNL     1      -5.112   4.605  -5.601  0.00  0.00    +0.008 A 
ATOM     12  C   UNL     1      -6.283   4.411  -6.262  0.00  0.00    +0.046 A 
ATOM     13  S   UNL     1      -7.077   3.158  -5.270  0.00  0.00    -0.095 S 
ENDBRANCH   7   9
BRANCH   5  14
ATOM     14  C   UNL     1      -6.172  -1.045  -1.405  0.00  0.00    +0.013 A 
ATOM     15  C   UNL     1      -6.950  -2.058  -0.949  0.00  0.00    +0.013 A 
ATOM     16  C   UNL     1      -6.611  -3.359  -1.270  0.00  0.00    +0.008 A 
ATOM     17  C   UNL     1      -5.506  -3.584  -2.022  0.00  0.00    +0.045 A 
ATOM     18  S   UNL     1      -4.909  -1.926  -2.307  0.00  0.00    -0.100 S 
ENDBRANCH   5  14
ENDBRANCH   1   2
BRANCH   1  20
ATOM     19  C   UNL     1      -2.797   1.447   2.518  0.00  0.00    -0.095 C 
ATOM     20  N   UNL     1      -2.106   1.042   1.276  0.00  0.00    +0.388 N 
ATOM     21  H   UNL     1      -2.064   0.017   1.236  0.00  0.00    -0.081 HD
BRANCH  20  23
ATOM     22  C   UNL     1      -0.013   1.086   0.008  0.00  0.00    -0.008 C 
ATOM     23  C   UNL     1      -0.729   1.579   1.267  0.00  0.00    -0.041 C 
BRANCH  23  24
ATOM     24  C   UNL     1       0.000   1.080   2.488  0.00  0.00    -0.061 A 
ATOM     25  C   UNL     1      -0.199  -0.214   2.930  0.00  0.00    +0.004 A 
ATOM     26  C   UNL     1       0.473  -0.674   4.047  0.00  0.00    +0.029 A 
ATOM     27  C   UNL     1       1.337   0.164   4.728  0.00  0.00    +0.105 A 
ATOM     28  C   UNL     1       1.531   1.460   4.288  0.00  0.00    +0.029 A 
ATOM     29  C   UNL     1       0.863   1.918   3.168  0.00  0.00    +0.004 A 
BRANCH  27  30
ATOM     30  S   UNL     1       2.188  -0.419   6.156  0.00  0.00    +0.056 S 
ATOM     31  O   UNL     1       2.251  -1.834   6.042  0.00  0.00    -0.153 OA
ATOM     32  O   UNL     1       3.351   0.387   6.293  0.00  0.00    -0.153 OA
BRANCH  30  33
ATOM     33  N   UNL     1       1.229  -0.092   7.466  0.00  0.00    -0.204 NA
ATOM     34  H   UNL     1       1.261  -0.667   8.246  0.00  0.00    +0.144 HD
ATOM     35  H   UNL     1       0.635   0.675   7.452  0.00  0.00    +0.144 HD
ENDBRANCH  30  33
ENDBRANCH  27  30
ENDBRANCH  23  24
ENDBRANCH  20  23
ENDBRANCH   1  20
TORSDOF 8
