REMARK  Name = ZINC14158483
REMARK  9 active torsions:
REMARK  status: ('A' for Active; 'I' for Inactive)
REMARK    1  A    between atoms: C_1  and  C_2
REMARK    2  A    between atoms: C_4  and  C_39
REMARK    3  A    between atoms: N_10  and  C_11
REMARK    4  A    between atoms: N_13  and  C_14
REMARK    5  A    between atoms: N_24  and  C_25
REMARK    6  A    between atoms: C_25  and  C_26
REMARK    7  A    between atoms: C_26  and  C_27
REMARK    8  A    between atoms: C_34  and  O_37
REMARK    9  A    between atoms: O_37  and  C_38
REMARK                            x       y       z     vdW  Elec       q    Type
REMARK                         _______ _______ _______ _____ _____    ______ ____
ROOT
ATOM      1  C   UNL     1      -0.640  -6.828   4.019  0.00  0.00    +0.066 C 
ATOM      2  C   UNL     1      -0.585  -5.903   2.830  0.00  0.00    +0.044 A 
ATOM      3  C   UNL     1      -0.560  -6.417   1.543  0.00  0.00    +0.046 A 
ATOM      4  C   UNL     1      -0.510  -5.532   0.477  0.00  0.00    +0.044 A 
ATOM      5  N   UNL     1      -0.488  -4.231   0.720  0.00  0.00    -0.217 NA
ATOM      6  C   UNL     1      -0.513  -3.774   1.962  0.00  0.00    +0.231 A 
ATOM      7  N   UNL     1      -0.566  -4.592   3.002  0.00  0.00    -0.217 NA
ATOM      8  N   UNL     1      -0.489  -2.402   2.180  0.00  0.00    -0.297 N 
ATOM      9  C   UNL     1      -0.402  -1.913   3.454  0.00  0.00    +0.198 C 
ATOM     10  N   UNL     1      -0.233  -2.743   4.471  0.00  0.00    -0.130 NA
ATOM     11  N   UNL     1      -0.491  -0.571   3.677  0.00  0.00    -0.357 N 
ATOM     12  C   UNL     1      -0.480  -6.044  -0.939  0.00  0.00    +0.066 C 
ATOM     13  H   UNL     1      -0.534  -1.791   1.428  0.00  0.00    +0.171 HD
ATOM     14  H   UNL     1      -0.339  -0.216   4.567  0.00  0.00    +0.162 HD
ENDROOT
BRANCH  10  15
ATOM     15  C   UNL     1      -0.026  -2.258   5.704  0.00  0.00    +0.327 C 
ATOM     16  O   UNL     1      -0.096  -1.059   5.907  0.00  0.00    -0.251 OA
ATOM     17  N   UNL     1       0.258  -3.098   6.719  0.00  0.00    -0.292 N 
ATOM     18  H   UNL     1       0.313  -4.053   6.557  0.00  0.00    +0.151 HD
BRANCH  17  19
ATOM     19  C   UNL     1       0.483  -2.569   8.066  0.00  0.00    +0.037 C 
ATOM     20  C   UNL     1       1.669  -1.603   8.043  0.00  0.00    +0.029 C 
ATOM     21  C   UNL     1       1.905  -1.050   9.450  0.00  0.00    -0.008 C 
ATOM     22  C   UNL     1       2.206  -2.205  10.407  0.00  0.00    +0.007 C 
ATOM     23  C   UNL     1       1.020  -3.171  10.431  0.00  0.00    -0.008 C 
ATOM     24  C   UNL     1       0.785  -3.724   9.024  0.00  0.00    +0.029 C 
ATOM     25  C   UNL     1      -0.232  -2.430  10.904  0.00  0.00    +0.007 C 
ATOM     26  C   UNL     1      -0.533  -1.276   9.946  0.00  0.00    -0.008 C 
ATOM     27  C   UNL     1       0.653  -0.309   9.923  0.00  0.00    +0.007 C 
ATOM     28  C   UNL     1      -0.769  -1.828   8.539  0.00  0.00    +0.029 C 
ENDBRANCH  17  19
ENDBRANCH  10  15
BRANCH  11  29
ATOM     29  C   UNL     1      -0.816   0.335   2.573  0.00  0.00    +0.120 C 
BRANCH  29  30
ATOM     30  C   UNL     1      -0.734   1.783   3.060  0.00  0.00    +0.058 C 
BRANCH  30  31
ATOM     31  C   UNL     1      -1.185   2.710   1.960  0.00  0.00    -0.021 A 
ATOM     32  C   UNL     1      -0.402   3.312   1.051  0.00  0.00    +0.087 A 
ATOM     33  N   UNL     1      -1.165   4.077   0.212  0.00  0.00    -0.360 N 
ATOM     34  H   UNL     1      -0.822   4.606  -0.525  0.00  0.00    +0.165 HD
ATOM     35  C   UNL     1      -2.493   3.984   0.571  0.00  0.00    +0.047 A 
ATOM     36  C   UNL     1      -2.563   3.118   1.677  0.00  0.00    +0.006 A 
ATOM     37  C   UNL     1      -3.799   2.829   2.259  0.00  0.00    +0.056 A 
ATOM     38  C   UNL     1      -4.947   3.393   1.740  0.00  0.00    +0.121 A 
ATOM     39  C   UNL     1      -4.875   4.247   0.642  0.00  0.00    +0.047 A 
ATOM     40  C   UNL     1      -3.660   4.545   0.065  0.00  0.00    +0.030 A 
BRANCH  38  41
ATOM     41  O   UNL     1      -6.154   3.114   2.302  0.00  0.00    -0.495 OA
ATOM     42  C   UNL     1      -7.301   3.731   1.715  0.00  0.00    +0.277 C 
ENDBRANCH  38  41
ENDBRANCH  30  31
ENDBRANCH  29  30
ENDBRANCH  11  29
TORSDOF 6
