REMARK  Name = ZINC57471137
REMARK  8 active torsions:
REMARK  status: ('A' for Active; 'I' for Inactive)
REMARK    1  A    between atoms: C_1  and  C_2
REMARK    2  A    between atoms: C_5  and  N_8
REMARK    3  A    between atoms: C_9  and  C_11
REMARK    4  A    between atoms: C_11  and  C_13
REMARK    5  A    between atoms: C_11  and  O_19
REMARK    6  A    between atoms: O_19  and  C_20
REMARK    7  A    between atoms: C_20  and  C_22
REMARK    8  A    between atoms: C_24  and  N_30
REMARK                            x       y       z     vdW  Elec       q    Type
REMARK                         _______ _______ _______ _____ _____    ______ ____
ROOT
ATOM      1  C   UNL     1       0.309  -6.349   1.121  0.00  0.00    +0.292 C 
ENDROOT
BRANCH   1   2
ATOM      2  C   UNL     1       1.605  -6.731   0.454  0.00  0.00    +0.002 A 
ATOM      3  C   UNL     1       2.775  -6.773   1.189  0.00  0.00    +0.008 A 
ATOM      4  C   UNL     1       3.964  -7.124   0.577  0.00  0.00    +0.000 A 
ATOM      5  C   UNL     1       3.983  -7.433  -0.770  0.00  0.00    +0.000 A 
ATOM      6  C   UNL     1       2.813  -7.391  -1.505  0.00  0.00    +0.000 A 
ATOM      7  C   UNL     1       1.623  -7.045  -0.892  0.00  0.00    +0.008 A 
ENDBRANCH   1   2
BRANCH   1   9
ATOM      8  N   UNL     1       0.059  -4.170  -0.021  0.00  0.00    -0.282 N 
ATOM      9  C   UNL     1       0.175  -4.848   1.138  0.00  0.00    +0.263 C 
ATOM     10  O   UNL     1       0.173  -4.251   2.193  0.00  0.00    -0.271 OA
ATOM     11  H   UNL     1      -0.017  -4.651  -0.860  0.00  0.00    +0.155 HD
BRANCH   8  16
ATOM     12  C   UNL     1       0.009   1.503   0.007  0.00  0.00    +0.044 C 
ATOM     13  C   UNL     1       0.022  -0.004  -0.001  0.00  0.00    -0.050 A 
ATOM     14  C   UNL     1       0.777  -0.692   0.931  0.00  0.00    +0.005 A 
ATOM     15  C   UNL     1       0.792  -2.073   0.927  0.00  0.00    +0.023 A 
ATOM     16  C   UNL     1       0.046  -2.771  -0.014  0.00  0.00    +0.034 A 
ATOM     17  C   UNL     1      -0.712  -2.077  -0.948  0.00  0.00    +0.023 A 
ATOM     18  C   UNL     1      -0.726  -0.696  -0.936  0.00  0.00    +0.005 A 
ENDBRANCH   8  16
ENDBRANCH   1   9
BRANCH   1  19
ATOM     19  O   UNL     1       0.300  -6.843   2.462  0.00  0.00    -0.442 OA
BRANCH  19  20
ATOM     20  C   UNL     1      -0.202  -8.078   2.656  0.00  0.00    +0.360 C 
ATOM     21  O   UNL     1      -0.620  -8.719   1.713  0.00  0.00    -0.243 OA
BRANCH  20  22
ATOM     22  C   UNL     1      -0.243  -8.655   4.018  0.00  0.00    +0.169 A 
ATOM     23  C   UNL     1      -0.757  -9.934   4.210  0.00  0.00    +0.095 A 
ATOM     24  C   UNL     1      -0.788 -10.463   5.500  0.00  0.00    +0.067 A 
ATOM     25  C   UNL     1      -0.301  -9.683   6.548  0.00  0.00    +0.100 A 
ATOM     26  C   UNL     1       0.196  -8.418   6.276  0.00  0.00    +0.150 A 
ATOM     27  N   UNL     1       0.216  -7.948   5.046  0.00  0.00    -0.226 NA
ATOM     28 CL   UNL     1       0.804  -7.441   7.575  0.00  0.00    -0.060 Cl
ATOM     29 CL   UNL     1      -0.315 -10.290   8.174  0.00  0.00    -0.078 Cl
ATOM     30 CL   UNL     1      -1.350 -10.857   2.864  0.00  0.00    -0.079 Cl
BRANCH  24  31
ATOM     31  N   UNL     1      -1.295 -11.740   5.737  0.00  0.00    -0.356 N 
ATOM     32  H   UNL     1      -1.632 -12.272   4.999  0.00  0.00    +0.142 HD
ATOM     33  H   UNL     1      -1.311 -12.096   6.639  0.00  0.00    +0.142 HD
ENDBRANCH  24  31
ENDBRANCH  20  22
ENDBRANCH  19  20
ENDBRANCH   1  19
TORSDOF 7
