REMARK  Name = ZINC61887982
REMARK  5 active torsions:
REMARK  status: ('A' for Active; 'I' for Inactive)
REMARK    1  A    between atoms: C_5  and  S_6
REMARK    2  A    between atoms: S_6  and  N_9
REMARK    3  A    between atoms: N_9  and  C_10
REMARK    4  A    between atoms: C_15  and  C_17
REMARK    5  A    between atoms: N_18  and  O_19
REMARK                            x       y       z     vdW  Elec       q    Type
REMARK                         _______ _______ _______ _____ _____    ______ ____
ROOT
ATOM      1  C   UNL     1      -0.832  -1.990  -2.397  0.00  0.00    +0.087 C 
ATOM      2  C   UNL     1      -1.118  -3.504  -2.335  0.00  0.00    +0.021 C 
ATOM      3  C   UNL     1      -1.916  -3.793  -3.631  0.00  0.00    +0.002 C 
ATOM      4  C   UNL     1      -1.226  -2.875  -4.670  0.00  0.00    +0.013 C 
ATOM      5  C   UNL     1      -0.900  -1.589  -3.881  0.00  0.00    +0.074 C 
ENDROOT
BRANCH   5   6
ATOM      6  C   UNL     1       0.427  -1.032  -4.327  0.00  0.00    +0.136 C 
ATOM      7  N   UNL     1       0.468  -0.059  -5.177  0.00  0.00    -0.076 NA
ATOM      8  N   UNL     1       1.598  -1.559  -3.828  0.00  0.00    -0.344 N 
ATOM      9  H   UNL     1       1.568  -2.289  -3.190  0.00  0.00    +0.144 HD
ATOM     10  H   UNL     1       2.452  -1.200  -4.115  0.00  0.00    +0.144 HD
BRANCH   7  11
ATOM     11  O   UNL     1      -0.734   0.555  -5.606  0.00  0.00    -0.408 OA
ATOM     12  H   UNL     1      -0.603   1.272  -6.242  0.00  0.00    +0.328 HD
ENDBRANCH   7  11
ENDBRANCH   5   6
BRANCH   1  13
ATOM     13  N   UNL     1      -1.844  -1.256  -1.633  0.00  0.00    -0.186 NA
ATOM     14  H   UNL     1      -2.698  -1.042  -2.039  0.00  0.00    +0.148 HD
BRANCH  13  15
ATOM     15  S   UNL     1      -1.530  -0.793  -0.074  0.00  0.00    +0.065 S 
ATOM     16  O   UNL     1      -1.025  -1.940   0.596  0.00  0.00    -0.153 OA
ATOM     17  O   UNL     1      -2.677  -0.089   0.380  0.00  0.00    -0.153 OA
BRANCH  15  22
ATOM     18  C   UNL     1      -0.273   1.724  -0.253  0.00  0.00    +0.038 A 
ATOM     19  C   UNL     1       0.904   2.449  -0.278  0.00  0.00    +0.030 A 
ATOM     20  C   UNL     1       2.085   1.788  -0.182  0.00  0.00    +0.080 A 
ATOM     21  S   UNL     1       1.548   0.090  -0.051  0.00  0.00    -0.057 S 
ATOM     22  C   UNL     1      -0.212   0.376  -0.133  0.00  0.00    +0.144 A 
ATOM     23 CL   UNL     1       3.699   2.427  -0.185  0.00  0.00    -0.076 Cl
ENDBRANCH  15  22
ENDBRANCH  13  15
ENDBRANCH   1  13
TORSDOF 5
