REMARK  Name = ZINC08613059
REMARK  8 active torsions:
REMARK  status: ('A' for Active; 'I' for Inactive)
REMARK    1  A    between atoms: C_1  and  C_2
REMARK    2  A    between atoms: C_5  and  N_8
REMARK    3  A    between atoms: C_9  and  C_27
REMARK    4  A    between atoms: C_14  and  C_24
REMARK    5  A    between atoms: C_16  and  C_23
REMARK    6  A    between atoms: C_24  and  O_25
REMARK    7  A    between atoms: O_25  and  C_26
REMARK    8  A    between atoms: C_30  and  O_33
REMARK                            x       y       z     vdW  Elec       q    Type
REMARK                         _______ _______ _______ _____ _____    ______ ____
ROOT
ATOM      1  N   UNL     1       0.059  -4.169  -0.021  0.00  0.00    -0.244 N 
ATOM      2  C   UNL     1       0.180  -4.890   1.244  0.00  0.00    +0.198 C 
ATOM      3  N   UNL     1       0.938  -6.138   1.092  0.00  0.00    -0.320 N 
ATOM      4  C   UNL     1       0.688  -6.897  -0.069  0.00  0.00    +0.058 A 
ATOM      5  C   UNL     1       0.876  -8.322  -0.224  0.00  0.00    +0.035 A 
ATOM      6  C   UNL     1       1.345  -9.230   0.762  0.00  0.00    -0.009 A 
ATOM      7  C   UNL     1       1.440 -10.552   0.370  0.00  0.00    +0.029 A 
ATOM      8  C   UNL     1       1.100 -10.967  -0.906  0.00  0.00    +0.040 A 
ATOM      9  N   UNL     1       0.663 -10.122  -1.831  0.00  0.00    -0.245 NA
ATOM     10  C   UNL     1       0.555  -8.853  -1.504  0.00  0.00    +0.111 A 
ATOM     11  S   UNL     1       0.023  -7.445  -2.432  0.00  0.00    -0.062 S 
ATOM     12  C   UNL     1       0.212  -6.209  -1.184  0.00  0.00    +0.098 A 
ATOM     13  C   UNL     1      -0.042  -4.828  -1.202  0.00  0.00    +0.261 C 
ATOM     14  O   UNL     1      -0.335  -4.247  -2.232  0.00  0.00    -0.269 OA
ATOM     15  C   UNL     1       1.232 -12.427  -1.256  0.00  0.00    +0.065 C 
ATOM     16  H   UNL     1       1.580  -6.427   1.759  0.00  0.00    +0.148 HD
ENDROOT
BRANCH   1  21
ATOM     17  C   UNL     1      -0.017   1.503   0.012  0.00  0.00    +0.044 C 
ATOM     18  C   UNL     1       0.003  -0.004   0.003  0.00  0.00    -0.050 A 
ATOM     19  C   UNL     1      -1.052  -0.705  -0.551  0.00  0.00    +0.005 A 
ATOM     20  C   UNL     1      -1.037  -2.086  -0.561  0.00  0.00    +0.024 A 
ATOM     21  C   UNL     1       0.040  -2.771  -0.013  0.00  0.00    +0.039 A 
ATOM     22  C   UNL     1       1.099  -2.064   0.542  0.00  0.00    +0.024 A 
ATOM     23  C   UNL     1       1.079  -0.683   0.544  0.00  0.00    +0.005 A 
ENDBRANCH   1  21
BRANCH   2  24
ATOM     24  C   UNL     1      -1.199  -5.214   1.758  0.00  0.00    -0.009 A 
ATOM     25  C   UNL     1      -2.261  -4.382   1.458  0.00  0.00    +0.010 A 
ATOM     26  C   UNL     1      -3.526  -4.677   1.928  0.00  0.00    +0.046 A 
ATOM     27  C   UNL     1      -3.731  -5.810   2.702  0.00  0.00    +0.117 A 
ATOM     28  C   UNL     1      -2.663  -6.644   3.002  0.00  0.00    +0.046 A 
ATOM     29  C   UNL     1      -1.401  -6.347   2.525  0.00  0.00    +0.010 A 
BRANCH  27  30
ATOM     30  O   UNL     1      -4.974  -6.102   3.166  0.00  0.00    -0.507 OA
ATOM     31  H   UNL     1      -5.496  -6.657   2.570  0.00  0.00    +0.292 HD
ENDBRANCH  27  30
ENDBRANCH   2  24
BRANCH   6  32
ATOM     32  C   UNL     1       1.716  -8.780   2.152  0.00  0.00    +0.195 C 
BRANCH  32  33
ATOM     33  O   UNL     1       2.150  -9.906   2.917  0.00  0.00    -0.378 OA
ATOM     34  C   UNL     1       2.528  -9.587   4.258  0.00  0.00    +0.194 C 
ENDBRANCH  32  33
ENDBRANCH   6  32
TORSDOF 5
