REMARK  Name = ZINC28054807
REMARK  2 active torsions:
REMARK  status: ('A' for Active; 'I' for Inactive)
REMARK    1  A    between atoms: C_9  and  C_17
REMARK    2  A    between atoms: C_24  and  C_27
REMARK                            x       y       z     vdW  Elec       q    Type
REMARK                         _______ _______ _______ _____ _____    ______ ____
ROOT
ATOM      1  C   UNL     1      -4.937   5.508  -0.740  0.00  0.00    +0.001 A 
ATOM      2  C   UNL     1      -4.742   5.416   0.627  0.00  0.00    +0.004 A 
ATOM      3  C   UNL     1      -3.484   5.604   1.171  0.00  0.00    +0.046 A 
ATOM      4  C   UNL     1      -2.413   5.886   0.344  0.00  0.00    +0.131 A 
ATOM      5  C   UNL     1      -2.610   5.982  -1.040  0.00  0.00    +0.038 A 
ATOM      6  C   UNL     1      -3.876   5.790  -1.579  0.00  0.00    +0.013 A 
ATOM      7  C   UNL     1      -1.440   6.291  -1.897  0.00  0.00    +0.050 C 
ATOM      8  C   UNL     1      -0.218   6.123  -1.387  0.00  0.00    +0.025 C 
ATOM      9  C   UNL     1       1.033   6.414  -2.178  0.00  0.00    +0.174 C 
ATOM     10  N   UNL     1       0.702   7.161  -3.383  0.00  0.00    -0.201 N 
ATOM     11  C   UNL     1      -0.563   7.308  -3.859  0.00  0.00    +0.240 A 
ATOM     12  N   UNL     1      -0.488   8.016  -4.949  0.00  0.00    -0.092 NA
ATOM     13  N   UNL     1       0.738   8.333  -5.191  0.00  0.00    -0.021 NA
ATOM     14  N   UNL     1       1.518   7.848  -4.280  0.00  0.00    -0.042 NA
ATOM     15  N   UNL     1      -1.649   6.754  -3.201  0.00  0.00    -0.282 N 
ATOM     16  C   UNL     1      -0.074   5.619   0.031  0.00  0.00    +0.234 C 
ATOM     17  O   UNL     1      -1.162   6.071   0.837  0.00  0.00    -0.479 OA
ATOM     18  H   UNL     1      -2.644   6.670  -3.662  0.00  0.00    +0.155 HD
ENDROOT
BRANCH   9  19
ATOM     19  C   UNL     1       1.696   5.116  -2.561  0.00  0.00    -0.019 A 
ATOM     20  C   UNL     1       1.014   4.193  -3.331  0.00  0.00    +0.009 A 
ATOM     21  C   UNL     1       1.622   3.004  -3.687  0.00  0.00    +0.039 A 
ATOM     22  C   UNL     1       2.912   2.733  -3.262  0.00  0.00    +0.123 A 
ATOM     23  C   UNL     1       3.593   3.657  -2.487  0.00  0.00    +0.039 A 
ATOM     24  C   UNL     1       2.984   4.847  -2.137  0.00  0.00    +0.009 A 
ATOM     25  F   UNL     1       3.506   1.570  -3.606  0.00  0.00    -0.205 F 
ENDBRANCH   9  19
BRANCH  16  26
ATOM     26  C   UNL     1      -0.054   4.112   0.023  0.00  0.00    -0.003 A 
ATOM     27  C   UNL     1      -1.221   3.407  -0.201  0.00  0.00    +0.010 A 
ATOM     28  C   UNL     1      -1.204   2.025  -0.208  0.00  0.00    +0.039 A 
ATOM     29  C   UNL     1      -0.016   1.347   0.009  0.00  0.00    +0.123 A 
ATOM     30  C   UNL     1       1.152   2.054   0.237  0.00  0.00    +0.039 A 
ATOM     31  C   UNL     1       1.133   3.436   0.239  0.00  0.00    +0.010 A 
ATOM     32  F   UNL     1       0.002  -0.004   0.002  0.00  0.00    -0.205 F 
ENDBRANCH  16  26
TORSDOF 2
