REMARK  Name = ZINC39657781
REMARK  12 active torsions:
REMARK  status: ('A' for Active; 'I' for Inactive)
REMARK    1  A    between atoms: C_1  and  C_2
REMARK    2  A    between atoms: C_2  and  C_3
REMARK    3  A    between atoms: C_3  and  C_5
REMARK    4  A    between atoms: C_3  and  C_6
REMARK    5  A    between atoms: C_6  and  C_7
REMARK    6  A    between atoms: C_11  and  C_20
REMARK    7  A    between atoms: N_22  and  C_23
REMARK    8  A    between atoms: C_23  and  C_24
REMARK    9  A    between atoms: C_29  and  S_30
REMARK   10  A    between atoms: S_30  and  C_31
REMARK   11  A    between atoms: C_36  and  C_37
REMARK   12  A    between atoms: C_37  and  O_38
REMARK                            x       y       z     vdW  Elec       q    Type
REMARK                         _______ _______ _______ _____ _____    ______ ____
ROOT
ATOM      1  C   UNL     1      -1.882  -5.411   3.290  0.00  0.00    +0.218 C 
ATOM      2  O   UNL     1      -1.698  -4.287   3.708  0.00  0.00    -0.275 OA
ATOM      3  N   UNL     1      -1.714  -6.470   4.106  0.00  0.00    -0.311 N 
ATOM      4  H   UNL     1      -1.791  -7.370   3.755  0.00  0.00    +0.149 HD
ENDROOT
BRANCH   1   9
ATOM      5  C   UNL     1      -2.493  -2.160   0.814  0.00  0.00    +0.216 C 
ATOM      6  O   UNL     1      -3.449  -1.414   0.802  0.00  0.00    -0.276 OA
ATOM      7  N   UNL     1      -2.680  -3.495   0.824  0.00  0.00    -0.300 N 
ATOM      8  C   UNL     1      -1.653  -4.556   0.945  0.00  0.00    +0.121 C 
ATOM      9  C   UNL     1      -2.299  -5.623   1.857  0.00  0.00    +0.100 C 
ATOM     10  C   UNL     1      -3.813  -5.408   1.700  0.00  0.00    -0.004 C 
ATOM     11  C   UNL     1      -3.962  -4.234   0.722  0.00  0.00    +0.115 C 
ATOM     12  C   UNL     1      -4.469  -6.661   1.127  0.00  0.00    -0.010 C 
ATOM     13  C   UNL     1      -5.982  -6.443   1.035  0.00  0.00    -0.082 C 
ATOM     14  N   UNL     1      -6.519  -6.153   2.370  0.00  0.00    +0.379 N 
ATOM     15  C   UNL     1      -5.952  -4.896   2.875  0.00  0.00    -0.082 C 
ATOM     16  C   UNL     1      -4.438  -5.048   3.045  0.00  0.00    -0.010 C 
ATOM     17  H   UNL     1      -7.523  -6.071   2.317  0.00  0.00    -0.086 HD
ATOM     18  H   UNL     1      -6.278  -6.905   2.999  0.00  0.00    -0.086 HD
BRANCH   5  19
ATOM     19  C   UNL     1      -1.096  -1.596   0.817  0.00  0.00    +0.099 C 
BRANCH  19  20
ATOM     20  C   UNL     1      -1.160  -0.076   0.648  0.00  0.00    -0.006 C 
ATOM     21  C   UNL     1      -1.682   0.259  -0.751  0.00  0.00    +0.008 C 
BRANCH  20  23
ATOM     22  C   UNL     1       0.157   2.043   0.782  0.00  0.00    +0.004 C 
ATOM     23  C   UNL     1       0.240   0.516   0.826  0.00  0.00    +0.000 C 
ENDBRANCH  20  23
ENDBRANCH  19  20
ENDBRANCH   5  19
ENDBRANCH   1   9
BRANCH   3  24
ATOM     24  C   UNL     1      -1.415  -6.261   5.525  0.00  0.00    +0.140 C 
BRANCH  24  25
ATOM     25  C   UNL     1      -1.155  -7.590   6.185  0.00  0.00    -0.017 A 
ATOM     26  C   UNL     1      -2.142  -8.191   6.941  0.00  0.00    +0.006 A 
ATOM     27  C   UNL     1      -1.905  -9.411   7.548  0.00  0.00    +0.000 A 
ATOM     28  C   UNL     1      -0.678 -10.034   7.399  0.00  0.00    +0.001 A 
ATOM     29  C   UNL     1       0.313  -9.439   6.645  0.00  0.00    +0.015 A 
ATOM     30  C   UNL     1       0.076  -8.215   6.029  0.00  0.00    +0.017 A 
BRANCH  30  31
ATOM     31  S   UNL     1       1.335  -7.455   5.059  0.00  0.00    -0.089 S 
BRANCH  31  32
ATOM     32  C   UNL     1       1.955  -6.172   6.096  0.00  0.00    +0.018 A 
ATOM     33  C   UNL     1       1.505  -6.056   7.405  0.00  0.00    +0.015 A 
ATOM     34  C   UNL     1       1.993  -5.049   8.214  0.00  0.00    +0.001 A 
ATOM     35  C   UNL     1       2.929  -4.157   7.723  0.00  0.00    +0.000 A 
ATOM     36  C   UNL     1       3.379  -4.270   6.420  0.00  0.00    +0.007 A 
ATOM     37  C   UNL     1       2.900  -5.278   5.607  0.00  0.00    -0.008 A 
BRANCH  37  38
ATOM     38  C   UNL     1       3.397  -5.405   4.190  0.00  0.00    +0.192 C 
BRANCH  38  39
ATOM     39  O   UNL     1       4.264  -4.310   3.890  0.00  0.00    -0.390 OA
ATOM     40  H   UNL     1       4.562  -4.284   2.970  0.00  0.00    +0.210 HD
ENDBRANCH  38  39
ENDBRANCH  37  38
ENDBRANCH  31  32
ENDBRANCH  30  31
ENDBRANCH  24  25
ENDBRANCH   3  24
TORSDOF 10
