REMARK  Name = ZINC13721221
REMARK  6 active torsions:
REMARK  status: ('A' for Active; 'I' for Inactive)
REMARK    1  A    between atoms: C_1  and  C_2
REMARK    2  A    between atoms: C_2  and  C_3
REMARK    3  A    between atoms: C_2  and  C_4
REMARK    4  A    between atoms: C_4  and  C_5
REMARK    5  A    between atoms: C_7  and  C_11
REMARK    6  A    between atoms: C_17  and  C_19
REMARK                            x       y       z     vdW  Elec       q    Type
REMARK                         _______ _______ _______ _____ _____    ______ ____
ROOT
ATOM      1  C   UNL     1      -2.229  -5.469   0.895  0.00  0.00    +0.203 A 
ATOM      2  N   UNL     1      -2.703  -5.616   2.113  0.00  0.00    -0.125 NA
ATOM      3  N   UNL     1      -3.002  -6.851   2.320  0.00  0.00    -0.120 NA
ATOM      4  C   UNL     1      -2.737  -7.550   1.256  0.00  0.00    +0.219 A 
ATOM      5  N   UNL     1      -2.236  -6.718   0.285  0.00  0.00    -0.184 N 
ATOM      6  N   UNL     1      -1.905  -7.307  -0.927  0.00  0.00    -0.155 NA
ATOM      7  C   UNL     1      -2.068  -8.590  -1.124  0.00  0.00    +0.135 A 
ATOM      8  S   UNL     1      -2.725  -9.130   0.447  0.00  0.00    -0.026 S 
ENDROOT
BRANCH   7   9
ATOM      9  C   UNL     1      -1.777  -9.390  -2.334  0.00  0.00    +0.044 A 
ATOM     10  C   UNL     1      -2.030 -10.762  -2.345  0.00  0.00    +0.013 A 
ATOM     11  C   UNL     1      -1.756 -11.503  -3.476  0.00  0.00    +0.001 A 
ATOM     12  C   UNL     1      -1.230 -10.889  -4.599  0.00  0.00    +0.003 A 
ATOM     13  C   UNL     1      -0.976  -9.530  -4.597  0.00  0.00    +0.039 A 
ATOM     14  C   UNL     1      -1.252  -8.774  -3.472  0.00  0.00    +0.133 A 
ATOM     15  F   UNL     1      -1.009  -7.445  -3.473  0.00  0.00    -0.205 F 
ENDBRANCH   7   9
BRANCH   1  18
ATOM     16  C   UNL     1      -1.416  -2.035  -0.119  0.00  0.00    +0.064 A 
ATOM     17  C   UNL     1      -2.024  -2.934   0.756  0.00  0.00    +0.056 A 
ATOM     18  C   UNL     1      -1.777  -4.207   0.285  0.00  0.00    +0.105 A 
ATOM     19  N   UNL     1      -1.033  -4.077  -0.853  0.00  0.00    -0.274 N 
ATOM     20  H   UNL     1      -0.706  -4.802  -1.408  0.00  0.00    +0.189 HD
ATOM     21  N   UNL     1      -0.833  -2.709  -1.077  0.00  0.00    -0.178 NA
BRANCH  16  22
ATOM     22  C   UNL     1      -1.433  -0.534   0.013  0.00  0.00    +0.060 C 
BRANCH  22  24
ATOM     23  C   UNL     1      -0.019   1.526   0.010  0.00  0.00    +0.007 C 
ATOM     24  C   UNL     1       0.002  -0.004   0.002  0.00  0.00    -0.011 C 
ATOM     25  C   UNL     1       0.742  -0.511   1.242  0.00  0.00    +0.007 C 
ENDBRANCH  22  24
ENDBRANCH  16  22
ENDBRANCH   1  18
TORSDOF 4
