REMARK  Name = ZINC39579401
REMARK  4 active torsions:
REMARK  status: ('A' for Active; 'I' for Inactive)
REMARK    1  A    between atoms: C_4  and  C_7
REMARK    2  A    between atoms: C_9  and  C_13
REMARK    3  A    between atoms: N_22  and  C_23
REMARK    4  A    between atoms: C_23  and  C_24
REMARK                            x       y       z     vdW  Elec       q    Type
REMARK                         _______ _______ _______ _____ _____    ______ ____
ROOT
ATOM      1  C   UNL     1       5.730  -2.842  -1.060  0.00  0.00    +0.190 C 
ATOM      2  N   UNL     1       5.021  -4.120  -1.198  0.00  0.00    -0.322 N 
ATOM      3  C   UNL     1       5.977  -5.096  -1.510  0.00  0.00    +0.050 A 
ATOM      4  C   UNL     1       5.833  -6.459  -1.740  0.00  0.00    +0.025 A 
ATOM      5  C   UNL     1       6.938  -7.234  -2.035  0.00  0.00    +0.002 A 
ATOM      6  C   UNL     1       8.192  -6.657  -2.103  0.00  0.00    +0.002 A 
ATOM      7  C   UNL     1       8.346  -5.303  -1.875  0.00  0.00    +0.025 A 
ATOM      8  C   UNL     1       7.240  -4.515  -1.577  0.00  0.00    +0.053 A 
ATOM      9  N   UNL     1       7.145  -3.140  -1.311  0.00  0.00    -0.304 N 
ATOM     10  H   UNL     1       4.067  -4.262  -1.092  0.00  0.00    +0.148 HD
ENDROOT
BRANCH   1  13
ATOM     11  C   UNL     1       3.961  -0.778   0.897  0.00  0.00    +0.091 C 
ATOM     12  C   UNL     1       4.078  -2.101   0.674  0.00  0.00    +0.035 C 
ATOM     13  C   UNL     1       5.550  -2.288   0.355  0.00  0.00    +0.191 C 
ATOM     14  N   UNL     1       6.091  -0.922   0.454  0.00  0.00    -0.176 NA
ATOM     15  N   UNL     1       5.164  -0.164   0.747  0.00  0.00    -0.154 NA
BRANCH  11  19
ATOM     16  C   UNL     1       0.337   1.201   1.913  0.00  0.00    +0.000 A 
ATOM     17  C   UNL     1       1.507   1.928   1.786  0.00  0.00    +0.001 A 
ATOM     18  C   UNL     1       2.686   1.291   1.457  0.00  0.00    +0.010 A 
ATOM     19  C   UNL     1       2.697  -0.087   1.252  0.00  0.00    +0.002 A 
ATOM     20  C   UNL     1       1.515  -0.815   1.381  0.00  0.00    +0.010 A 
ATOM     21  C   UNL     1       0.342  -0.167   1.711  0.00  0.00    +0.001 A 
ENDBRANCH  11  19
ENDBRANCH   1  13
BRANCH   9  22
ATOM     22  C   UNL     1       8.252  -2.181  -1.289  0.00  0.00    +0.143 C 
BRANCH  22  23
ATOM     23  C   UNL     1       8.536  -1.708  -2.691  0.00  0.00    -0.012 A 
ATOM     24  C   UNL     1       9.572  -2.270  -3.413  0.00  0.00    +0.008 A 
ATOM     25  C   UNL     1       9.833  -1.837  -4.699  0.00  0.00    +0.020 A 
ATOM     26  C   UNL     1       9.056  -0.841  -5.266  0.00  0.00    +0.042 A 
ATOM     27  C   UNL     1       8.018  -0.280  -4.544  0.00  0.00    +0.040 A 
ATOM     28  C   UNL     1       7.755  -0.717  -3.258  0.00  0.00    +0.047 A 
ATOM     29 CL   UNL     1       6.449  -0.017  -2.354  0.00  0.00    -0.083 Cl
ATOM     30 CL   UNL     1       9.384  -0.297  -6.881  0.00  0.00    -0.083 Cl
ENDBRANCH  22  23
ENDBRANCH   9  22
TORSDOF 4
