REMARK  Name = ZINC61874808
REMARK  5 active torsions:
REMARK  status: ('A' for Active; 'I' for Inactive)
REMARK    1  A    between atoms: C_1  and  C_2
REMARK    2  A    between atoms: C_10  and  N_13
REMARK    3  A    between atoms: N_13  and  S_14
REMARK    4  A    between atoms: S_14  and  C_17
REMARK    5  A    between atoms: N_19  and  C_22
REMARK                            x       y       z     vdW  Elec       q    Type
REMARK                         _______ _______ _______ _____ _____    ______ ____
ROOT
ATOM      1  C   UNL     1      -0.019   1.526   0.010  0.00  0.00    +0.028 C 
ATOM      2  C   UNL     1       0.002  -0.004   0.002  0.00  0.00    +0.068 C 
ATOM      3  C   UNL     1      -1.434  -0.543   0.033  0.00  0.00    +0.026 C 
ATOM      4  C   UNL     1      -1.390  -2.069  -0.045  0.00  0.00    +0.039 C 
ATOM      5  C   UNL     1      -0.453  -2.624   0.995  0.00  0.00    -0.025 A 
ATOM      6  C   UNL     1      -0.591  -3.949   1.383  0.00  0.00    +0.005 A 
ATOM      7  C   UNL     1       0.254  -4.491   2.332  0.00  0.00    +0.002 A 
ATOM      8  C   UNL     1       1.247  -3.717   2.904  0.00  0.00    +0.028 A 
ATOM      9  C   UNL     1       1.393  -2.392   2.524  0.00  0.00    +0.095 A 
ATOM     10  C   UNL     1       0.537  -1.844   1.566  0.00  0.00    +0.055 A 
ATOM     11  N   UNL     1       0.695  -0.499   1.200  0.00  0.00    -0.340 N 
ATOM     12  H   UNL     1       1.250   0.095   1.728  0.00  0.00    +0.146 HD
ENDROOT
BRANCH   9  13
ATOM     13  N   UNL     1       2.396  -1.604   3.100  0.00  0.00    -0.095 NA
BRANCH  13  14
ATOM     14  S   UNL     1       3.410  -2.255   4.237  0.00  0.00    +0.109 S 
ATOM     15  O   UNL     1       2.609  -2.553   5.372  0.00  0.00    -0.147 OA
ATOM     16  O   UNL     1       4.185  -3.243   3.571  0.00  0.00    -0.147 OA
BRANCH  14  17
ATOM     17  C   UNL     1       4.527  -0.984   4.727  0.00  0.00    +0.195 A 
ATOM     18  C   UNL     1       5.716  -0.712   4.156  0.00  0.00    +0.134 A 
ATOM     19  N   UNL     1       6.252   0.345   4.842  0.00  0.00    -0.340 N 
ATOM     20  C   UNL     1       5.372   0.681   5.809  0.00  0.00    +0.175 A 
ATOM     21  N   UNL     1       4.340  -0.114   5.731  0.00  0.00    -0.330 N 
ATOM     22  C   UNL     1       7.540   0.990   4.576  0.00  0.00    +0.150 C 
ATOM     23  H   UNL     1       3.562  -0.083   6.309  0.00  0.00    +0.168 HD
ENDBRANCH  14  17
ENDBRANCH  13  14
ENDBRANCH   9  13
TORSDOF 3
