REMARK  Name = ZINC32655389
REMARK  10 active torsions:
REMARK  status: ('A' for Active; 'I' for Inactive)
REMARK    1  A    between atoms: C_1  and  C_2
REMARK    2  A    between atoms: C_2  and  C_32
REMARK    3  A    between atoms: C_6  and  C_18
REMARK    4  A    between atoms: C_11  and  S_15
REMARK    5  A    between atoms: S_15  and  C_16
REMARK    6  A    between atoms: C_20  and  O_27
REMARK    7  A    between atoms: C_21  and  O_26
REMARK    8  A    between atoms: C_22  and  O_24
REMARK    9  A    between atoms: O_24  and  C_25
REMARK   10  A    between atoms: O_27  and  C_28
REMARK                            x       y       z     vdW  Elec       q    Type
REMARK                         _______ _______ _______ _____ _____    ______ ____
ROOT
ATOM      1  C   UNL     1       3.684  -4.877  -1.100  0.00  0.00    +0.011 C 
ATOM      2  C   UNL     1       3.458  -4.926   0.413  0.00  0.00    -0.023 C 
ATOM      3  C   UNL     1       2.177  -4.168   0.767  0.00  0.00    +0.058 C 
ATOM      4  C   UNL     1       2.315  -2.721   0.356  0.00  0.00    +0.017 C 
ATOM      5  C   UNL     1       3.518  -2.110   0.360  0.00  0.00    +0.024 C 
ATOM      6  C   UNL     1       3.666  -0.665  -0.048  0.00  0.00    +0.091 C 
ATOM      7  C   UNL     1       2.347   0.047  -0.023  0.00  0.00    +0.044 A 
ATOM      8  C   UNL     1       2.292   1.438  -0.013  0.00  0.00    +0.126 A 
ATOM      9  N   UNL     1       1.101   2.034   0.003  0.00  0.00    -0.207 NA
ATOM     10  C   UNL     1      -0.016   1.321   0.009  0.00  0.00    +0.191 A 
ATOM     11  N   UNL     1       0.002  -0.004   0.002  0.00  0.00    -0.206 NA
ATOM     12  C   UNL     1       1.156  -0.664  -0.014  0.00  0.00    +0.133 A 
ATOM     13  N   UNL     1       1.184  -2.049  -0.018  0.00  0.00    -0.302 N 
ATOM     14  N   UNL     1       3.456   2.190  -0.018  0.00  0.00    -0.343 N 
ATOM     15  C   UNL     1       4.681  -2.804   0.741  0.00  0.00    +0.162 C 
ATOM     16  O   UNL     1       5.746  -2.219   0.753  0.00  0.00    -0.292 OA
ATOM     17  C   UNL     1       4.633  -4.255   1.132  0.00  0.00    +0.086 C 
ATOM     18  C   UNL     1       3.339  -6.382   0.869  0.00  0.00    +0.011 C 
ATOM     19  H   UNL     1       0.287  -2.608  -0.324  0.00  0.00    +0.153 HD
ATOM     20  H   UNL     1       3.401   3.289  -0.010  0.00  0.00    +0.144 HD
ATOM     21  H   UNL     1       4.435   1.688  -0.031  0.00  0.00    +0.144 HD
ENDROOT
BRANCH   6  22
ATOM     22  C   UNL     1       4.233  -0.602  -1.442  0.00  0.00    -0.028 A 
ATOM     23  C   UNL     1       3.551  -1.189  -2.491  0.00  0.00    +0.054 A 
ATOM     24  C   UNL     1       4.067  -1.128  -3.777  0.00  0.00    +0.165 A 
ATOM     25  C   UNL     1       5.277  -0.485  -4.008  0.00  0.00    +0.201 A 
ATOM     26  C   UNL     1       5.963   0.099  -2.950  0.00  0.00    +0.165 A 
ATOM     27  C   UNL     1       5.437   0.038  -1.668  0.00  0.00    +0.054 A 
BRANCH  26  28
ATOM     28  O   UNL     1       7.147   0.729  -3.171  0.00  0.00    -0.491 OA
ATOM     29  C   UNL     1       7.796   1.307  -2.037  0.00  0.00    +0.277 C 
ENDBRANCH  26  28
BRANCH  25  30
ATOM     30  O   UNL     1       5.789  -0.428  -5.268  0.00  0.00    -0.501 OA
ATOM     31  H   UNL     1       6.747   0.081  -5.449  0.00  0.00    +0.292 HD
ENDBRANCH  25  30
BRANCH  24  32
ATOM     32  O   UNL     1       3.392  -1.701  -4.809  0.00  0.00    -0.491 OA
ATOM     33  C   UNL     1       2.154  -2.344  -4.498  0.00  0.00    +0.277 C 
ENDBRANCH  24  32
ENDBRANCH   6  22
BRANCH  10  34
ATOM     34  S   UNL     1      -1.567   2.158   0.021  0.00  0.00    -0.089 S 
ATOM     35  C   UNL     1      -0.997   3.876   0.028  0.00  0.00    +0.093 C 
ENDBRANCH  10  34
TORSDOF 5
