REMARK  Name = ZINC39668563
REMARK  13 active torsions:
REMARK  status: ('A' for Active; 'I' for Inactive)
REMARK    1  A    between atoms: C_1  and  C_2
REMARK    2  A    between atoms: C_2  and  C_4
REMARK    3  A    between atoms: C_2  and  O_33
REMARK    4  A    between atoms: C_4  and  N_5
REMARK    5  A    between atoms: C_6  and  C_8
REMARK    6  A    between atoms: C_19  and  C_21
REMARK    7  A    between atoms: C_23  and  O_31
REMARK    8  A    between atoms: C_24  and  O_29
REMARK    9  A    between atoms: C_25  and  O_27
REMARK   10  A    between atoms: O_27  and  C_28
REMARK   11  A    between atoms: O_29  and  C_30
REMARK   12  A    between atoms: O_31  and  C_32
REMARK   13  A    between atoms: O_33  and  C_34
REMARK                            x       y       z     vdW  Elec       q    Type
REMARK                         _______ _______ _______ _____ _____    ______ ____
ROOT
ATOM      1  C   UNL     1      -3.836  -6.918   2.330  0.00  0.00    +0.100 C 
ATOM      2  C   UNL     1      -3.733  -6.237   3.713  0.00  0.00    +0.121 C 
ATOM      3  N   UNL     1      -4.643  -5.071   3.624  0.00  0.00    -0.296 N 
ATOM      4  C   UNL     1      -5.811  -5.572   2.860  0.00  0.00    +0.115 C 
ATOM      5  C   UNL     1      -5.202  -6.483   1.776  0.00  0.00    -0.004 C 
ATOM      6  C   UNL     1      -6.093  -7.700   1.547  0.00  0.00    -0.010 C 
ATOM      7  C   UNL     1      -7.424  -7.247   0.941  0.00  0.00    -0.082 C 
ATOM      8  N   UNL     1      -7.174  -6.553  -0.329  0.00  0.00    +0.379 N 
ATOM      9  C   UNL     1      -6.396  -5.333  -0.087  0.00  0.00    -0.082 C 
ATOM     10  C   UNL     1      -5.021  -5.705   0.476  0.00  0.00    -0.010 C 
ATOM     11  C   UNL     1      -4.453  -3.834   4.125  0.00  0.00    +0.247 C 
ATOM     12  O   UNL     1      -5.330  -2.998   4.030  0.00  0.00    -0.270 OA
ATOM     13  H   UNL     1      -6.660  -7.162  -0.948  0.00  0.00    -0.086 HD
ATOM     14  H   UNL     1      -8.055  -6.309  -0.756  0.00  0.00    -0.086 HD
ENDROOT
BRANCH  11  15
ATOM     15  C   UNL     1      -3.179  -3.495   4.790  0.00  0.00    +0.044 A 
ATOM     16  C   UNL     1      -2.022  -3.307   4.030  0.00  0.00    +0.062 A 
ATOM     17  C   UNL     1      -0.831  -2.989   4.654  0.00  0.00    +0.166 A 
ATOM     18  C   UNL     1      -0.783  -2.857   6.039  0.00  0.00    +0.204 A 
ATOM     19  C   UNL     1      -1.934  -3.045   6.799  0.00  0.00    +0.166 A 
ATOM     20  C   UNL     1      -3.130  -3.357   6.179  0.00  0.00    +0.062 A 
BRANCH  19  21
ATOM     21  O   UNL     1      -1.884  -2.916   8.152  0.00  0.00    -0.491 OA
ATOM     22  C   UNL     1      -3.103  -3.122   8.869  0.00  0.00    +0.277 C 
ENDBRANCH  19  21
BRANCH  18  23
ATOM     23  O   UNL     1       0.390  -2.545   6.651  0.00  0.00    -0.488 OA
ATOM     24  C   UNL     1       0.677  -1.157   6.834  0.00  0.00    +0.277 C 
ENDBRANCH  18  23
BRANCH  17  25
ATOM     25  O   UNL     1       0.296  -2.805   3.915  0.00  0.00    -0.491 OA
ATOM     26  C   UNL     1       0.153  -2.845   2.493  0.00  0.00    +0.277 C 
ENDBRANCH  17  25
ENDBRANCH  11  15
BRANCH   1  28
ATOM     27  N   UNL     1      -2.225  -7.266   0.486  0.00  0.00    -0.312 N 
ATOM     28  C   UNL     1      -2.727  -6.443   1.427  0.00  0.00    +0.218 C 
ATOM     29  O   UNL     1      -2.286  -5.319   1.548  0.00  0.00    -0.275 OA
ATOM     30  H   UNL     1      -2.510  -8.192   0.449  0.00  0.00    +0.149 HD
BRANCH  27  31
ATOM     31  C   UNL     1      -1.247  -6.762  -0.482  0.00  0.00    +0.148 C 
BRANCH  31  33
ATOM     32  C   UNL     1      -0.017  -7.289  -2.592  0.00  0.00    +0.053 C 
ATOM     33  C   UNL     1      -0.928  -7.857  -1.502  0.00  0.00    +0.187 C 
BRANCH  33  34
ATOM     34  O   UNL     1      -0.267  -8.941  -0.846  0.00  0.00    -0.486 OA
BRANCH  34  35
ATOM     35  C   UNL     1      -0.358 -10.164  -1.431  0.00  0.00    +0.139 A 
ATOM     36  C   UNL     1       0.067 -11.303  -0.754  0.00  0.00    +0.049 A 
ATOM     37  C   UNL     1      -0.045 -12.528  -1.392  0.00  0.00    +0.023 A 
ATOM     38  C   UNL     1      -0.572 -12.578  -2.669  0.00  0.00    +0.111 A 
ATOM     39  N   UNL     1      -0.965 -11.479  -3.283  0.00  0.00    -0.260 NA
ATOM     40  C   UNL     1      -0.881 -10.295  -2.709  0.00  0.00    +0.156 A 
ENDBRANCH  34  35
ENDBRANCH  33  34
ENDBRANCH  31  33
ENDBRANCH  27  31
ENDBRANCH   1  28
TORSDOF 9
