REMARK  Name = ZINC59960054
REMARK  11 active torsions:
REMARK  status: ('A' for Active; 'I' for Inactive)
REMARK    1  A    between atoms: C_1  and  C_2
REMARK    2  A    between atoms: C_2  and  C_3
REMARK    3  A    between atoms: C_2  and  C_4
REMARK    4  A    between atoms: C_7  and  N_10
REMARK    5  A    between atoms: C_11  and  C_13
REMARK    6  A    between atoms: N_15  and  N_16
REMARK    7  A    between atoms: C_17  and  C_18
REMARK    8  A    between atoms: C_21  and  O_24
REMARK    9  A    between atoms: O_24  and  C_25
REMARK   10  A    between atoms: C_25  and  C_26
REMARK   11  A    between atoms: N_28  and  C_29
REMARK                            x       y       z     vdW  Elec       q    Type
REMARK                         _______ _______ _______ _____ _____    ______ ____
ROOT
ATOM      1  N   UNL     1       2.765  -4.074   8.912  0.00  0.00    -0.187 NA
ATOM      2  C   UNL     1       2.128  -4.757   9.815  0.00  0.00    +0.138 C 
ENDROOT
BRANCH   2   3
ATOM      3  C   UNL     1       2.811  -5.151  11.059  0.00  0.00    -0.005 A 
ATOM      4  C   UNL     1       4.144  -4.785  11.273  0.00  0.00    +0.013 A 
ATOM      5  C   UNL     1       4.779  -5.156  12.438  0.00  0.00    +0.046 A 
ATOM      6  C   UNL     1       4.097  -5.892  13.400  0.00  0.00    +0.121 A 
ATOM      7  C   UNL     1       2.773  -6.257  13.192  0.00  0.00    +0.046 A 
ATOM      8  C   UNL     1       2.128  -5.886  12.033  0.00  0.00    +0.013 A 
BRANCH   6   9
ATOM      9  O   UNL     1       4.728  -6.255  14.547  0.00  0.00    -0.483 OA
BRANCH   9  10
ATOM     10  C   UNL     1       3.968  -7.011  15.493  0.00  0.00    +0.324 C 
BRANCH  10  11
ATOM     11  C   UNL     1       4.826  -7.321  16.692  0.00  0.00    +0.251 C 
ATOM     12  O   UNL     1       5.974  -6.933  16.733  0.00  0.00    -0.272 OA
ATOM     13  N   UNL     1       4.317  -8.029  17.720  0.00  0.00    -0.310 N 
ATOM     14  H   UNL     1       3.399  -8.339  17.687  0.00  0.00    +0.149 HD
BRANCH  13  15
ATOM     15  C   UNL     1       5.151  -8.330  18.886  0.00  0.00    +0.073 C 
ATOM     16  C   UNL     1       5.103  -7.154  19.865  0.00  0.00    +0.022 C 
ATOM     17  C   UNL     1       5.974  -7.469  21.083  0.00  0.00    +0.002 C 
ATOM     18  C   UNL     1       5.449  -8.729  21.773  0.00  0.00    +0.000 C 
ATOM     19  C   UNL     1       5.497  -9.904  20.795  0.00  0.00    +0.002 C 
ATOM     20  C   UNL     1       4.626  -9.590  19.577  0.00  0.00    +0.022 C 
ENDBRANCH  13  15
ENDBRANCH  10  11
ENDBRANCH   9  10
ENDBRANCH   6   9
ENDBRANCH   2   3
BRANCH   1  23
ATOM     21  C   UNL     1       2.776  -2.990   6.792  0.00  0.00    +0.318 C 
ATOM     22  O   UNL     1       3.935  -2.676   6.974  0.00  0.00    -0.263 OA
ATOM     23  N   UNL     1       2.115  -3.699   7.729  0.00  0.00    -0.199 N 
ATOM     24  H   UNL     1       1.189  -3.950   7.584  0.00  0.00    +0.178 HD
BRANCH  21  26
ATOM     25  N   UNL     1       2.745  -1.883   4.596  0.00  0.00    -0.278 N 
ATOM     26  C   UNL     1       2.084  -2.592   5.533  0.00  0.00    +0.305 C 
ATOM     27  O   UNL     1       0.925  -2.906   5.352  0.00  0.00    -0.265 OA
ATOM     28  H   UNL     1       3.691  -1.698   4.706  0.00  0.00    +0.155 HD
BRANCH  25  32
ATOM     29  C   UNL     1       0.727  -0.489   1.232  0.00  0.00    -0.045 A 
ATOM     30  C   UNL     1       2.054  -0.863   1.134  0.00  0.00    +0.006 A 
ATOM     31  C   UNL     1       2.727  -1.326   2.248  0.00  0.00    +0.023 A 
ATOM     32  C   UNL     1       2.068  -1.415   3.467  0.00  0.00    +0.034 A 
ATOM     33  C   UNL     1       0.734  -1.038   3.562  0.00  0.00    +0.023 A 
ATOM     34  C   UNL     1       0.069  -0.571   2.446  0.00  0.00    +0.006 A 
BRANCH  29  36
ATOM     35  C   UNL     1       0.700   1.264  -0.522  0.00  0.00    +0.012 C 
ATOM     36  C   UNL     1      -0.004   0.016   0.014  0.00  0.00    +0.013 C 
ATOM     37  C   UNL     1      -0.009  -1.070  -1.064  0.00  0.00    +0.012 C 
ENDBRANCH  29  36
ENDBRANCH  25  32
ENDBRANCH  21  26
ENDBRANCH   1  23
TORSDOF 9
