REMARK  Name = ZINC14653293
REMARK  10 active torsions:
REMARK  status: ('A' for Active; 'I' for Inactive)
REMARK    1  A    between atoms: C_1  and  C_2
REMARK    2  A    between atoms: C_2  and  C_3
REMARK    3  A    between atoms: C_3  and  O_4
REMARK    4  A    between atoms: O_4  and  C_5
REMARK    5  A    between atoms: C_10  and  C_11
REMARK    6  A    between atoms: N_13  and  C_14
REMARK    7  A    between atoms: C_14  and  N_16
REMARK    8  A    between atoms: N_16  and  C_17
REMARK    9  A    between atoms: C_20  and  N_24
REMARK   10  A    between atoms: C_22  and  O_23
REMARK                            x       y       z     vdW  Elec       q    Type
REMARK                         _______ _______ _______ _____ _____    ______ ____
ROOT
ATOM      1  C   UNL     1       2.341   4.008   0.476  0.00  0.00    +0.253 C 
ATOM      2  O   UNL     1       3.385   3.427   0.699  0.00  0.00    -0.270 OA
ATOM      3  N   UNL     1       2.345   5.335   0.237  0.00  0.00    -0.263 N 
ATOM      4  H   UNL     1       1.512   5.798   0.059  0.00  0.00    +0.157 HD
ENDROOT
BRANCH   1  10
ATOM      5  C   UNL     1       1.060   1.882   0.714  0.00  0.00    +0.133 A 
ATOM      6  C   UNL     1      -0.142   1.190   0.702  0.00  0.00    +0.047 A 
ATOM      7  C   UNL     1      -1.323   1.856   0.442  0.00  0.00    +0.019 A 
ATOM      8  C   UNL     1      -1.319   3.222   0.202  0.00  0.00    +0.019 A 
ATOM      9  C   UNL     1      -0.134   3.925   0.210  0.00  0.00    +0.032 A 
ATOM     10  C   UNL     1       1.069   3.262   0.466  0.00  0.00    +0.080 A 
ATOM     11 BR   UNL     1      -2.946   4.121  -0.145  0.00  0.00    -0.050 Br
BRANCH   5  12
ATOM     12  O   UNL     1       2.221   1.227   0.964  0.00  0.00    -0.491 OA
BRANCH  12  13
ATOM     13  C   UNL     1       2.134  -0.179   1.206  0.00  0.00    +0.229 C 
BRANCH  13  15
ATOM     14  C   UNL     1       3.440  -2.244   1.726  0.00  0.00    +0.007 C 
ATOM     15  C   UNL     1       3.533  -0.739   1.466  0.00  0.00    +0.038 C 
ENDBRANCH  13  15
ENDBRANCH  12  13
ENDBRANCH   5  12
ENDBRANCH   1  10
BRANCH   3  16
ATOM     16  C   UNL     1       3.508   6.017   0.246  0.00  0.00    +0.141 C 
ATOM     17  S   UNL     1       4.978   5.198   0.560  0.00  0.00    -0.018 S 
BRANCH  16  18
ATOM     18  N   UNL     1       3.512   7.343   0.007  0.00  0.00    -0.294 N 
ATOM     19  H   UNL     1       2.688   7.796  -0.232  0.00  0.00    +0.154 HD
BRANCH  18  20
ATOM     20  C   UNL     1       4.707   8.068   0.105  0.00  0.00    +0.075 A 
ATOM     21  C   UNL     1       5.861   7.592  -0.500  0.00  0.00    +0.029 A 
ATOM     22  C   UNL     1       7.038   8.309  -0.402  0.00  0.00    +0.035 A 
ATOM     23  C   UNL     1       7.069   9.502   0.297  0.00  0.00    +0.130 A 
ATOM     24  C   UNL     1       5.923   9.983   0.902  0.00  0.00    +0.080 A 
ATOM     25  C   UNL     1       4.738   9.273   0.805  0.00  0.00    +0.140 A 
BRANCH  23  26
ATOM     26  N   UNL     1       8.333  10.266   0.398  0.00  0.00    +0.057 N 
ATOM     27  O   UNL     1       9.344   9.844  -0.135  0.00  0.00    -0.126 OA
ATOM     28  O   UNL     1       8.362  11.316   1.013  0.00  0.00    -0.126 OA
ENDBRANCH  23  26
BRANCH  25  29
ATOM     29  O   UNL     1       3.608   9.747   1.394  0.00  0.00    -0.505 OA
ATOM     30  H   UNL     1       3.485   9.449   2.306  0.00  0.00    +0.292 HD
ENDBRANCH  25  29
ENDBRANCH  18  20
ENDBRANCH  16  18
ENDBRANCH   3  16
TORSDOF 9
