REMARK  Name = ZINC38979588
REMARK  4 active torsions:
REMARK  status: ('A' for Active; 'I' for Inactive)
REMARK    1  A    between atoms: C_9  and  O_27
REMARK    2  A    between atoms: C_10  and  C_11
REMARK    3  A    between atoms: N_12  and  N_13
REMARK    4  A    between atoms: C_14  and  C_20
REMARK                            x       y       z     vdW  Elec       q    Type
REMARK                         _______ _______ _______ _____ _____    ______ ____
ROOT
ATOM      1  C   UNL     1       5.003   0.089   0.164  0.00  0.00    +0.142 C 
ATOM      2  N   UNL     1       6.110  -0.556  -0.061  0.00  0.00    -0.183 NA
ENDROOT
BRANCH   1  12
ATOM      3  C   UNL     1       0.063   1.365   0.909  0.00  0.00    +0.001 A 
ATOM      4  C   UNL     1       1.256   2.083   0.896  0.00  0.00    +0.001 A 
ATOM      5  C   UNL     1       2.446   1.459   0.665  0.00  0.00    +0.009 A 
ATOM      6  C   UNL     1       2.471   0.078   0.438  0.00  0.00    -0.006 A 
ATOM      7  C   UNL     1       1.259  -0.655   0.452  0.00  0.00    -0.017 A 
ATOM      8  C   UNL     1       0.051   0.021   0.693  0.00  0.00    +0.008 A 
ATOM      9  C   UNL     1       1.286  -2.042   0.225  0.00  0.00    +0.012 A 
ATOM     10  C   UNL     1       2.460  -2.687  -0.006  0.00  0.00    +0.046 A 
ATOM     11  C   UNL     1       3.678  -2.010  -0.029  0.00  0.00    +0.126 A 
ATOM     12  C   UNL     1       3.724  -0.632   0.187  0.00  0.00    +0.044 A 
BRANCH  11  13
ATOM     13  O   UNL     1       4.826  -2.694  -0.264  0.00  0.00    -0.506 OA
ATOM     14  H   UNL     1       5.065  -2.753  -1.199  0.00  0.00    +0.292 HD
ENDBRANCH  11  13
ENDBRANCH   1  12
BRANCH   2  15
ATOM     15  N   UNL     1       7.318   0.143  -0.175  0.00  0.00    -0.172 N 
ATOM     16  C   UNL     1       8.675  -0.416  -0.316  0.00  0.00    +0.265 C 
ATOM     17  N   UNL     1       9.540   0.771  -0.392  0.00  0.00    -0.189 NA
ATOM     18  N   UNL     1       8.824   1.773  -0.310  0.00  0.00    -0.219 N 
ATOM     19  C   UNL     1       7.501   1.482  -0.187  0.00  0.00    +0.174 C 
ATOM     20  S   UNL     1       6.250   2.643  -0.059  0.00  0.00    -0.015 S 
ATOM     21  H   UNL     1       9.170   2.679  -0.336  0.00  0.00    +0.176 HD
BRANCH  16  22
ATOM     22  C   UNL     1       9.029  -1.256   0.884  0.00  0.00    +0.016 A 
ATOM     23  C   UNL     1       8.028  -1.842   1.637  0.00  0.00    +0.009 A 
ATOM     24  C   UNL     1       8.352  -2.612   2.738  0.00  0.00    +0.000 A 
ATOM     25  C   UNL     1       9.677  -2.798   3.086  0.00  0.00    +0.001 A 
ATOM     26  C   UNL     1      10.678  -2.214   2.334  0.00  0.00    +0.020 A 
ATOM     27  C   UNL     1      10.355  -1.447   1.229  0.00  0.00    +0.048 A 
ATOM     28 CL   UNL     1      11.612  -0.717   0.280  0.00  0.00    -0.083 Cl
ENDBRANCH  16  22
ENDBRANCH   2  15
TORSDOF 4
