REMARK  Name = ZINC11910383
REMARK  12 active torsions:
REMARK  status: ('A' for Active; 'I' for Inactive)
REMARK    1  A    between atoms: C_1  and  C_2
REMARK    2  A    between atoms: C_2  and  N_70
REMARK    3  A    between atoms: C_3  and  C_4
REMARK    4  A    between atoms: C_3  and  N_70
REMARK    5  A    between atoms: C_5  and  C_6
REMARK    6  A    between atoms: C_5  and  N_70
REMARK    7  A    between atoms: C_6  and  C_7
REMARK    8  A    between atoms: C_12  and  C_15
REMARK    9  A    between atoms: C_15  and  C_29
REMARK   10  A    between atoms: N_18  and  C_22
REMARK   11  A    between atoms: C_22  and  C_23
REMARK   12  A    between atoms: C_23  and  C_24
REMARK                            x       y       z     vdW  Elec       q    Type
REMARK                         _______ _______ _______ _____ _____    ______ ____
ROOT
ATOM      1  C   UNL     1      -0.036  -0.088   0.053  0.00  0.00    +0.158 C 
ATOM      2  C   UNL     1      -0.374   1.379   0.224  0.00  0.00    +0.253 C 
ATOM      3  O   UNL     1      -0.047   2.104   1.140  0.00  0.00    -0.272 OA
ATOM      4  N   UNL     1      -1.112   1.712  -0.854  0.00  0.00    -0.224 N 
ATOM      5  C   UNL     1      -1.286   0.669  -1.673  0.00  0.00    +0.310 C 
ATOM      6  O   UNL     1      -1.917   0.723  -2.711  0.00  0.00    -0.252 OA
ATOM      7  N   UNL     1      -0.684  -0.446  -1.221  0.00  0.00    -0.280 N 
ATOM      8  H   UNL     1      -0.675  -1.315  -1.652  0.00  0.00    +0.152 HD
ENDROOT
BRANCH   1  14
ATOM      9  C   UNL     1      -3.443  -3.656   2.371  0.00  0.00    +0.214 C 
ATOM     10  O   UNL     1      -4.568  -3.272   2.612  0.00  0.00    -0.276 OA
ATOM     11  N   UNL     1      -2.424  -2.775   2.330  0.00  0.00    -0.302 N 
ATOM     12  C   UNL     1      -2.661  -1.345   2.574  0.00  0.00    +0.108 C 
ATOM     13  C   UNL     1      -2.091  -0.544   1.400  0.00  0.00    +0.025 C 
ATOM     14  C   UNL     1      -0.619  -0.912   1.203  0.00  0.00    +0.031 C 
ATOM     15  C   UNL     1      -0.504  -2.402   0.872  0.00  0.00    +0.025 C 
ATOM     16  C   UNL     1      -1.056  -3.225   2.040  0.00  0.00    +0.108 C 
BRANCH   9  17
ATOM     17  C   UNL     1      -3.184  -5.119   2.119  0.00  0.00    +0.077 C 
BRANCH  17  18
ATOM     18  C   UNL     1      -4.498  -5.896   2.224  0.00  0.00    -0.070 C 
BRANCH  18  19
ATOM     19  N   UNL     1      -4.232  -7.324   1.954  0.00  0.00    +0.380 N 
ATOM     20  H   UNL     1      -3.716  -7.405   1.069  0.00  0.00    -0.082 HD
BRANCH  19  22
ATOM     21  C   UNL     1      -4.168  -7.841   4.370  0.00  0.00    -0.017 C 
ATOM     22  C   UNL     1      -3.413  -7.900   3.041  0.00  0.00    -0.082 C 
ENDBRANCH  19  22
BRANCH  19  23
ATOM     23  C   UNL     1      -5.506  -8.062   1.836  0.00  0.00    -0.082 C 
ATOM     24  C   UNL     1      -5.226  -9.431   1.212  0.00  0.00    -0.017 C 
ENDBRANCH  19  23
ENDBRANCH  18  19
ENDBRANCH  17  18
ENDBRANCH   9  17
ENDBRANCH   1  14
BRANCH   1  25
ATOM     25  C   UNL     1       1.455  -0.286  -0.037  0.00  0.00    +0.074 A 
ATOM     26  C   UNL     1       2.162   0.305  -1.067  0.00  0.00    +0.026 A 
ATOM     27  C   UNL     1       3.534   0.121  -1.138  0.00  0.00    +0.003 A 
ATOM     28  C   UNL     1       4.145  -0.663  -0.171  0.00  0.00    +0.020 A 
ATOM     29  C   UNL     1       3.373  -1.226   0.826  0.00  0.00    +0.111 A 
ATOM     30  N   UNL     1       2.070  -1.025   0.865  0.00  0.00    -0.257 NA
ENDBRANCH   1  25
BRANCH   4  31
ATOM     31  C   UNL     1      -1.656   3.050  -1.097  0.00  0.00    +0.123 C 
BRANCH  31  32
ATOM     32  C   UNL     1      -0.643   3.875  -1.895  0.00  0.00    +0.062 C 
BRANCH  32  33
ATOM     33  C   UNL     1      -1.203   5.252  -2.145  0.00  0.00    -0.009 A 
ATOM     34  C   UNL     1      -1.089   6.370  -1.389  0.00  0.00    +0.011 A 
ATOM     35  C   UNL     1      -1.692   7.536  -1.821  0.00  0.00    +0.008 A 
ATOM     36  C   UNL     1      -2.380   7.527  -2.988  0.00  0.00    +0.045 A 
ATOM     37  S   UNL     1      -2.182   5.834  -3.520  0.00  0.00    -0.102 S 
ENDBRANCH  32  33
ENDBRANCH  31  32
ENDBRANCH   4  31
TORSDOF 10
