REMARK  Name = ZINC08448644
REMARK  13 active torsions:
REMARK  status: ('A' for Active; 'I' for Inactive)
REMARK    1  A    between atoms: C_1  and  C_2
REMARK    2  A    between atoms: C_2  and  O_3
REMARK    3  A    between atoms: O_3  and  C_4
REMARK    4  A    between atoms: C_4  and  C_6
REMARK    5  A    between atoms: C_7  and  C_22
REMARK    6  A    between atoms: C_9  and  N_21
REMARK    7  A    between atoms: C_10  and  C_19
REMARK    8  A    between atoms: C_11  and  C_13
REMARK    9  A    between atoms: C_22  and  S_23
REMARK   10  A    between atoms: S_23  and  C_24
REMARK   11  A    between atoms: C_25  and  C_42
REMARK   12  A    between atoms: C_26  and  C_35
REMARK   13  A    between atoms: C_28  and  C_30
REMARK                            x       y       z     vdW  Elec       q    Type
REMARK                         _______ _______ _______ _____ _____    ______ ____
ROOT
ATOM      1  C   UNL     1      -7.558   0.648  -1.079  0.00  0.00    +0.088 C 
ATOM      2  C   UNL     1      -6.987   0.916   0.102  0.00  0.00    +0.128 C 
ATOM      3  O   UNL     1      -7.624   0.719   1.266  0.00  0.00    -0.444 OA
ATOM      4  C   UNL     1      -8.967   0.620   1.273  0.00  0.00    +0.198 C 
ATOM      5  C   UNL     1      -9.667   0.330   0.150  0.00  0.00    +0.098 C 
ATOM      6  C   UNL     1      -8.961   0.112  -1.161  0.00  0.00    +0.106 C 
ENDROOT
BRANCH   6   7
ATOM      7  C   UNL     1      -8.917  -1.363  -1.468  0.00  0.00    -0.016 A 
ATOM      8  C   UNL     1      -9.514  -1.859  -2.616  0.00  0.00    +0.007 A 
ATOM      9  C   UNL     1      -9.449  -3.223  -2.857  0.00  0.00    +0.020 A 
ATOM     10  C   UNL     1      -8.795  -4.036  -1.951  0.00  0.00    +0.111 A 
ATOM     11  N   UNL     1      -8.238  -3.529  -0.869  0.00  0.00    -0.263 NA
ATOM     12  C   UNL     1      -8.275  -2.236  -0.611  0.00  0.00    +0.115 A 
ENDBRANCH   6   7
BRANCH   4  13
ATOM     13  N   UNL     1      -9.645   0.814   2.451  0.00  0.00    -0.328 N 
ATOM     14  H   UNL     1     -10.612   0.742   2.471  0.00  0.00    +0.145 HD
ATOM     15  H   UNL     1      -9.156   1.022   3.263  0.00  0.00    +0.145 HD
ENDBRANCH   4  13
BRANCH   1  16
ATOM     16  C   UNL     1      -6.827   0.874  -2.272  0.00  0.00    +0.339 C 
ATOM     17  O   UNL     1      -5.756   1.448  -2.229  0.00  0.00    -0.245 OA
BRANCH  16  18
ATOM     18  O   UNL     1      -7.319   0.451  -3.454  0.00  0.00    -0.462 OA
BRANCH  18  20
ATOM     19  C   UNL     1      -7.245   0.163  -5.853  0.00  0.00    +0.048 C 
ATOM     20  C   UNL     1      -6.530   0.711  -4.617  0.00  0.00    +0.229 C 
ENDBRANCH  18  20
ENDBRANCH  16  18
ENDBRANCH   1  16
BRANCH   5  21
ATOM     21  C   UNL     1     -11.094   0.229   0.211  0.00  0.00    +0.101 C 
ATOM     22  N   UNL     1     -12.226   0.149   0.260  0.00  0.00    -0.191 NA
ENDBRANCH   5  21
BRANCH   2  23
ATOM     23  C   UNL     1      -5.580   1.453   0.126  0.00  0.00    +0.150 C 
BRANCH  23  24
ATOM     24  S   UNL     1      -5.616   3.252  -0.076  0.00  0.00    -0.097 S 
BRANCH  24  25
ATOM     25  C   UNL     1      -3.890   3.602  -0.014  0.00  0.00    +0.116 A 
ATOM     26  C   UNL     1      -3.444   4.930  -0.135  0.00  0.00    +0.091 A 
ATOM     27  C   UNL     1      -2.056   5.191  -0.081  0.00  0.00    +0.004 A 
ATOM     28  C   UNL     1      -1.190   4.116   0.095  0.00  0.00    +0.038 A 
ATOM     29  C   UNL     1      -1.714   2.827   0.201  0.00  0.00    +0.079 A 
ATOM     30  N   UNL     1      -3.027   2.613   0.147  0.00  0.00    -0.239 NA
BRANCH  27  31
ATOM     31  C   UNL     1      -1.537   6.573  -0.204  0.00  0.00    -0.016 A 
ATOM     32  C   UNL     1      -1.958   7.388  -1.254  0.00  0.00    +0.010 A 
ATOM     33  C   UNL     1      -1.475   8.676  -1.361  0.00  0.00    +0.020 A 
ATOM     34  C   UNL     1      -0.566   9.156  -0.434  0.00  0.00    +0.041 A 
ATOM     35  C   UNL     1      -0.141   8.350   0.608  0.00  0.00    +0.020 A 
ATOM     36  C   UNL     1      -0.621   7.062   0.727  0.00  0.00    +0.010 A 
ATOM     37 CL   UNL     1       0.042  10.776  -0.578  0.00  0.00    -0.084 Cl
ENDBRANCH  27  31
BRANCH  29  38
ATOM     38  C   UNL     1      -0.800   1.685   0.383  0.00  0.00    +0.038 A 
ATOM     39  C   UNL     1      -1.097   0.351   0.508  0.00  0.00    +0.017 A 
ATOM     40  C   UNL     1      -0.066  -0.543   0.673  0.00  0.00    +0.008 A 
ATOM     41  C   UNL     1       1.213  -0.083   0.698  0.00  0.00    +0.046 A 
ATOM     42  S   UNL     1       0.982   1.675   0.489  0.00  0.00    -0.095 S 
ENDBRANCH  29  38
BRANCH  26  43
ATOM     43  C   UNL     1      -4.379   6.000  -0.308  0.00  0.00    +0.102 C 
ATOM     44  N   UNL     1      -5.122   6.849  -0.446  0.00  0.00    -0.191 NA
ENDBRANCH  26  43
ENDBRANCH  24  25
ENDBRANCH  23  24
ENDBRANCH   2  23
TORSDOF 12
