REMARK  Name = ZINC42016398
REMARK  5 active torsions:
REMARK  status: ('A' for Active; 'I' for Inactive)
REMARK    1  A    between atoms: C_1  and  C_2
REMARK    2  A    between atoms: C_5  and  N_9
REMARK    3  A    between atoms: C_7  and  C_8
REMARK    4  A    between atoms: C_10  and  C_14
REMARK    5  A    between atoms: C_19  and  N_20
REMARK                            x       y       z     vdW  Elec       q    Type
REMARK                         _______ _______ _______ _____ _____    ______ ____
ROOT
ATOM      1  N   UNL     1       0.083  -4.172  -0.040  0.00  0.00    -0.193 N 
ATOM      2  C   UNL     1      -0.625  -5.007  -0.855  0.00  0.00    +0.189 A 
ATOM      3  N   UNL     1      -0.332  -6.238  -0.489  0.00  0.00    -0.108 NA
ATOM      4  N   UNL     1       0.500  -6.231   0.488  0.00  0.00    -0.022 NA
ATOM      5  N   UNL     1       0.805  -5.022   0.815  0.00  0.00    -0.039 NA
ENDROOT
BRANCH   1  10
ATOM      6  C   UNL     1       0.120   1.503  -0.107  0.00  0.00    +0.044 C 
ATOM      7  C   UNL     1       0.110  -0.004  -0.089  0.00  0.00    -0.047 A 
ATOM      8  C   UNL     1       1.294  -0.700   0.071  0.00  0.00    +0.006 A 
ATOM      9  C   UNL     1       1.288  -2.081   0.088  0.00  0.00    +0.028 A 
ATOM     10  C   UNL     1       0.092  -2.771  -0.057  0.00  0.00    +0.070 A 
ATOM     11  C   UNL     1      -1.095  -2.069  -0.218  0.00  0.00    +0.031 A 
ATOM     12  C   UNL     1      -1.084  -0.688  -0.228  0.00  0.00    -0.046 A 
ATOM     13  C   UNL     1      -2.373   0.075  -0.397  0.00  0.00    +0.044 C 
ENDBRANCH   1  10
BRANCH   2  14
ATOM     14  C   UNL     1      -1.545  -4.606  -1.941  0.00  0.00    +0.043 A 
ATOM     15  C   UNL     1      -1.145  -3.661  -2.886  0.00  0.00    +0.033 A 
ATOM     16  C   UNL     1      -2.008  -3.291  -3.897  0.00  0.00    +0.042 A 
ATOM     17  C   UNL     1      -3.272  -3.855  -3.979  0.00  0.00    +0.022 A 
ATOM     18  C   UNL     1      -3.679  -4.792  -3.050  0.00  0.00    +0.025 A 
ATOM     19  C   UNL     1      -2.821  -5.179  -2.030  0.00  0.00    +0.036 A 
ATOM     20 CL   UNL     1      -1.510  -2.114  -5.072  0.00  0.00    -0.084 Cl
BRANCH  19  21
ATOM     21  N   UNL     1      -3.229  -6.128  -1.095  0.00  0.00    -0.357 N 
ATOM     22  H   UNL     1      -2.629  -6.395  -0.381  0.00  0.00    +0.142 HD
ATOM     23  H   UNL     1      -4.113  -6.523  -1.159  0.00  0.00    +0.142 HD
ENDBRANCH  19  21
ENDBRANCH   2  14
TORSDOF 3
