REMARK  Name = ZINC02377402
REMARK  6 active torsions:
REMARK  status: ('A' for Active; 'I' for Inactive)
REMARK    1  A    between atoms: C_1  and  O_2
REMARK    2  A    between atoms: O_2  and  C_3
REMARK    3  A    between atoms: C_6  and  C_9
REMARK    4  A    between atoms: C_9  and  C_11
REMARK    5  A    between atoms: C_11  and  S_12
REMARK    6  A    between atoms: S_12  and  C_13
REMARK                            x       y       z     vdW  Elec       q    Type
REMARK                         _______ _______ _______ _____ _____    ______ ____
ROOT
ATOM      1  C   UNL     1      -7.217  -0.056  -1.848  0.00  0.00    +0.199 A 
ATOM      2  N   UNL     1      -6.302  -0.081  -2.789  0.00  0.00    -0.122 NA
ATOM      3  N   UNL     1      -5.145   0.200  -2.296  0.00  0.00    -0.128 NA
ATOM      4  C   UNL     1      -5.256   0.420  -1.009  0.00  0.00    +0.174 A 
ATOM      5  N   UNL     1      -6.584   0.264  -0.677  0.00  0.00    -0.241 N 
ATOM      6  C   UNL     1      -7.001   0.434   0.616  0.00  0.00    +0.202 A 
ATOM      7  N   UNL     1      -6.156   0.749   1.568  0.00  0.00    -0.208 NA
ATOM      8  C   UNL     1      -4.856   0.919   1.337  0.00  0.00    +0.116 A 
ATOM      9  C   UNL     1      -4.297   0.775   0.059  0.00  0.00    +0.056 A 
ATOM     10  C   UNL     1      -2.856   0.994  -0.039  0.00  0.00    -0.024 A 
ATOM     11  C   UNL     1      -2.205   1.312   1.101  0.00  0.00    -0.004 A 
ATOM     12  S   UNL     1      -3.460   1.337   2.352  0.00  0.00    -0.073 S 
ATOM     13  C   UNL     1      -0.738   1.584   1.267  0.00  0.00    +0.043 C 
ATOM     14  C   UNL     1      -0.013   1.086   0.008  0.00  0.00    +0.005 C 
ATOM     15  C   UNL     1      -0.759   1.596  -1.228  0.00  0.00    +0.005 C 
ATOM     16  C   UNL     1      -2.101   0.874  -1.360  0.00  0.00    +0.037 C 
ATOM     17  N   UNL     1      -8.332   0.272   0.922  0.00  0.00    -0.328 N 
ATOM     18  H   UNL     1      -8.965   0.039   0.225  0.00  0.00    +0.145 HD
ATOM     19  H   UNL     1      -8.638   0.390   1.835  0.00  0.00    +0.145 HD
ENDROOT
BRANCH   1  20
ATOM     20  S   UNL     1      -8.937  -0.376  -2.053  0.00  0.00    -0.078 S 
BRANCH  20  21
ATOM     21  C   UNL     1      -9.109  -0.731  -3.824  0.00  0.00    +0.157 C 
BRANCH  21  22
ATOM     22  C   UNL     1     -10.553  -1.026  -4.139  0.00  0.00    +0.173 C 
ATOM     23  O   UNL     1     -11.384  -0.999  -3.256  0.00  0.00    -0.291 OA
BRANCH  22  27
ATOM     24  C   UNL     1     -11.708  -1.947  -8.108  0.00  0.00    +0.120 A 
ATOM     25  C   UNL     1     -12.663  -1.917  -7.098  0.00  0.00    +0.046 A 
ATOM     26  C   UNL     1     -12.294  -1.619  -5.811  0.00  0.00    +0.015 A 
ATOM     27  C   UNL     1     -10.954  -1.345  -5.516  0.00  0.00    +0.018 A 
ATOM     28  C   UNL     1      -9.997  -1.371  -6.538  0.00  0.00    +0.015 A 
ATOM     29  C   UNL     1     -10.375  -1.676  -7.820  0.00  0.00    +0.046 A 
BRANCH  24  31
ATOM     30  C   UNL     1     -11.047  -2.257 -10.369  0.00  0.00    +0.277 C 
ATOM     31  O   UNL     1     -12.078  -2.243  -9.380  0.00  0.00    -0.495 OA
ENDBRANCH  24  31
ENDBRANCH  22  27
ENDBRANCH  21  22
ENDBRANCH  20  21
ENDBRANCH   1  20
TORSDOF 5
