REMARK  Name = ZINC36094207
REMARK  9 active torsions:
REMARK  status: ('A' for Active; 'I' for Inactive)
REMARK    1  A    between atoms: C_6  and  C_7
REMARK    2  A    between atoms: C_7  and  N_8
REMARK    3  A    between atoms: N_8  and  C_9
REMARK    4  A    between atoms: C_9  and  C_10
REMARK    5  A    between atoms: C_15  and  O_16
REMARK    6  A    between atoms: O_16  and  C_17
REMARK    7  A    between atoms: C_17  and  C_18
REMARK    8  A    between atoms: C_20  and  C_23
REMARK    9  A    between atoms: C_23  and  O_24
REMARK                            x       y       z     vdW  Elec       q    Type
REMARK                         _______ _______ _______ _____ _____    ______ ____
ROOT
ATOM      1  C   UNK     1      -3.436  -2.015  -2.782  0.00  0.00    -0.021 A 
ATOM      2  C   UNK     1      -4.406  -1.213  -3.353  0.00  0.00    +0.025 A 
ATOM      3  C   UNK     1      -4.815  -1.442  -4.654  0.00  0.00    +0.041 A 
ATOM      4  C   UNK     1      -4.255  -2.473  -5.387  0.00  0.00    +0.023 A 
ATOM      5  C   UNK     1      -3.285  -3.277  -4.820  0.00  0.00    +0.047 A 
ATOM      6  C   UNK     1      -2.869  -3.046  -3.517  0.00  0.00    +0.122 A 
ATOM      7 CL   UNK     1      -6.034  -0.433  -5.369  0.00  0.00    -0.084 Cl
ENDROOT
BRANCH   1   8
ATOM      8  C   UNK     1      -2.991  -1.766  -1.364  0.00  0.00    -0.043 C 
BRANCH   8   9
ATOM      9  N   UNK     1      -1.728  -1.016  -1.372  0.00  0.00    +0.384 N 
ATOM     10  H   UNK     1      -1.864  -0.134  -1.842  0.00  0.00    -0.085 HD
ATOM     11  H   UNK     1      -1.022  -1.550  -1.857  0.00  0.00    -0.085 HD
BRANCH   9  12
ATOM     12  C   UNK     1      -1.294  -0.774   0.010  0.00  0.00    -0.046 C 
BRANCH  12  18
ATOM     13  C   UNK     1      -0.017   1.378   0.010  0.00  0.00    +0.005 A 
ATOM     14  C   UNK     1       1.170   2.088   0.002  0.00  0.00    +0.050 A 
ATOM     15  C   UNK     1       2.380   1.416  -0.013  0.00  0.00    +0.166 A 
ATOM     16  C   UNK     1       2.399   0.023  -0.021  0.00  0.00    +0.166 A 
ATOM     17  C   UNK     1       1.207  -0.682  -0.014  0.00  0.00    +0.051 A 
ATOM     18  C   UNK     1       0.002  -0.004   0.002  0.00  0.00    -0.061 A 
ATOM     19  O   UNK     1       3.698  -0.395  -0.036  0.00  0.00    -0.453 OA
ATOM     20  C   UNK     1       4.466   0.750  -0.450  0.00  0.00    +0.466 C 
ATOM     21  O   UNK     1       3.668   1.870  -0.024  0.00  0.00    -0.453 OA
ENDBRANCH  12  18
ENDBRANCH   9  12
ENDBRANCH   8   9
ENDBRANCH   1   8
BRANCH   6  22
ATOM     22  O   UNK     1      -1.911  -3.832  -2.959  0.00  0.00    -0.485 OA
BRANCH  22  23
ATOM     23  C   UNK     1      -1.371  -4.874  -3.774  0.00  0.00    +0.291 C 
BRANCH  23  24
ATOM     24  C   UNK     1      -0.331  -5.635  -2.993  0.00  0.00    +0.116 A 
ATOM     25  N   UNK     1      -0.493  -6.691  -2.235  0.00  0.00    -0.243 NA
ATOM     26  C   UNK     1       0.525  -7.249  -1.610  0.00  0.00    +0.074 A 
ATOM     27  C   UNK     1       1.744  -6.680  -1.789  0.00  0.00    +0.072 A 
ATOM     28  S   UNK     1       1.323  -5.338  -2.890  0.00  0.00    -0.077 S 
BRANCH  26  29
ATOM     29  C   UNK     1       0.342  -8.463  -0.737  0.00  0.00    +0.211 C 
BRANCH  29  30
ATOM     30  O   UNK     1       1.604  -8.851  -0.190  0.00  0.00    -0.389 OA
ATOM     31  H   UNK     1       1.562  -9.628   0.384  0.00  0.00    +0.210 HD
ENDBRANCH  29  30
ENDBRANCH  26  29
ENDBRANCH  23  24
ENDBRANCH  22  23
ENDBRANCH   6  22
TORSDOF 9
