REMARK  Name = ZINC41128119
REMARK  9 active torsions:
REMARK  status: ('A' for Active; 'I' for Inactive)
REMARK    1  A    between atoms: C_1  and  C_2
REMARK    2  A    between atoms: C_2  and  C_3
REMARK    3  A    between atoms: N_6  and  N_7
REMARK    4  A    between atoms: N_7  and  C_8
REMARK    5  A    between atoms: C_8  and  C_15
REMARK    6  A    between atoms: C_9  and  C_10
REMARK    7  A    between atoms: C_10  and  O_12
REMARK    8  A    between atoms: O_12  and  C_13
REMARK    9  A    between atoms: C_13  and  C_14
REMARK                            x       y       z     vdW  Elec       q    Type
REMARK                         _______ _______ _______ _____ _____    ______ ____
ROOT
ATOM      1  C   UNL     1       0.942  -1.407  -1.005  0.00  0.00    -0.032 A 
ATOM      2  C   UNL     1       2.300  -1.457  -1.017  0.00  0.00    +0.071 A 
ATOM      3  C   UNL     1       2.951  -1.949  -2.239  0.00  0.00    +0.212 A 
ATOM      4  N   UNL     1       4.164  -1.569  -2.555  0.00  0.00    -0.276 N 
ATOM      5  O   UNL     1       2.257  -2.810  -3.035  0.00  0.00    -0.438 OA
ATOM      6  C   UNL     1       0.936  -2.548  -3.210  0.00  0.00    +0.141 A 
ATOM      7  C   UNL     1       0.231  -1.856  -2.212  0.00  0.00    +0.021 A 
ATOM      8  C   UNL     1      -1.130  -1.600  -2.380  0.00  0.00    +0.019 A 
ATOM      9  C   UNL     1      -1.779  -2.024  -3.523  0.00  0.00    -0.005 A 
ATOM     10  C   UNL     1      -1.078  -2.703  -4.511  0.00  0.00    +0.128 A 
ATOM     11  C   UNL     1       0.278  -2.958  -4.353  0.00  0.00    +0.092 A 
ATOM     12  O   UNL     1      -1.681  -3.120  -5.654  0.00  0.00    -0.485 OA
ATOM     13  C   UNL     1      -3.106  -3.193  -5.669  0.00  0.00    +0.111 C 
ATOM     14  C   UNL     1      -3.598  -3.412  -7.100  0.00  0.00    +0.048 C 
ATOM     15  C   UNL     1      -3.034  -4.729  -7.637  0.00  0.00    +0.004 C 
ATOM     16  C   UNL     1      -3.504  -5.884  -6.751  0.00  0.00    +0.000 C 
ATOM     17  C   UNL     1      -3.009  -5.664  -5.320  0.00  0.00    +0.004 C 
ATOM     18  C   UNL     1      -3.573  -4.347  -4.782  0.00  0.00    +0.048 C 
ATOM     19  C   UNL     1      -3.668  -1.873  -5.130  0.00  0.00    +0.053 C 
ATOM     20  C   UNL     1      -3.252  -1.734  -3.664  0.00  0.00    +0.043 C 
ATOM     21  H   UNL     1       4.581  -1.902  -3.365  0.00  0.00    +0.187 HD
ENDROOT
BRANCH   1  23
ATOM     22  C   UNL     1      -0.135   0.569   0.035  0.00  0.00    +0.009 C 
ATOM     23  C   UNL     1       0.190  -0.916   0.205  0.00  0.00    +0.032 C 
ENDBRANCH   1  23
BRANCH   4  24
ATOM     24  N   UNL     1       4.859  -0.682  -1.723  0.00  0.00    -0.262 N 
ATOM     25  H   UNL     1       4.442  -0.349  -0.913  0.00  0.00    +0.172 HD
BRANCH  24  26
ATOM     26  C   UNL     1       6.119  -0.288  -2.051  0.00  0.00    +0.027 C 
ATOM     27  C   UNL     1       6.702  -0.754  -3.182  0.00  0.00    +0.111 C 
ATOM     28  C   UNL     1       6.867   0.666  -1.155  0.00  0.00    +0.062 C 
BRANCH  27  29
ATOM     29  C   UNL     1       8.057  -0.471  -3.444  0.00  0.00    +0.333 C 
ATOM     30  O   UNL     1       8.734   0.094  -2.605  0.00  0.00    -0.246 OA
BRANCH  29  31
ATOM     31  O   UNL     1       8.605  -0.829  -4.625  0.00  0.00    -0.462 OA
BRANCH  31  32
ATOM     32  C   UNL     1       9.984  -0.511  -4.823  0.00  0.00    +0.229 C 
ATOM     33  C   UNL     1      10.424  -0.989  -6.208  0.00  0.00    +0.048 C 
ENDBRANCH  31  32
ENDBRANCH  29  31
ENDBRANCH  27  29
ENDBRANCH  24  26
ENDBRANCH   4  24
TORSDOF 6
