REMARK  Name = ZINC16700315
REMARK  10 active torsions:
REMARK  status: ('A' for Active; 'I' for Inactive)
REMARK    1  A    between atoms: C_1  and  C_2
REMARK    2  A    between atoms: C_4  and  C_32
REMARK    3  A    between atoms: C_5  and  C_31
REMARK    4  A    between atoms: C_6  and  S_9
REMARK    5  A    between atoms: C_7  and  C_8
REMARK    6  A    between atoms: S_9  and  N_12
REMARK    7  A    between atoms: C_16  and  O_30
REMARK    8  A    between atoms: N_26  and  C_27
REMARK    9  A    between atoms: C_27  and  C_28
REMARK   10  A    between atoms: C_28  and  O_29
REMARK                            x       y       z     vdW  Elec       q    Type
REMARK                         _______ _______ _______ _____ _____    ______ ____
ROOT
ATOM      1  N   UNL     1      -1.827  -0.062  -1.707  0.00  0.00    -0.128 NA
ATOM      2  C   UNL     1      -2.911  -0.507  -2.291  0.00  0.00    +0.095 C 
ATOM      3  C   UNL     1      -3.169  -0.343  -3.743  0.00  0.00    +0.054 C 
ATOM      4  C   UNL     1      -3.772  -1.386  -4.370  0.00  0.00    +0.073 C 
ATOM      5  C   UNL     1      -4.088  -2.629  -3.595  0.00  0.00    +0.235 C 
ATOM      6  C   UNL     1      -4.599  -2.296  -2.225  0.00  0.00    +0.026 A 
ATOM      7  C   UNL     1      -3.989  -1.229  -1.553  0.00  0.00    +0.011 A 
ATOM      8  C   UNL     1      -4.397  -0.872  -0.279  0.00  0.00    +0.010 A 
ATOM      9  C   UNL     1      -5.420  -1.583   0.326  0.00  0.00    +0.001 A 
ATOM     10  C   UNL     1      -6.026  -2.632  -0.342  0.00  0.00    +0.000 A 
ATOM     11  C   UNL     1      -5.616  -2.989  -1.617  0.00  0.00    +0.010 A 
ATOM     12  O   UNL     1      -4.890  -3.559  -4.267  0.00  0.00    -0.339 OA
ATOM     13  C   UNL     1      -5.637  -3.160  -5.398  0.00  0.00    +0.183 C 
ATOM     14  C   UNL     1      -4.795  -2.352  -6.379  0.00  0.00    +0.133 C 
ATOM     15  N   UNL     1      -4.130  -1.253  -5.685  0.00  0.00    -0.324 N 
ENDROOT
BRANCH   1  16
ATOM     16  S   UNL     1      -1.535  -0.421  -0.117  0.00  0.00    +0.100 S 
ATOM     17  O   UNL     1      -1.901  -1.782   0.065  0.00  0.00    -0.146 OA
ATOM     18  O   UNL     1      -2.107   0.630   0.648  0.00  0.00    -0.146 OA
BRANCH  16  24
ATOM     19  C   UNL     1       3.168  -2.669   0.263  0.00  0.00    +0.044 C 
ATOM     20  C   UNL     1       2.337  -1.412   0.291  0.00  0.00    -0.045 A 
ATOM     21  C   UNL     1       2.942  -0.188   0.507  0.00  0.00    +0.007 A 
ATOM     22  C   UNL     1       2.180   0.965   0.533  0.00  0.00    -0.045 A 
ATOM     23  C   UNL     1       0.812   0.893   0.342  0.00  0.00    -0.020 A 
ATOM     24  C   UNL     1       0.207  -0.331   0.126  0.00  0.00    +0.119 A 
ATOM     25  C   UNL     1       0.970  -1.484   0.101  0.00  0.00    -0.020 A 
ATOM     26  C   UNL     1       0.310  -2.818  -0.135  0.00  0.00    +0.046 C 
ATOM     27  C   UNL     1      -0.018   2.151   0.363  0.00  0.00    +0.046 C 
ATOM     28  C   UNL     1       2.839   2.299   0.769  0.00  0.00    +0.044 C 
ENDBRANCH  16  24
ENDBRANCH   1  16
BRANCH   5  29
ATOM     29  O   UNL     1      -2.834  -3.281  -3.387  0.00  0.00    -0.356 OA
ATOM     30  H   UNL     1      -2.793  -4.231  -2.834  0.00  0.00    +0.213 HD
ENDBRANCH   5  29
BRANCH  15  31
ATOM     31  C   UNL     1      -3.880   0.008  -6.387  0.00  0.00    +0.133 C 
BRANCH  31  32
ATOM     32  C   UNL     1      -2.494  -0.034  -7.034  0.00  0.00    +0.174 C 
BRANCH  32  33
ATOM     33  O   UNL     1      -2.472  -1.042  -8.047  0.00  0.00    -0.393 OA
ATOM     34  H   UNL     1      -1.553  -1.220  -8.625  0.00  0.00    +0.209 HD
ENDBRANCH  32  33
ENDBRANCH  31  32
ENDBRANCH  15  31
TORSDOF 6
