REMARK  Name = ZINC13499196
REMARK  13 active torsions:
REMARK  status: ('A' for Active; 'I' for Inactive)
REMARK    1  A    between atoms: C_1  and  C_2
REMARK    2  A    between atoms: C_5  and  C_34
REMARK    3  A    between atoms: C_9  and  C_14
REMARK    4  A    between atoms: C_14  and  N_69
REMARK    5  A    between atoms: C_15  and  C_16
REMARK    6  A    between atoms: C_15  and  N_69
REMARK    7  A    between atoms: C_16  and  O_17
REMARK    8  A    between atoms: C_18  and  C_20
REMARK    9  A    between atoms: C_18  and  C_31
REMARK   10  A    between atoms: C_18  and  N_69
REMARK   11  A    between atoms: N_24  and  C_25
REMARK   12  A    between atoms: C_31  and  C_32
REMARK   13  A    between atoms: C_31  and  C_33
REMARK                            x       y       z     vdW  Elec       q    Type
REMARK                         _______ _______ _______ _____ _____    ______ ____
ROOT
ATOM      1  N   UNL     1      -0.733   1.536   1.299  0.00  0.00    +0.391 N 
ATOM      2  H   UNL     1      -1.662   1.196   1.572  0.00  0.00    -0.080 HD
ENDROOT
BRANCH   1   3
ATOM      3  C   UNL     1       0.199   1.349   2.431  0.00  0.00    -0.036 C 
BRANCH   3  12
ATOM      4  C   UNL     1      -2.620  -0.881   6.199  0.00  0.00    +0.044 C 
ATOM      5  C   UNL     1      -2.500   0.582   6.536  0.00  0.00    -0.041 A 
ATOM      6  C   UNL     1      -3.086   1.076   7.668  0.00  0.00    +0.004 A 
ATOM      7  C   UNL     1      -2.980   2.422   7.988  0.00  0.00    +0.005 A 
ATOM      8  C   UNL     1      -2.285   3.288   7.170  0.00  0.00    -0.026 A 
ATOM      9  C   UNL     1      -1.680   2.808   6.013  0.00  0.00    +0.052 A 
ATOM     10  C   UNL     1      -1.788   1.441   5.692  0.00  0.00    +0.002 A 
ATOM     11  C   UNL     1      -1.152   0.947   4.470  0.00  0.00    +0.017 A 
ATOM     12  C   UNL     1      -0.471   1.826   3.693  0.00  0.00    +0.001 A 
ATOM     13  C   UNL     1      -0.392   3.186   4.061  0.00  0.00    +0.251 A 
ATOM     14  O   UNL     1       0.221   3.960   3.346  0.00  0.00    -0.268 OA
ATOM     15  N   UNL     1      -0.977   3.650   5.179  0.00  0.00    -0.322 N 
ATOM     16  H   UNL     1      -0.904   4.592   5.401  0.00  0.00    +0.169 HD
ATOM     17  C   UNL     1      -2.179   4.747   7.530  0.00  0.00    +0.046 C 
ENDBRANCH   3  12
ENDBRANCH   1   3
BRANCH   1  18
ATOM     18  C   UNL     1      -0.828   2.970   0.955  0.00  0.00    -0.049 C 
BRANCH  18  19
ATOM     19  C   UNL     1      -2.034   3.176   0.035  0.00  0.00    +0.137 C 
BRANCH  19  20
ATOM     20  O   UNL     1      -3.229   2.810   0.728  0.00  0.00    -0.397 OA
ATOM     21  H   UNL     1      -4.026   2.843   0.181  0.00  0.00    +0.209 HD
ENDBRANCH  19  20
ENDBRANCH  18  19
ENDBRANCH   1  18
BRANCH   1  22
ATOM     22  C   UNL     1      -0.266   0.765   0.127  0.00  0.00    +0.006 C 
BRANCH  22  23
ATOM     23  C   UNL     1       1.183   1.065  -0.159  0.00  0.00    +0.139 A 
ATOM     24  N   UNL     1       2.176   1.016   0.696  0.00  0.00    -0.115 NA
ATOM     25  N   UNL     1       3.256   1.338   0.071  0.00  0.00    -0.023 NA
ATOM     26  N   UNL     1       2.976   1.598  -1.159  0.00  0.00    -0.044 NA
ATOM     27  N   UNL     1       1.708   1.442  -1.339  0.00  0.00    -0.228 N 
BRANCH  27  28
ATOM     28  C   UNL     1       0.978   1.637  -2.594  0.00  0.00    +0.111 C 
ATOM     29  C   UNL     1       1.529   0.686  -3.658  0.00  0.00    +0.027 C 
ATOM     30  C   UNL     1       0.766   0.890  -4.969  0.00  0.00    +0.002 C 
ATOM     31  C   UNL     1       0.936   2.336  -5.439  0.00  0.00    +0.000 C 
ATOM     32  C   UNL     1       0.385   3.286  -4.374  0.00  0.00    +0.002 C 
ATOM     33  C   UNL     1       1.148   3.083  -3.064  0.00  0.00    +0.027 C 
ENDBRANCH  27  28
ENDBRANCH  22  23
BRANCH  22  34
ATOM     34  C   UNL     1      -0.429  -0.727   0.422  0.00  0.00    -0.024 C 
ATOM     35  C   UNL     1      -1.878  -1.013   0.822  0.00  0.00    +0.006 C 
ATOM     36  C   UNL     1      -0.076  -1.535  -0.829  0.00  0.00    +0.006 C 
ENDBRANCH  22  34
ENDBRANCH   1  22
TORSDOF 9
