REMARK  Name = ZINC60089813
REMARK  13 active torsions:
REMARK  status: ('A' for Active; 'I' for Inactive)
REMARK    1  A    between atoms: C_1  and  C_2
REMARK    2  A    between atoms: C_2  and  C_3
REMARK    3  A    between atoms: C_4  and  C_27
REMARK    4  A    between atoms: C_5  and  C_26
REMARK    5  A    between atoms: C_8  and  C_9
REMARK    6  A    between atoms: C_9  and  C_11
REMARK    7  A    between atoms: C_11  and  N_12
REMARK    8  A    between atoms: N_12  and  C_13
REMARK    9  A    between atoms: N_12  and  C_14
REMARK   10  A    between atoms: C_14  and  C_15
REMARK   11  A    between atoms: N_17  and  C_18
REMARK   12  A    between atoms: C_23  and  C_24
REMARK   13  A    between atoms: C_27  and  C_29
REMARK                            x       y       z     vdW  Elec       q    Type
REMARK                         _______ _______ _______ _____ _____    ______ ____
ROOT
ATOM      1  N   UNL     1      -2.118  -0.719  -4.896  0.00  0.00    +0.388 N 
ATOM      2  C   UNL     1      -1.849   0.716  -5.060  0.00  0.00    -0.095 C 
ATOM      3  H   UNL     1      -1.250  -1.231  -4.946  0.00  0.00    -0.081 HD
ENDROOT
BRANCH   1   4
ATOM      4  C   UNL     1      -2.751  -0.953  -3.592  0.00  0.00    +0.004 C 
BRANCH   4   5
ATOM      5  C   UNL     1      -1.782  -0.601  -2.492  0.00  0.00    +0.163 C 
ATOM      6  O   UNL     1      -0.672  -0.194  -2.769  0.00  0.00    -0.293 OA
BRANCH   5  12
ATOM      7  C   UNL     1      -1.384  -0.459  -0.041  0.00  0.00    -0.009 A 
ATOM      8  C   UNL     1      -2.165  -0.740   1.103  0.00  0.00    +0.041 A 
ATOM      9  C   UNL     1      -3.398  -1.192   0.654  0.00  0.00    +0.024 A 
ATOM     10  N   UNL     1      -3.391  -1.195  -0.685  0.00  0.00    -0.355 N 
ATOM     11  H   UNL     1      -4.131  -1.468  -1.250  0.00  0.00    +0.166 HD
ATOM     12  C   UNL     1      -2.167  -0.744  -1.137  0.00  0.00    +0.084 A 
ATOM     13  C   UNL     1      -4.552  -1.609   1.528  0.00  0.00    +0.064 C 
BRANCH   8  14
ATOM     14  C   UNL     1      -1.751  -0.583   2.502  0.00  0.00    +0.162 C 
ATOM     15  O   UNL     1      -1.857   0.494   3.048  0.00  0.00    -0.292 OA
ATOM     16  C   UNL     1      -1.194  -1.761   3.259  0.00  0.00    +0.091 C 
ENDBRANCH   8  14
BRANCH   7  18
ATOM     17  C   UNL     1       0.016   1.587  -0.061  0.00  0.00    +0.009 C 
ATOM     18  C   UNL     1       0.032   0.057  -0.057  0.00  0.00    +0.035 C 
ENDBRANCH   7  18
ENDBRANCH   5  12
ENDBRANCH   4   5
ENDBRANCH   1   4
BRANCH   1  19
ATOM     19  C   UNL     1      -3.017  -1.174  -5.966  0.00  0.00    +0.019 C 
BRANCH  19  20
ATOM     20  C   UNL     1      -2.319  -1.048  -7.295  0.00  0.00    +0.201 C 
ATOM     21  O   UNL     1      -1.185  -0.621  -7.347  0.00  0.00    -0.278 OA
ATOM     22  N   UNL     1      -2.955  -1.409  -8.427  0.00  0.00    -0.287 N 
ATOM     23  H   UNL     1      -3.884  -1.689  -8.393  0.00  0.00    +0.155 HD
BRANCH  22  24
ATOM     24  C   UNL     1      -2.277  -1.382  -9.651  0.00  0.00    +0.036 A 
ATOM     25  C   UNL     1      -1.323  -0.403  -9.895  0.00  0.00    +0.024 A 
ATOM     26  C   UNL     1      -0.654  -0.378 -11.104  0.00  0.00    +0.017 A 
ATOM     27  C   UNL     1      -0.935  -1.327 -12.070  0.00  0.00    +0.018 A 
ATOM     28  C   UNL     1      -1.885  -2.304 -11.830  0.00  0.00    +0.020 A 
ATOM     29  C   UNL     1      -2.552  -2.337 -10.621  0.00  0.00    -0.028 A 
ATOM     30  C   UNL     1      -3.583  -3.404 -10.357  0.00  0.00    +0.046 C 
ATOM     31 BR   UNL     1      -0.019  -1.289 -13.724  0.00  0.00    -0.050 Br
ENDBRANCH  22  24
ENDBRANCH  19  20
ENDBRANCH   1  19
TORSDOF 8
