REMARK  Name = ZINC26257861
REMARK  2 active torsions:
REMARK  status: ('A' for Active; 'I' for Inactive)
REMARK    1  A    between atoms: C_3  and  C_7
REMARK    2  A    between atoms: C_9  and  C_22
REMARK                            x       y       z     vdW  Elec       q    Type
REMARK                         _______ _______ _______ _____ _____    ______ ____
ROOT
ATOM      1  C   UNL     1       3.678   2.027  -0.023  0.00  0.00    +0.023 C 
ATOM      2  C   UNL     1       4.809   1.317   0.064  0.00  0.00    +0.027 C 
ATOM      3  C   UNL     1       6.243   1.796   0.182  0.00  0.00    +0.189 C 
ATOM      4  C   UNL     1       7.186   0.780  -0.396  0.00  0.00    +0.031 A 
ATOM      5  C   UNL     1       8.433   1.116  -0.961  0.00  0.00    +0.074 A 
ATOM      6  C   UNL     1       9.239   0.066  -1.379  0.00  0.00    +0.031 A 
ATOM      7  C   UNL     1       8.816  -1.249  -1.290  0.00  0.00    +0.041 A 
ATOM      8  C   UNL     1       7.548  -1.583  -0.813  0.00  0.00    +0.138 A 
ATOM      9  C   UNL     1       6.742  -0.535  -0.407  0.00  0.00    +0.056 A 
ATOM     10  S   UNL     1       5.044  -0.461   0.079  0.00  0.00    -0.088 S 
ATOM     11  F   UNL     1       7.128  -2.866  -0.751  0.00  0.00    -0.204 F 
ATOM     12  N   UNL     1       8.708   2.443  -1.103  0.00  0.00    -0.225 NA
ATOM     13  C   UNL     1       7.777   3.351  -0.909  0.00  0.00    +0.166 C 
ATOM     14  N   UNL     1       6.473   3.032  -0.584  0.00  0.00    -0.302 N 
ATOM     15  S   UNL     1       8.213   5.051  -1.069  0.00  0.00    -0.014 SA
ATOM     16  H   UNL     1       5.735   3.602  -0.851  0.00  0.00    +0.149 HD
ENDROOT
BRANCH   1  19
ATOM     17  C   UNL     1       1.047  -0.600   0.473  0.00  0.00    +0.020 A 
ATOM     18  C   UNL     1       2.296  -0.009   0.407  0.00  0.00    +0.011 A 
ATOM     19  C   UNL     1       2.372   1.346   0.062  0.00  0.00    -0.006 A 
ATOM     20  C   UNL     1       1.189   2.042  -0.200  0.00  0.00    +0.118 A 
ATOM     21  N   UNL     1       0.024   1.434  -0.124  0.00  0.00    -0.263 NA
ATOM     22  C   UNL     1      -0.077   0.159   0.199  0.00  0.00    +0.111 A 
ENDBRANCH   1  19
BRANCH   3  23
ATOM     23  C   UNL     1       6.588   2.031   1.654  0.00  0.00    +0.420 C 
ATOM     24  F   UNL     1       6.407   0.843   2.371  0.00  0.00    -0.168 F 
ATOM     25  F   UNL     1       7.922   2.441   1.761  0.00  0.00    -0.168 F 
ATOM     26  F   UNL     1       5.752   3.023   2.177  0.00  0.00    -0.168 F 
ENDBRANCH   3  23
TORSDOF 2
