REMARK  Name = ZINC01700780
REMARK  4 active torsions:
REMARK  status: ('A' for Active; 'I' for Inactive)
REMARK    1  A    between atoms: C_7  and  C_11
REMARK    2  A    between atoms: N_12  and  N_13
REMARK    3  A    between atoms: N_16  and  N_19
REMARK    4  A    between atoms: C_20  and  C_21
REMARK                            x       y       z     vdW  Elec       q    Type
REMARK                         _______ _______ _______ _____ _____    ______ ____
ROOT
ATOM      1  N   UNL     1       1.957   6.556  -0.082  0.00  0.00    -0.252 N 
ATOM      2  C   UNL     1       3.412   6.379  -0.190  0.00  0.00    +0.146 C 
ATOM      3  C   UNL     1       3.896   7.100  -1.459  0.00  0.00    +0.146 C 
ATOM      4  N   UNL     1       3.347   8.463  -1.461  0.00  0.00    -0.252 N 
ATOM      5  C   UNL     1       1.892   8.641  -1.347  0.00  0.00    +0.146 C 
ATOM      6  C   UNL     1       1.407   7.919  -0.084  0.00  0.00    +0.146 C 
ENDROOT
BRANCH   1   8
ATOM      7  C   UNL     1      -0.178   5.610   0.028  0.00  0.00    +0.140 C 
ATOM      8  N   UNL     1       1.109   5.446   0.027  0.00  0.00    -0.192 NA
BRANCH   7  15
ATOM      9  C   UNL     1       0.612   0.998   0.028  0.00  0.00    +0.001 A 
ATOM     10  C   UNL     1      -0.561   0.258   0.027  0.00  0.00    +0.002 A 
ATOM     11  C   UNL     1      -1.788   0.886   0.027  0.00  0.00    +0.026 A 
ATOM     12  C   UNL     1      -1.854   2.276   0.033  0.00  0.00    +0.047 A 
ATOM     13  C   UNL     1      -0.664   3.022   0.027  0.00  0.00    +0.008 A 
ATOM     14  C   UNL     1       0.568   2.370   0.027  0.00  0.00    +0.010 A 
ATOM     15  C   UNL     1      -1.071   4.438   0.028  0.00  0.00    +0.020 A 
ATOM     16  C   UNL     1      -2.430   4.451   0.028  0.00  0.00    +0.093 A 
ATOM     17  N   UNL     1      -2.903   3.170   0.028  0.00  0.00    -0.360 N 
ATOM     18  H   UNL     1      -3.841   2.925   0.028  0.00  0.00    +0.165 HD
ENDBRANCH   7  15
ENDBRANCH   1   8
BRANCH   4  19
ATOM     19  N   UNL     1       4.194   9.573  -1.570  0.00  0.00    -0.192 NA
ATOM     20  C   UNL     1       5.464   9.403  -1.778  0.00  0.00    +0.140 C 
BRANCH  20  21
ATOM     21  C   UNL     1       6.338  10.568  -2.000  0.00  0.00    +0.020 A 
ATOM     22  C   UNL     1       7.678  10.547  -2.224  0.00  0.00    +0.093 A 
ATOM     23  N   UNL     1       8.137  11.823  -2.387  0.00  0.00    -0.360 N 
ATOM     24  H   UNL     1       9.061  12.062  -2.560  0.00  0.00    +0.165 HD
ATOM     25  C   UNL     1       7.099  12.722  -2.265  0.00  0.00    +0.047 A 
ATOM     26  C   UNL     1       5.929  11.984  -2.018  0.00  0.00    +0.008 A 
ATOM     27  C   UNL     1       4.712  12.641  -1.850  0.00  0.00    +0.010 A 
ATOM     28  C   UNL     1       4.662  14.010  -1.926  0.00  0.00    +0.001 A 
ATOM     29  C   UNL     1       5.815  14.743  -2.169  0.00  0.00    +0.002 A 
ATOM     30  C   UNL     1       7.027  14.109  -2.338  0.00  0.00    +0.026 A 
ENDBRANCH  20  21
ENDBRANCH   4  19
TORSDOF 4
