REMARK  Name = ZINC06216831
REMARK  7 active torsions:
REMARK  status: ('A' for Active; 'I' for Inactive)
REMARK    1  A    between atoms: C_1  and  C_2
REMARK    2  A    between atoms: C_2  and  C_4
REMARK    3  A    between atoms: C_2  and  S_11
REMARK    4  A    between atoms: N_9  and  C_10
REMARK    5  A    between atoms: S_11  and  C_12
REMARK    6  A    between atoms: C_15  and  C_18
REMARK    7  A    between atoms: N_16  and  N_17
REMARK                            x       y       z     vdW  Elec       q    Type
REMARK                         _______ _______ _______ _____ _____    ______ ____
ROOT
ATOM      1  C   UNL     1      -5.136   0.728  -0.631  0.00  0.00    +0.209 A 
ATOM      2  N   UNL     1      -5.042  -0.557  -0.372  0.00  0.00    -0.121 NA
ATOM      3  N   UNL     1      -6.174  -1.132  -0.571  0.00  0.00    -0.127 NA
ATOM      4  C   UNL     1      -7.060  -0.249  -0.970  0.00  0.00    +0.183 A 
ATOM      5  N   UNL     1      -6.424   0.970  -1.016  0.00  0.00    -0.224 N 
ENDROOT
BRANCH   4   6
ATOM      6  C   UNL     1      -8.476  -0.515  -1.303  0.00  0.00    +0.040 A 
ATOM      7  C   UNL     1      -9.029   0.002  -2.475  0.00  0.00    +0.033 A 
ATOM      8  C   UNL     1     -10.352  -0.250  -2.780  0.00  0.00    +0.042 A 
ATOM      9  C   UNL     1     -11.130  -1.013  -1.925  0.00  0.00    +0.021 A 
ATOM     10  C   UNL     1     -10.587  -1.529  -0.762  0.00  0.00    +0.022 A 
ATOM     11  C   UNL     1      -9.264  -1.289  -0.448  0.00  0.00    +0.052 A 
ATOM     12 CL   UNL     1      -8.583  -1.943   1.008  0.00  0.00    -0.083 Cl
ATOM     13 CL   UNL     1     -11.043   0.393  -4.237  0.00  0.00    -0.084 Cl
ENDBRANCH   4   6
BRANCH   5  14
ATOM     14  N   UNL     1      -6.967   2.171  -1.374  0.00  0.00    -0.295 N 
ATOM     15  H   UNL     1      -6.949   2.292  -2.375  0.00  0.00    +0.163 HD
ATOM     16  H   UNL     1      -7.906   2.265  -1.015  0.00  0.00    +0.163 HD
ENDBRANCH   5  14
BRANCH   1  17
ATOM     17  S   UNL     1      -3.844   1.919  -0.499  0.00  0.00    -0.072 S 
BRANCH  17  19
ATOM     18  C   UNL     1      -2.818   0.298   1.446  0.00  0.00    +0.029 C 
ATOM     19  C   UNL     1      -2.491   0.854   0.059  0.00  0.00    +0.137 C 
BRANCH  19  20
ATOM     20  C   UNL     1      -1.216   1.655   0.127  0.00  0.00    +0.234 C 
ATOM     21  O   UNL     1      -1.263   2.857   0.279  0.00  0.00    -0.274 OA
ATOM     22  N   UNL     1      -0.025   1.035   0.018  0.00  0.00    -0.239 N 
ATOM     23  C   UNL     1       1.115   1.752   0.072  0.00  0.00    +0.306 C 
ATOM     24  O   UNL     1       1.069   2.957   0.225  0.00  0.00    -0.252 OA
ATOM     25  N   UNL     1       2.307   1.133  -0.042  0.00  0.00    -0.302 N 
ATOM     26  C   UNL     1       3.546   1.913   0.018  0.00  0.00    +0.129 C 
ATOM     27  H   UNL     1       0.013   0.073  -0.104  0.00  0.00    +0.159 HD
ATOM     28  H   UNL     1       2.344   0.172  -0.164  0.00  0.00    +0.150 HD
ENDBRANCH  19  20
ENDBRANCH  17  19
ENDBRANCH   1  17
TORSDOF 5
