REMARK  Name = ZINC33028955
REMARK  10 active torsions:
REMARK  status: ('A' for Active; 'I' for Inactive)
REMARK    1  A    between atoms: C_1  and  N_2
REMARK    2  A    between atoms: N_2  and  C_3
REMARK    3  A    between atoms: N_2  and  C_4
REMARK    4  A    between atoms: C_4  and  C_6
REMARK    5  A    between atoms: C_4  and  C_30
REMARK    6  A    between atoms: C_6  and  N_7
REMARK    7  A    between atoms: C_8  and  C_10
REMARK    8  A    between atoms: C_13  and  N_16
REMARK    9  A    between atoms: N_16  and  S_17
REMARK   10  A    between atoms: S_17  and  C_20
REMARK                            x       y       z     vdW  Elec       q    Type
REMARK                         _______ _______ _______ _____ _____    ______ ____
ROOT
ATOM      1  C   UNL     1       4.229   2.085  -3.199  0.00  0.00    +0.037 A 
ATOM      2  C   UNL     1       4.923   0.941  -2.792  0.00  0.00    +0.015 A 
ATOM      3  C   UNL     1       4.307   0.017  -1.980  0.00  0.00    +0.025 A 
ATOM      4  C   UNL     1       2.994   0.221  -1.562  0.00  0.00    +0.048 A 
ATOM      5  C   UNL     1       2.299   1.357  -1.970  0.00  0.00    +0.025 A 
ATOM      6  C   UNL     1       2.912   2.287  -2.777  0.00  0.00    +0.015 A 
ENDROOT
BRANCH   1   8
ATOM      7  N   UNL     1       4.218   4.181  -4.460  0.00  0.00    -0.313 N 
ATOM      8  C   UNL     1       4.887   3.078  -4.069  0.00  0.00    +0.244 C 
ATOM      9  O   UNL     1       6.034   2.902  -4.434  0.00  0.00    -0.270 OA
ATOM     10  H   UNL     1       3.181   4.340  -4.130  0.00  0.00    +0.149 HD
BRANCH   7  11
ATOM     11  C   UNL     1       4.871   5.166  -5.325  0.00  0.00    +0.094 C 
BRANCH  11  12
ATOM     12  C   UNL     1       3.899   6.312  -5.617  0.00  0.00    -0.021 C 
BRANCH  12  13
ATOM     13  C   UNL     1       4.527   7.263  -6.603  0.00  0.00    -0.059 A 
ATOM     14  C   UNL     1       4.456   8.627  -6.389  0.00  0.00    +0.002 A 
ATOM     15  C   UNL     1       5.035   9.499  -7.292  0.00  0.00    +0.000 A 
ATOM     16  C   UNL     1       5.676   9.008  -8.413  0.00  0.00    +0.000 A 
ATOM     17  C   UNL     1       5.743   7.644  -8.630  0.00  0.00    +0.000 A 
ATOM     18  C   UNL     1       5.168   6.772  -7.725  0.00  0.00    +0.002 A 
ENDBRANCH  12  13
BRANCH  12  20
ATOM     19  C   UNL     1       1.578   6.763  -6.136  0.00  0.00    -0.096 C 
ATOM     20  N   UNL     1       2.658   5.768  -6.183  0.00  0.00    +0.382 N 
ATOM     21  C   UNL     1       2.870   5.286  -7.554  0.00  0.00    -0.096 C 
ATOM     22  H   UNL     1       2.353   4.909  -5.566  0.00  0.00    -0.082 HD
ENDBRANCH  12  20
ENDBRANCH  11  12
ENDBRANCH   7  11
ENDBRANCH   1   8
BRANCH   4  23
ATOM     23  N   UNL     1       2.374  -0.714  -0.741  0.00  0.00    -0.216 N 
ATOM     24  H   UNL     1       1.609  -1.388  -1.155  0.00  0.00    +0.174 HD
BRANCH  23  25
ATOM     25  S   UNL     1       2.788  -0.814   0.859  0.00  0.00    +0.072 S 
ATOM     26  O   UNL     1       4.203  -0.929   0.907  0.00  0.00    -0.150 OA
ATOM     27  O   UNL     1       1.925  -1.781   1.442  0.00  0.00    -0.150 OA
BRANCH  25  28
ATOM     28  C   UNL     1       2.383   0.733   1.599  0.00  0.00    +0.112 A 
ATOM     29  C   UNL     1       1.093   0.974   2.034  0.00  0.00    +0.032 A 
ATOM     30  C   UNL     1       0.772   2.186   2.614  0.00  0.00    +0.051 A 
ATOM     31  C   UNL     1       1.743   3.165   2.760  0.00  0.00    +0.162 A 
ATOM     32  C   UNL     1       3.040   2.922   2.325  0.00  0.00    +0.164 A 
ATOM     33  C   UNL     1       3.356   1.704   1.744  0.00  0.00    +0.078 A 
ATOM     34  O   UNL     1       4.011   3.866   2.467  0.00  0.00    -0.485 OA
ATOM     35  C   UNL     1       3.573   5.207   2.712  0.00  0.00    +0.270 C 
ATOM     36  C   UNL     1       2.490   5.169   3.799  0.00  0.00    +0.270 C 
ATOM     37  O   UNL     1       1.409   4.358   3.325  0.00  0.00    -0.485 OA
ENDBRANCH  25  28
ENDBRANCH  23  25
ENDBRANCH   4  23
TORSDOF 8
