REMARK  Name = ZINC35674900
REMARK  13 active torsions:
REMARK  status: ('A' for Active; 'I' for Inactive)
REMARK    1  A    between atoms: C_1  and  C_2
REMARK    2  A    between atoms: C_2  and  C_3
REMARK    3  A    between atoms: C_3  and  C_5
REMARK    4  A    between atoms: C_3  and  N_28
REMARK    5  A    between atoms: C_9  and  O_26
REMARK    6  A    between atoms: C_10  and  O_24
REMARK    7  A    between atoms: N_15  and  C_16
REMARK    8  A    between atoms: C_16  and  C_17
REMARK    9  A    between atoms: C_22  and  C_23
REMARK   10  A    between atoms: O_24  and  C_25
REMARK   11  A    between atoms: O_26  and  C_27
REMARK   12  A    between atoms: N_28  and  S_29
REMARK   13  A    between atoms: S_29  and  C_32
REMARK                            x       y       z     vdW  Elec       q    Type
REMARK                         _______ _______ _______ _____ _____    ______ ____
ROOT
ATOM      1  C   UNL     1       0.593  -1.897  -0.559  0.00  0.00    -0.018 C 
ATOM      2  C   UNL     1       1.000  -1.990   0.888  0.00  0.00    -0.053 A 
ATOM      3  C   UNL     1       0.721  -0.918   1.724  0.00  0.00    +0.051 A 
ATOM      4  C   UNL     1       1.074  -0.962   3.060  0.00  0.00    +0.162 A 
ATOM      5  C   UNL     1       1.713  -2.089   3.569  0.00  0.00    +0.162 A 
ATOM      6  C   UNL     1       1.991  -3.155   2.732  0.00  0.00    +0.053 A 
ATOM      7  C   UNL     1       1.635  -3.106   1.393  0.00  0.00    -0.044 A 
ATOM      8  C   UNL     1       1.963  -4.287   0.515  0.00  0.00    +0.017 C 
ATOM      9  C   UNL     1       1.154  -4.210  -0.780  0.00  0.00    -0.073 C 
ATOM     10  N   UNL     1       1.332  -2.873  -1.365  0.00  0.00    +0.388 N 
ATOM     11  H   UNL     1       2.312  -2.634  -1.370  0.00  0.00    -0.080 HD
ENDROOT
BRANCH   5  12
ATOM     12  O   UNL     1       2.063  -2.142   4.882  0.00  0.00    -0.491 OA
ATOM     13  C   UNL     1       2.716  -3.331   5.332  0.00  0.00    +0.277 C 
ENDBRANCH   5  12
BRANCH   4  14
ATOM     14  O   UNL     1       0.798   0.092   3.874  0.00  0.00    -0.491 OA
ATOM     15  C   UNL     1       0.140   1.214   3.283  0.00  0.00    +0.277 C 
ENDBRANCH   4  14
BRANCH   1  16
ATOM     16  C   UNL     1       0.888  -0.488  -1.076  0.00  0.00    +0.067 C 
BRANCH  16  18
ATOM     17  C   UNL     1       2.682   1.215  -1.429  0.00  0.00    +0.005 C 
ATOM     18  C   UNL     1       2.350  -0.136  -0.793  0.00  0.00    +0.016 C 
ENDBRANCH  16  18
BRANCH  16  19
ATOM     19  N   UNL     1       0.014   0.473  -0.400  0.00  0.00    -0.188 NA
ATOM     20  H   UNL     1       0.363   1.024   0.319  0.00  0.00    +0.148 HD
BRANCH  19  21
ATOM     21  S   UNL     1      -1.569   0.621  -0.862  0.00  0.00    +0.059 S 
ATOM     22  O   UNL     1      -2.156   1.585   0.002  0.00  0.00    -0.153 OA
ATOM     23  O   UNL     1      -1.568   0.764  -2.275  0.00  0.00    -0.153 OA
BRANCH  21  24
ATOM     24  C   UNL     1      -2.359  -0.915  -0.512  0.00  0.00    +0.105 A 
ATOM     25  C   UNL     1      -2.512  -1.857  -1.512  0.00  0.00    +0.028 A 
ATOM     26  C   UNL     1      -3.132  -3.062  -1.238  0.00  0.00    +0.002 A 
ATOM     27  C   UNL     1      -3.598  -3.325   0.037  0.00  0.00    +0.000 A 
ATOM     28  C   UNL     1      -3.444  -2.383   1.037  0.00  0.00    +0.002 A 
ATOM     29  C   UNL     1      -2.820  -1.180   0.764  0.00  0.00    +0.028 A 
ENDBRANCH  21  24
ENDBRANCH  19  21
ENDBRANCH  16  19
ENDBRANCH   1  16
BRANCH  10  30
ATOM     30  C   UNL     1       0.816  -2.866  -2.740  0.00  0.00    -0.042 C 
BRANCH  30  31
ATOM     31  C   UNL     1       1.663  -3.768  -3.600  0.00  0.00    -0.061 A 
ATOM     32  C   UNL     1       2.844  -3.296  -4.142  0.00  0.00    +0.002 A 
ATOM     33  C   UNL     1       3.622  -4.122  -4.931  0.00  0.00    +0.000 A 
ATOM     34  C   UNL     1       3.219  -5.422  -5.177  0.00  0.00    +0.000 A 
ATOM     35  C   UNL     1       2.039  -5.894  -4.634  0.00  0.00    +0.003 A 
ATOM     36  C   UNL     1       1.264  -5.069  -3.842  0.00  0.00    -0.049 A 
ATOM     37  C   UNL     1      -0.020  -5.585  -3.245  0.00  0.00    +0.044 C 
ENDBRANCH  30  31
ENDBRANCH  10  30
TORSDOF 9
