REMARK  Name = ZINC58151409
REMARK  8 active torsions:
REMARK  status: ('A' for Active; 'I' for Inactive)
REMARK    1  A    between atoms: C_1  and  C_2
REMARK    2  A    between atoms: C_2  and  O_3
REMARK    3  A    between atoms: O_3  and  C_4
REMARK    4  A    between atoms: C_13  and  C_15
REMARK    5  A    between atoms: C_15  and  N_16
REMARK    6  A    between atoms: C_21  and  C_28
REMARK    7  A    between atoms: C_24  and  C_26
REMARK    8  A    between atoms: C_24  and  C_27
REMARK                            x       y       z     vdW  Elec       q    Type
REMARK                         _______ _______ _______ _____ _____    ______ ____
ROOT
ATOM      1  N   UNL     1       5.447  -3.199  -6.560  0.00  0.00    -0.215 N 
ATOM      2  C   UNL     1       6.788  -3.184  -6.729  0.00  0.00    +0.247 C 
ATOM      3  O   UNL     1       7.599  -2.670  -5.990  0.00  0.00    -0.273 OA
ATOM      4  C   UNL     1       7.039  -3.940  -8.011  0.00  0.00    +0.113 C 
ATOM      5  C   UNL     1       8.105  -5.007  -7.814  0.00  0.00    +0.038 C 
ATOM      6  C   UNL     1       9.482  -4.354  -7.687  0.00  0.00    -0.011 C 
ATOM      7  C   UNL     1       9.793  -3.615  -8.987  0.00  0.00    +0.009 C 
ATOM      8  C   UNL     1       8.775  -2.510  -9.245  0.00  0.00    -0.032 C 
ATOM      9  C   UNL     1       7.341  -3.008  -9.168  0.00  0.00    +0.041 C 
ATOM     10  C   UNL     1       9.017  -1.972 -10.672  0.00  0.00    +0.011 C 
ATOM     11  C   UNL     1       8.999  -1.350  -8.272  0.00  0.00    +0.011 C 
ATOM     12  C   UNL     1      10.537  -5.440  -7.455  0.00  0.00    +0.007 C 
ATOM     13  N   UNL     1       5.740  -4.603  -8.265  0.00  0.00    -0.285 N 
ATOM     14  C   UNL     1       4.861  -4.051  -7.409  0.00  0.00    +0.310 C 
ATOM     15  O   UNL     1       3.671  -4.297  -7.406  0.00  0.00    -0.252 OA
ATOM     16  H   UNL     1       5.572  -5.295  -8.920  0.00  0.00    +0.151 HD
ENDROOT
BRANCH   1  17
ATOM     17  C   UNL     1       4.733  -2.406  -5.558  0.00  0.00    +0.213 C 
BRANCH  17  27
ATOM     18  C   UNL     1       0.776  -1.798  -1.335  0.00  0.00    +0.403 C 
ATOM     19  O   UNL     1       0.312  -2.549  -0.500  0.00  0.00    -0.226 OA
ATOM     20  N   UNL     1       1.395  -2.298  -2.422  0.00  0.00    -0.266 N 
ATOM     21  C   UNL     1       1.518  -3.699  -2.626  0.00  0.00    +0.112 C 
ATOM     22  C   UNL     1       2.731  -4.361  -1.893  0.00  0.00    +0.038 C 
ATOM     23  C   UNL     1       3.925  -3.354  -1.971  0.00  0.00    +0.109 C 
ATOM     24  N   UNL     1       4.026  -2.649  -3.200  0.00  0.00    -0.299 N 
ATOM     25  C   UNL     1       3.418  -1.294  -3.253  0.00  0.00    +0.127 C 
ATOM     26  C   UNL     1       1.974  -1.410  -3.463  0.00  0.00    +0.130 C 
ATOM     27  C   UNL     1       4.645  -3.184  -4.271  0.00  0.00    +0.234 C 
ATOM     28  O   UNL     1       5.133  -4.293  -4.198  0.00  0.00    -0.274 OA
BRANCH  18  29
ATOM     29  O   UNL     1       0.671  -0.465  -1.174  0.00  0.00    -0.451 OA
BRANCH  29  31
ATOM     30  C   UNL     1      -0.019   1.526   0.010  0.00  0.00    +0.048 C 
ATOM     31  C   UNL     1       0.002  -0.004   0.002  0.00  0.00    +0.230 C 
ENDBRANCH  29  31
ENDBRANCH  18  29
ENDBRANCH  17  27
ENDBRANCH   1  17
TORSDOF 4
