REMARK  Name = ZINC09886413
REMARK  13 active torsions:
REMARK  status: ('A' for Active; 'I' for Inactive)
REMARK    1  A    between atoms: C_1  and  C_2
REMARK    2  A    between atoms: C_5  and  C_8
REMARK    3  A    between atoms: N_10  and  C_11
REMARK    4  A    between atoms: C_11  and  C_13
REMARK    5  A    between atoms: C_11  and  C_16
REMARK    6  A    between atoms: C_13  and  C_14
REMARK    7  A    between atoms: C_13  and  C_15
REMARK    8  A    between atoms: N_18  and  N_19
REMARK    9  A    between atoms: C_20  and  C_21
REMARK   10  A    between atoms: C_22  and  C_39
REMARK   11  A    between atoms: N_23  and  C_30
REMARK   12  A    between atoms: C_30  and  C_31
REMARK   13  A    between atoms: C_36  and  C_37
REMARK                            x       y       z     vdW  Elec       q    Type
REMARK                         _______ _______ _______ _____ _____    ______ ____
ROOT
ATOM      1  N   UNL     1       2.370  -0.542  -4.118  0.00  0.00    -0.188 NA
ATOM      2  C   UNL     1       3.504   0.078  -4.249  0.00  0.00    +0.140 C 
ENDROOT
BRANCH   2   3
ATOM      3  C   UNL     1       3.951   1.022  -3.212  0.00  0.00    +0.023 A 
ATOM      4  C   UNL     1       5.125   0.980  -2.526  0.00  0.00    +0.026 A 
ATOM      5  N   UNL     1       5.183   2.021  -1.649  0.00  0.00    -0.339 N 
ATOM      6  C   UNL     1       4.037   2.783  -1.737  0.00  0.00    +0.050 A 
ATOM      7  C   UNL     1       3.217   2.200  -2.718  0.00  0.00    +0.009 A 
ATOM      8  C   UNL     1       1.978   2.762  -3.016  0.00  0.00    +0.010 A 
ATOM      9  C   UNL     1       1.566   3.896  -2.351  0.00  0.00    +0.001 A 
ATOM     10  C   UNL     1       2.377   4.476  -1.386  0.00  0.00    +0.002 A 
ATOM     11  C   UNL     1       3.603   3.928  -1.077  0.00  0.00    +0.026 A 
ATOM     12  C   UNL     1       6.200  -0.061  -2.709  0.00  0.00    +0.064 C 
BRANCH   5  13
ATOM     13  C   UNL     1       6.302   2.293  -0.744  0.00  0.00    +0.158 C 
BRANCH  13  14
ATOM     14  C   UNL     1       7.354   3.091  -1.470  0.00  0.00    -0.010 A 
ATOM     15  C   UNL     1       8.167   2.479  -2.401  0.00  0.00    +0.006 A 
ATOM     16  C   UNL     1       9.133   3.210  -3.068  0.00  0.00    +0.000 A 
ATOM     17  C   UNL     1       9.291   4.560  -2.808  0.00  0.00    +0.001 A 
ATOM     18  C   UNL     1       8.485   5.185  -1.880  0.00  0.00    +0.019 A 
ATOM     19  C   UNL     1       7.504   4.454  -1.206  0.00  0.00    +0.057 A 
BRANCH  19  20
ATOM     20  C   UNL     1       6.659   5.098  -0.246  0.00  0.00    +0.099 C 
ATOM     21  N   UNL     1       5.989   5.609   0.516  0.00  0.00    -0.191 NA
ENDBRANCH  19  20
ENDBRANCH  13  14
ENDBRANCH   5  13
ENDBRANCH   2   3
BRANCH   1  24
ATOM     22  C   UNL     1       0.459  -1.057  -2.795  0.00  0.00    +0.253 C 
ATOM     23  O   UNL     1       0.026  -1.734  -3.704  0.00  0.00    -0.272 OA
ATOM     24  N   UNL     1       1.616  -0.383  -2.948  0.00  0.00    -0.205 N 
ATOM     25  H   UNL     1       1.927   0.212  -2.248  0.00  0.00    +0.177 HD
BRANCH  22  26
ATOM     26  C   UNL     1      -0.297  -0.970  -1.494  0.00  0.00    +0.163 C 
BRANCH  26  29
ATOM     27  C   UNL     1      -2.657  -0.968  -0.885  0.00  0.00    +0.245 C 
ATOM     28  O   UNL     1      -2.390  -0.209   0.027  0.00  0.00    -0.270 OA
ATOM     29  N   UNL     1      -1.680  -1.407  -1.704  0.00  0.00    -0.300 N 
ATOM     30  H   UNL     1      -1.893  -2.012  -2.432  0.00  0.00    +0.150 HD
BRANCH  27  35
ATOM     31  C   UNL     1      -8.088  -2.681  -1.708  0.00  0.00    +0.044 C 
ATOM     32  C   UNL     1      -6.666  -2.232  -1.493  0.00  0.00    -0.050 A 
ATOM     33  C   UNL     1      -6.366  -1.370  -0.453  0.00  0.00    +0.004 A 
ATOM     34  C   UNL     1      -5.066  -0.956  -0.250  0.00  0.00    +0.013 A 
ATOM     35  C   UNL     1      -4.052  -1.408  -1.096  0.00  0.00    +0.037 A 
ATOM     36  C   UNL     1      -4.362  -2.274  -2.146  0.00  0.00    +0.013 A 
ATOM     37  C   UNL     1      -5.666  -2.685  -2.335  0.00  0.00    +0.004 A 
ENDBRANCH  27  35
ENDBRANCH  26  29
BRANCH  26  38
ATOM     38  C   UNL     1       0.370  -1.872  -0.455  0.00  0.00    +0.012 C 
ATOM     39  C   UNL     1       0.506  -3.288  -1.019  0.00  0.00    +0.009 C 
ATOM     40  C   UNL     1       1.758  -1.322  -0.118  0.00  0.00    +0.009 C 
ENDBRANCH  26  38
ENDBRANCH  22  26
ENDBRANCH   1  24
TORSDOF 9
