REMARK  Name = ZINC39664380
REMARK  7 active torsions:
REMARK  status: ('A' for Active; 'I' for Inactive)
REMARK    1  A    between atoms: C_1  and  C_2
REMARK    2  A    between atoms: C_7  and  C_10
REMARK    3  A    between atoms: C_14  and  C_23
REMARK    4  A    between atoms: N_25  and  C_26
REMARK    5  A    between atoms: C_26  and  C_27
REMARK    6  A    between atoms: C_27  and  C_29
REMARK    7  A    between atoms: C_27  and  N_35
REMARK                            x       y       z     vdW  Elec       q    Type
REMARK                         _______ _______ _______ _____ _____    ______ ____
ROOT
ATOM      1  C   UNL     1      -5.129  -3.826   0.667  0.00  0.00    +0.219 C 
ATOM      2  O   UNL     1      -5.641  -2.930   1.304  0.00  0.00    -0.275 OA
ATOM      3  N   UNL     1      -5.253  -5.103   1.079  0.00  0.00    -0.300 N 
ATOM      4  C   UNL     1      -4.630  -6.312   0.491  0.00  0.00    +0.121 C 
ATOM      5  C   UNL     1      -4.228  -7.176   1.708  0.00  0.00    +0.100 C 
ATOM      6  C   UNL     1      -5.162  -6.715   2.841  0.00  0.00    -0.004 C 
ATOM      7  C   UNL     1      -6.040  -5.615   2.227  0.00  0.00    +0.115 C 
ATOM      8  C   UNL     1      -4.347  -6.147   3.999  0.00  0.00    -0.010 C 
ATOM      9  C   UNL     1      -5.293  -5.748   5.135  0.00  0.00    -0.082 C 
ATOM     10  N   UNL     1      -6.053  -6.924   5.576  0.00  0.00    +0.379 N 
ATOM     11  C   UNL     1      -6.904  -7.409   4.483  0.00  0.00    -0.082 C 
ATOM     12  C   UNL     1      -6.026  -7.878   3.319  0.00  0.00    -0.010 C 
ATOM     13  H   UNL     1      -5.412  -7.654   5.851  0.00  0.00    -0.086 HD
ATOM     14  H   UNL     1      -6.630  -6.674   6.365  0.00  0.00    -0.086 HD
ENDROOT
BRANCH   1  21
ATOM     15  C   UNL     1      -4.866  -1.365  -5.086  0.00  0.00    +0.109 C 
ATOM     16  C   UNL     1      -3.999  -1.088  -3.885  0.00  0.00    +0.212 C 
ATOM     17  O   UNL     1      -3.455  -0.011  -3.765  0.00  0.00    -0.276 OA
ATOM     18  N   UNL     1      -3.829  -2.037  -2.943  0.00  0.00    -0.302 N 
ATOM     19  C   UNL     1      -4.477  -3.349  -3.076  0.00  0.00    +0.108 C 
ATOM     20  C   UNL     1      -5.277  -3.636  -1.801  0.00  0.00    +0.032 C 
ATOM     21  C   UNL     1      -4.354  -3.511  -0.587  0.00  0.00    +0.078 C 
ATOM     22  C   UNL     1      -3.808  -2.084  -0.503  0.00  0.00    +0.032 C 
ATOM     23  C   UNL     1      -2.987  -1.781  -1.766  0.00  0.00    +0.108 C 
ENDBRANCH   1  21
BRANCH   5  24
ATOM     24  C   UNL     1      -2.789  -6.925   2.077  0.00  0.00    +0.218 C 
ATOM     25  O   UNL     1      -2.299  -5.830   1.899  0.00  0.00    -0.275 OA
ATOM     26  N   UNL     1      -2.046  -7.919   2.604  0.00  0.00    -0.313 N 
ATOM     27  H   UNL     1      -2.438  -8.794   2.747  0.00  0.00    +0.149 HD
BRANCH  26  28
ATOM     28  C   UNL     1      -0.646  -7.675   2.963  0.00  0.00    +0.127 C 
BRANCH  28  29
ATOM     29  C   UNL     1      -0.037  -8.957   3.536  0.00  0.00    +0.104 C 
BRANCH  29  30
ATOM     30  C   UNL     1       1.363  -8.675   4.017  0.00  0.00    -0.029 A 
ATOM     31  C   UNL     1       2.341  -9.645   3.906  0.00  0.00    +0.005 A 
ATOM     32  C   UNL     1       3.625  -9.387   4.348  0.00  0.00    +0.000 A 
ATOM     33  C   UNL     1       3.931  -8.158   4.901  0.00  0.00    +0.000 A 
ATOM     34  C   UNL     1       2.954  -7.187   5.012  0.00  0.00    +0.000 A 
ATOM     35  C   UNL     1       1.671  -7.444   4.566  0.00  0.00    +0.005 A 
ENDBRANCH  29  30
BRANCH  29  36
ATOM     36  N   UNL     1      -0.856  -9.429   4.660  0.00  0.00    -0.290 NA
ATOM     37  C   UNL     1      -0.748  -8.518   5.809  0.00  0.00    +0.113 C 
ATOM     38  C   UNL     1      -1.661  -9.014   6.934  0.00  0.00    +0.175 C 
ATOM     39  O   UNL     1      -1.306 -10.357   7.272  0.00  0.00    -0.377 OA
ATOM     40  C   UNL     1      -1.400 -11.271   6.176  0.00  0.00    +0.175 C 
ATOM     41  C   UNL     1      -0.484 -10.798   5.044  0.00  0.00    +0.113 C 
ENDBRANCH  29  36
ENDBRANCH  28  29
ENDBRANCH  26  28
ENDBRANCH   5  24
TORSDOF 6
