REMARK  Name = ZINC05851072
REMARK  4 active torsions:
REMARK  status: ('A' for Active; 'I' for Inactive)
REMARK    1  A    between atoms: C_3  and  C_20
REMARK    2  A    between atoms: C_5  and  C_11
REMARK    3  A    between atoms: C_16  and  N_17
REMARK    4  A    between atoms: C_20  and  C_22
REMARK                            x       y       z     vdW  Elec       q    Type
REMARK                         _______ _______ _______ _____ _____    ______ ____
ROOT
ATOM      1  C   UNL     1       1.207   3.355  -3.923  0.00  0.00    +0.029 C 
ATOM      2  C   UNL     1       1.598   3.909  -2.792  0.00  0.00    +0.018 C 
ATOM      3  C   UNL     1       0.619   4.188  -1.668  0.00  0.00    +0.129 C 
ATOM      4  C   UNL     1       1.238   3.650  -0.371  0.00  0.00    +0.123 C 
ATOM      5  N   UNL     1       2.611   4.136  -0.248  0.00  0.00    -0.291 N 
ATOM      6  C   UNL     1       3.386   4.379  -1.314  0.00  0.00    +0.304 C 
ATOM      7  O   UNL     1       4.541   4.714  -1.134  0.00  0.00    -0.253 OA
ATOM      8  N   UNL     1       2.934   4.264  -2.576  0.00  0.00    -0.273 N 
ATOM      9  H   UNL     1       3.044   4.316   0.747  0.00  0.00    +0.151 HD
ATOM     10  H   UNL     1       3.600   4.446  -3.433  0.00  0.00    +0.156 HD
ENDROOT
BRANCH   4  11
ATOM     11  C   UNL     1       1.239   2.143  -0.403  0.00  0.00    +0.004 A 
ATOM     12  C   UNL     1       1.148   1.477  -1.611  0.00  0.00    +0.008 A 
ATOM     13  C   UNL     1       1.150   0.095  -1.640  0.00  0.00    +0.000 A 
ATOM     14  C   UNL     1       1.241  -0.621  -0.461  0.00  0.00    +0.002 A 
ATOM     15  C   UNL     1       1.330   0.045   0.747  0.00  0.00    +0.033 A 
ATOM     16  C   UNL     1       1.329   1.427   0.776  0.00  0.00    +0.131 A 
BRANCH  16  17
ATOM     17  N   UNL     1       1.419   2.140   2.070  0.00  0.00    +0.057 N 
ATOM     18  O   UNL     1       1.364   1.516   3.114  0.00  0.00    -0.126 OA
ATOM     19  O   UNL     1       1.548   3.352   2.090  0.00  0.00    -0.126 OA
ENDBRANCH  16  17
ENDBRANCH   4  11
BRANCH   3  20
ATOM     20  C   UNL     1      -0.687   3.487  -1.941  0.00  0.00    +0.174 C 
ATOM     21  O   UNL     1      -0.970   2.475  -1.335  0.00  0.00    -0.291 OA
BRANCH  20  22
ATOM     22  C   UNL     1      -1.617   4.029  -2.943  0.00  0.00    +0.018 A 
ATOM     23  C   UNL     1      -1.296   5.199  -3.640  0.00  0.00    +0.013 A 
ATOM     24  C   UNL     1      -2.170   5.698  -4.581  0.00  0.00    +0.020 A 
ATOM     25  C   UNL     1      -3.370   5.051  -4.829  0.00  0.00    +0.041 A 
ATOM     26  C   UNL     1      -3.697   3.895  -4.139  0.00  0.00    +0.020 A 
ATOM     27  C   UNL     1      -2.830   3.381  -3.199  0.00  0.00    +0.013 A 
ATOM     28 CL   UNL     1      -4.469   5.691  -6.011  0.00  0.00    -0.084 Cl
ENDBRANCH  20  22
ENDBRANCH   3  20
TORSDOF 4
