REMARK  Name = ZINC06321080
REMARK  11 active torsions:
REMARK  status: ('A' for Active; 'I' for Inactive)
REMARK    1  A    between atoms: C_1  and  C_2
REMARK    2  A    between atoms: C_6  and  C_15
REMARK    3  A    between atoms: C_13  and  C_14
REMARK    4  A    between atoms: C_15  and  C_17
REMARK    5  A    between atoms: C_15  and  N_71
REMARK    6  A    between atoms: N_21  and  C_22
REMARK    7  A    between atoms: C_22  and  C_23
REMARK    8  A    between atoms: C_29  and  C_30
REMARK    9  A    between atoms: C_29  and  N_71
REMARK   10  A    between atoms: C_36  and  C_37
REMARK   11  A    between atoms: C_36  and  N_71
REMARK                            x       y       z     vdW  Elec       q    Type
REMARK                         _______ _______ _______ _____ _____    ______ ____
ROOT
ATOM      1  C   UNL     1      -5.780   4.705   4.489  0.00  0.00    +0.040 C 
ENDROOT
BRANCH   1   7
ATOM      2  C   UNL     1       1.570   5.410   3.440  0.00  0.00    +0.044 C 
ATOM      3  C   UNL     1       0.320   5.710   4.226  0.00  0.00    -0.047 A 
ATOM      4  C   UNL     1      -0.878   5.199   3.814  0.00  0.00    +0.013 A 
ATOM      5  C   UNL     1      -2.037   5.473   4.546  0.00  0.00    -0.001 A 
ATOM      6  C   UNL     1      -3.337   4.937   4.136  0.00  0.00    +0.017 A 
ATOM      7  C   UNL     1      -4.428   5.242   4.883  0.00  0.00    +0.011 A 
ATOM      8  C   UNL     1      -4.301   6.058   6.027  0.00  0.00    +0.251 A 
ATOM      9  O   UNL     1      -5.294   6.319   6.683  0.00  0.00    -0.268 OA
ATOM     10  N   UNL     1      -3.112   6.555   6.411  0.00  0.00    -0.322 N 
ATOM     11  H   UNL     1      -3.061   7.114   7.202  0.00  0.00    +0.169 HD
ATOM     12  C   UNL     1      -1.965   6.283   5.696  0.00  0.00    +0.049 A 
ATOM     13  C   UNL     1      -0.736   6.797   6.093  0.00  0.00    +0.030 A 
ATOM     14  C   UNL     1       0.395   6.509   5.359  0.00  0.00    -0.046 A 
ATOM     15  C   UNL     1       1.727   7.067   5.791  0.00  0.00    +0.044 C 
ENDBRANCH   1   7
BRANCH   1  16
ATOM     16  C   UNL     1      -6.269   3.750   5.547  0.00  0.00    +0.143 A 
ATOM     17  N   UNL     1      -6.396   3.999   6.827  0.00  0.00    -0.115 NA
ATOM     18  N   UNL     1      -6.844   2.934   7.397  0.00  0.00    -0.023 NA
ATOM     19  N   UNL     1      -6.999   2.010   6.514  0.00  0.00    -0.044 NA
ATOM     20  N   UNL     1      -6.655   2.474   5.361  0.00  0.00    -0.228 N 
BRANCH  20  21
ATOM     21  C   UNL     1      -6.679   1.749   4.088  0.00  0.00    +0.178 C 
BRANCH  21  22
ATOM     22  C   UNL     1      -5.308   1.121   3.833  0.00  0.00    +0.140 C 
ATOM     23  C   UNL     1      -5.288   0.452   2.442  0.00  0.00    +0.035 C 
ATOM     24  C   UNL     1      -4.471  -0.842   2.709  0.00  0.00    +0.031 C 
ATOM     25  C   UNL     1      -4.909  -1.172   4.159  0.00  0.00    +0.160 C 
ATOM     26  O   UNL     1      -5.051   0.102   4.807  0.00  0.00    -0.375 OA
ENDBRANCH  21  22
ENDBRANCH  20  21
ENDBRANCH   1  16
BRANCH   1  27
ATOM     27  N   UNL     1      -6.724   5.837   4.379  0.00  0.00    +0.397 N 
ATOM     28  H   UNL     1      -6.545   6.496   5.146  0.00  0.00    -0.079 HD
BRANCH  27  29
ATOM     29  C   UNL     1      -8.114   5.347   4.481  0.00  0.00    -0.041 C 
BRANCH  29  30
ATOM     30  C   UNL     1      -8.524   5.367   5.932  0.00  0.00    -0.064 A 
ATOM     31  C   UNL     1      -8.906   4.196   6.558  0.00  0.00    +0.002 A 
ATOM     32  C   UNL     1      -9.277   4.213   7.890  0.00  0.00    +0.000 A 
ATOM     33  C   UNL     1      -9.276   5.404   8.592  0.00  0.00    +0.000 A 
ATOM     34  C   UNL     1      -8.898   6.576   7.964  0.00  0.00    +0.000 A 
ATOM     35  C   UNL     1      -8.522   6.558   6.634  0.00  0.00    +0.002 A 
ENDBRANCH  29  30
ENDBRANCH  27  29
BRANCH  27  36
ATOM     36  C   UNL     1      -6.528   6.535   3.091  0.00  0.00    -0.001 C 
BRANCH  36  37
ATOM     37  C   UNL     1      -5.321   7.431   3.206  0.00  0.00    +0.089 A 
ATOM     38  C   UNL     1      -4.247   7.411   2.397  0.00  0.00    +0.042 A 
ATOM     39  C   UNL     1      -3.364   8.412   2.863  0.00  0.00    +0.041 A 
ATOM     40  C   UNL     1      -3.948   8.978   3.934  0.00  0.00    +0.195 A 
ATOM     41  O   UNL     1      -5.133   8.380   4.137  0.00  0.00    -0.470 OA
ENDBRANCH  36  37
ENDBRANCH  27  36
ENDBRANCH   1  27
TORSDOF 9
