REMARK  Name = ZINC58549597
REMARK  7 active torsions:
REMARK  status: ('A' for Active; 'I' for Inactive)
REMARK    1  A    between atoms: C_1  and  C_2
REMARK    2  A    between atoms: N_16  and  C_17
REMARK    3  A    between atoms: C_17  and  C_18
REMARK    4  A    between atoms: N_20  and  C_21
REMARK    5  A    between atoms: N_20  and  C_26
REMARK    6  A    between atoms: C_21  and  C_22
REMARK    7  A    between atoms: C_22  and  C_23
REMARK                            x       y       z     vdW  Elec       q    Type
REMARK                         _______ _______ _______ _____ _____    ______ ____
ROOT
ATOM      1  C   UNL     1      -0.312   0.840   0.125  0.00  0.00    -0.008 C 
ATOM      2  C   UNL     1       0.164  -0.551  -0.297  0.00  0.00    -0.040 C 
ATOM      3  C   UNL     1      -1.032  -1.447  -0.489  0.00  0.00    -0.054 A 
ATOM      4  C   UNL     1      -2.160  -0.925  -1.104  0.00  0.00    +0.051 A 
ATOM      5  C   UNL     1      -3.279  -1.715  -1.304  0.00  0.00    +0.162 A 
ATOM      6  C   UNL     1      -3.269  -3.042  -0.888  0.00  0.00    +0.162 A 
ATOM      7  C   UNL     1      -2.142  -3.558  -0.271  0.00  0.00    +0.053 A 
ATOM      8  C   UNL     1      -1.026  -2.761  -0.070  0.00  0.00    -0.038 A 
ATOM      9  C   UNL     1       0.177  -3.355   0.613  0.00  0.00    -0.019 C 
ATOM     10  C   UNL     1       0.441  -4.769   0.064  0.00  0.00    +0.010 C 
ATOM     11  C   UNL     1       0.906  -5.576   1.302  0.00  0.00    +0.001 C 
ATOM     12  C   UNL     1       0.011  -5.012   2.434  0.00  0.00    +0.001 C 
ATOM     13  C   UNL     1      -0.096  -3.505   2.117  0.00  0.00    +0.010 C 
ATOM     14  C   UNL     1       1.405  -2.477   0.390  0.00  0.00    -0.066 C 
ATOM     15  N   UNL     1       1.055  -1.089   0.734  0.00  0.00    +0.390 N 
ATOM     16  O   UNL     1      -4.353  -3.841  -1.084  0.00  0.00    -0.485 OA
ATOM     17  C   UNL     1      -5.594  -3.186  -1.367  0.00  0.00    +0.270 C 
ATOM     18  C   UNL     1      -5.337  -2.108  -2.429  0.00  0.00    +0.270 C 
ATOM     19  O   UNL     1      -4.378  -1.183  -1.906  0.00  0.00    -0.485 OA
ATOM     20  H   UNL     1       0.588  -1.070   1.628  0.00  0.00    -0.080 HD
ENDROOT
BRANCH  15  21
ATOM     21  C   UNL     1       2.278  -0.277   0.799  0.00  0.00    +0.020 C 
BRANCH  21  22
ATOM     22  C   UNL     1       3.136  -0.753   1.942  0.00  0.00    +0.203 C 
ATOM     23  O   UNL     1       2.716  -1.595   2.707  0.00  0.00    -0.277 OA
ATOM     24  N   UNL     1       4.372  -0.243   2.115  0.00  0.00    -0.272 N 
BRANCH  24  25
ATOM     25  C   UNL     1       5.131  -0.611   3.232  0.00  0.00    +0.036 A 
ATOM     26  C   UNL     1       6.306  -1.333   3.067  0.00  0.00    +0.026 A 
ATOM     27  C   UNL     1       7.054  -1.695   4.170  0.00  0.00    +0.040 A 
ATOM     28  C   UNL     1       6.633  -1.339   5.440  0.00  0.00    +0.124 A 
ATOM     29  C   UNL     1       5.462  -0.618   5.607  0.00  0.00    +0.040 A 
ATOM     30  C   UNL     1       4.715  -0.249   4.506  0.00  0.00    +0.026 A 
ATOM     31  F   UNL     1       7.365  -1.694   6.518  0.00  0.00    -0.205 F 
ENDBRANCH  24  25
BRANCH  24  32
ATOM     32  C   UNL     1       4.920   0.697   1.134  0.00  0.00    +0.123 C 
BRANCH  32  33
ATOM     33  C   UNL     1       4.551   2.127   1.536  0.00  0.00    +0.115 C 
BRANCH  33  34
ATOM     34  C   UNL     1       5.115   3.094   0.526  0.00  0.00    +0.212 C 
ATOM     35  O   UNL     1       5.749   2.680  -0.421  0.00  0.00    -0.276 OA
ATOM     36  N   UNL     1       4.914   4.418   0.677  0.00  0.00    -0.329 N 
ATOM     37  H   UNL     1       4.407   4.749   1.435  0.00  0.00    +0.145 HD
ATOM     38  H   UNL     1       5.277   5.040   0.027  0.00  0.00    +0.145 HD
ENDBRANCH  33  34
ENDBRANCH  32  33
ENDBRANCH  24  32
ENDBRANCH  21  22
ENDBRANCH  15  21
TORSDOF 6
