REMARK  Name = ZINC35512935
REMARK  11 active torsions:
REMARK  status: ('A' for Active; 'I' for Inactive)
REMARK    1  A    between atoms: C_1  and  C_2
REMARK    2  A    between atoms: C_2  and  O_3
REMARK    3  A    between atoms: O_3  and  C_4
REMARK    4  A    between atoms: C_4  and  C_6
REMARK    5  A    between atoms: C_7  and  C_38
REMARK    6  A    between atoms: C_12  and  C_29
REMARK    7  A    between atoms: C_19  and  C_28
REMARK    8  A    between atoms: C_20  and  C_27
REMARK    9  A    between atoms: C_32  and  O_37
REMARK   10  A    between atoms: C_33  and  O_35
REMARK   11  A    between atoms: O_35  and  C_36
REMARK                            x       y       z     vdW  Elec       q    Type
REMARK                         _______ _______ _______ _____ _____    ______ ____
ROOT
ATOM      1  C   UNL     1       1.448  -2.344  -2.514  0.00  0.00    +0.120 A 
ATOM      2  C   UNL     1       1.663  -3.666  -2.882  0.00  0.00    +0.062 A 
ATOM      3  N   UNL     1       2.302  -3.858  -4.008  0.00  0.00    -0.229 NA
ATOM      4  C   UNL     1       2.717  -2.845  -4.748  0.00  0.00    +0.169 A 
ATOM      5  S   UNL     1       2.212  -1.492  -3.885  0.00  0.00    -0.045 S 
ATOM      6  N   UNL     1       3.400  -2.888  -5.949  0.00  0.00    -0.232 N 
ATOM      7  C   UNL     1       3.845  -1.724  -6.732  0.00  0.00    +0.152 C 
ATOM      8  C   UNL     1       4.527  -2.282  -7.938  0.00  0.00    +0.072 A 
ATOM      9  C   UNL     1       5.164  -1.619  -9.081  0.00  0.00    +0.199 A 
ATOM     10  O   UNL     1       5.381  -0.421  -9.122  0.00  0.00    -0.287 OA
ATOM     11  C   UNL     1       5.520  -2.548 -10.183  0.00  0.00    +0.065 A 
ATOM     12  C   UNL     1       5.949  -2.052 -11.414  0.00  0.00    +0.019 A 
ATOM     13  C   UNL     1       6.268  -2.920 -12.421  0.00  0.00    -0.047 A 
ATOM     14  C   UNL     1       6.167  -4.290 -12.221  0.00  0.00    -0.044 A 
ATOM     15  C   UNL     1       5.748  -4.797 -11.012  0.00  0.00    +0.050 A 
ATOM     16  C   UNL     1       5.418  -3.932  -9.968  0.00  0.00    +0.140 A 
ATOM     17  O   UNL     1       5.017  -4.452  -8.786  0.00  0.00    -0.450 OA
ATOM     18  C   UNL     1       4.480  -3.644  -7.850  0.00  0.00    +0.199 A 
ATOM     19  C   UNL     1       3.779  -4.003  -6.606  0.00  0.00    +0.289 C 
ATOM     20  O   UNL     1       3.570  -5.139  -6.228  0.00  0.00    -0.266 OA
ATOM     21  C   UNL     1       6.521  -5.234 -13.341  0.00  0.00    +0.044 C 
ATOM     22  C   UNL     1       6.732  -2.388 -13.753  0.00  0.00    +0.044 C 
ATOM     23  C   UNL     1       1.187  -4.815  -2.032  0.00  0.00    +0.067 C 
ENDROOT
BRANCH   7  24
ATOM     24  C   UNL     1       4.810  -0.893  -5.926  0.00  0.00    -0.018 A 
ATOM     25  C   UNL     1       5.743  -1.512  -5.115  0.00  0.00    +0.009 A 
ATOM     26  C   UNL     1       6.630  -0.754  -4.374  0.00  0.00    +0.049 A 
ATOM     27  C   UNL     1       6.585   0.629  -4.442  0.00  0.00    +0.158 A 
ATOM     28  C   UNL     1       5.646   1.252  -5.258  0.00  0.00    +0.162 A 
ATOM     29  C   UNL     1       4.763   0.486  -6.002  0.00  0.00    +0.055 A 
BRANCH  28  30
ATOM     30  O   UNL     1       5.598   2.609  -5.328  0.00  0.00    -0.491 OA
ATOM     31  C   UNL     1       4.608   3.180  -6.186  0.00  0.00    +0.277 C 
ENDBRANCH  28  30
BRANCH  27  32
ATOM     32  O   UNL     1       7.457   1.376  -3.712  0.00  0.00    -0.503 OA
ATOM     33  H   UNL     1       8.283   1.577  -4.173  0.00  0.00    +0.292 HD
ENDBRANCH  27  32
ENDBRANCH   7  24
BRANCH   1  34
ATOM     34  C   UNL     1       0.776  -1.800  -1.335  0.00  0.00    +0.348 C 
ATOM     35  O   UNL     1       0.312  -2.553  -0.499  0.00  0.00    -0.244 OA
BRANCH  34  36
ATOM     36  O   UNL     1       0.671  -0.465  -1.174  0.00  0.00    -0.461 OA
BRANCH  36  38
ATOM     37  C   UNL     1      -0.019   1.526   0.010  0.00  0.00    +0.048 C 
ATOM     38  C   UNL     1       0.002  -0.004   0.002  0.00  0.00    +0.229 C 
ENDBRANCH  36  38
ENDBRANCH  34  36
ENDBRANCH   1  34
TORSDOF 6
