REMARK  Name = ZINC35888649
REMARK  17 active torsions:
REMARK  status: ('A' for Active; 'I' for Inactive)
REMARK    1  A    between atoms: C_1  and  C_2
REMARK    2  A    between atoms: C_7  and  C_8
REMARK    3  A    between atoms: N_11  and  C_28
REMARK    4  A    between atoms: C_13  and  C_15
REMARK    5  A    between atoms: C_15  and  N_16
REMARK    6  A    between atoms: N_16  and  C_17
REMARK    7  A    between atoms: C_17  and  C_18
REMARK    8  A    between atoms: C_17  and  C_19
REMARK    9  A    between atoms: C_20  and  C_22
REMARK   10  A    between atoms: C_28  and  C_29
REMARK   11  A    between atoms: C_29  and  C_31
REMARK   12  A    between atoms: C_29  and  O_37
REMARK   13  A    between atoms: C_31  and  N_32
REMARK   14  A    between atoms: N_32  and  C_33
REMARK   15  A    between atoms: N_32  and  C_34
REMARK   16  A    between atoms: C_34  and  C_35
REMARK   17  A    between atoms: C_34  and  C_36
REMARK                            x       y       z     vdW  Elec       q    Type
REMARK                         _______ _______ _______ _____ _____    ______ ____
ROOT
ATOM      1  C   UNL     1       1.462  -1.504   5.764  0.00  0.00    +0.005 C 
ATOM      2  C   UNL     1       1.373  -2.020   7.222  0.00  0.00    -0.070 C 
ATOM      3  N   UNL     1       2.448  -1.265   7.916  0.00  0.00    +0.382 N 
ATOM      4  C   UNL     1       3.578  -1.204   6.964  0.00  0.00    -0.073 C 
ATOM      5  C   UNL     1       2.983  -1.331   5.546  0.00  0.00    -0.005 C 
ATOM      6  H   UNL     1       2.130  -0.334   8.139  0.00  0.00    -0.082 HD
ENDROOT
BRANCH   1  13
ATOM      7  C   UNL     1      -0.676  -0.760   3.969  0.00  0.00    +0.044 C 
ATOM      8  C   UNL     1      -0.126  -2.162   3.944  0.00  0.00    -0.047 A 
ATOM      9  C   UNL     1      -0.640  -3.091   3.059  0.00  0.00    +0.003 A 
ATOM     10  C   UNL     1      -0.135  -4.378   3.037  0.00  0.00    +0.000 A 
ATOM     11  C   UNL     1       0.885  -4.735   3.899  0.00  0.00    +0.000 A 
ATOM     12  C   UNL     1       1.400  -3.806   4.784  0.00  0.00    +0.004 A 
ATOM     13  C   UNL     1       0.897  -2.518   4.803  0.00  0.00    -0.043 A 
ENDBRANCH   1  13
BRANCH   5  14
ATOM     14  C   UNL     1       3.262  -0.065   4.733  0.00  0.00    +0.110 C 
BRANCH  14  15
ATOM     15  N   UNL     1       4.697   0.028   4.452  0.00  0.00    -0.295 N 
ATOM     16  C   UNL     1       5.513   0.661   5.317  0.00  0.00    +0.247 C 
ATOM     17  O   UNL     1       5.107   1.618   5.947  0.00  0.00    -0.270 OA
BRANCH  16  18
ATOM     18  C   UNL     1       6.903   0.192   5.501  0.00  0.00    +0.037 A 
ATOM     19  C   UNL     1       7.524  -0.567   4.508  0.00  0.00    +0.013 A 
ATOM     20  C   UNL     1       8.821  -1.001   4.685  0.00  0.00    +0.001 A 
ATOM     21  C   UNL     1       9.507  -0.687   5.845  0.00  0.00    +0.000 A 
ATOM     22  C   UNL     1       8.897   0.065   6.834  0.00  0.00    +0.001 A 
ATOM     23  C   UNL     1       7.603   0.511   6.666  0.00  0.00    +0.013 A 
ENDBRANCH  16  18
BRANCH  15  24
ATOM     24  C   UNL     1       5.245  -0.567   3.230  0.00  0.00    +0.070 C 
ATOM     25  C   UNL     1       6.385   0.307   2.704  0.00  0.00    +0.028 C 
ATOM     26  C   UNL     1       5.776  -1.968   3.539  0.00  0.00    +0.028 C 
ENDBRANCH  15  24
ENDBRANCH  14  15
ENDBRANCH   5  14
BRANCH   3  27
ATOM     27  C   UNL     1       2.853  -1.970   9.139  0.00  0.00    -0.049 C 
BRANCH  27  28
ATOM     28  C   UNL     1       1.696  -1.963  10.140  0.00  0.00    +0.082 C 
BRANCH  28  29
ATOM     29  O   UNL     1       1.351  -0.614  10.460  0.00  0.00    -0.395 OA
ATOM     30  H   UNL     1       2.074  -0.106  10.855  0.00  0.00    +0.210 HD
ENDBRANCH  28  29
BRANCH  28  31
ATOM     31  C   UNL     1       2.119  -2.697  11.414  0.00  0.00    -0.049 C 
BRANCH  31  32
ATOM     32  N   UNL     1       0.952  -2.871  12.289  0.00  0.00    +0.381 N 
ATOM     33  C   UNL     1       0.510  -1.560  12.781  0.00  0.00    -0.096 C 
ATOM     34  H   UNL     1       0.203  -3.305  11.769  0.00  0.00    -0.082 HD
BRANCH  32  35
ATOM     35  C   UNL     1       1.317  -3.724  13.428  0.00  0.00    -0.075 C 
ATOM     36  C   UNL     1       0.101  -3.905  14.339  0.00  0.00    -0.014 C 
ATOM     37  C   UNL     1       1.777  -5.090  12.914  0.00  0.00    -0.014 C 
ENDBRANCH  32  35
ENDBRANCH  31  32
ENDBRANCH  28  31
ENDBRANCH  27  28
ENDBRANCH   3  27
TORSDOF 11
