REMARK  Name = ZINC28566470
REMARK  7 active torsions:
REMARK  status: ('A' for Active; 'I' for Inactive)
REMARK    1  A    between atoms: C_4  and  S_8
REMARK    2  A    between atoms: S_8  and  C_9
REMARK    3  A    between atoms: C_10  and  C_25
REMARK    4  A    between atoms: C_11  and  C_18
REMARK    5  A    between atoms: C_12  and  C_16
REMARK    6  A    between atoms: C_13  and  N_15
REMARK    7  A    between atoms: C_22  and  O_24
REMARK                            x       y       z     vdW  Elec       q    Type
REMARK                         _______ _______ _______ _____ _____    ______ ____
ROOT
ATOM      1  C   UNL     1      -0.500   7.469  -1.054  0.00  0.00    +0.122 A 
ATOM      2  C   UNL     1      -0.271   6.089  -1.211  0.00  0.00    +0.093 A 
ATOM      3  C   UNL     1       0.349   5.377  -0.165  0.00  0.00    +0.023 A 
ATOM      4  C   UNL     1       0.707   6.087   0.998  0.00  0.00    +0.100 A 
ATOM      5  C   UNL     1       0.443   7.468   1.063  0.00  0.00    +0.136 A 
ATOM      6  N   UNL     1      -0.141   8.097   0.056  0.00  0.00    -0.223 NA
ENDROOT
BRANCH   3   7
ATOM      7  C   UNL     1       0.611   3.926  -0.283  0.00  0.00    -0.012 A 
ATOM      8  C   UNL     1      -0.454   3.027  -0.368  0.00  0.00    +0.009 A 
ATOM      9  C   UNL     1      -0.207   1.675  -0.483  0.00  0.00    +0.004 A 
ATOM     10  C   UNL     1       1.094   1.204  -0.503  0.00  0.00    +0.045 A 
ATOM     11  C   UNL     1       2.159   2.091  -0.419  0.00  0.00    +0.117 A 
ATOM     12  C   UNL     1       1.921   3.451  -0.309  0.00  0.00    +0.054 A 
BRANCH  11  13
ATOM     13  O   UNL     1       3.435   1.624  -0.446  0.00  0.00    -0.507 OA
ATOM     14  H   UNL     1       4.279   2.326  -0.380  0.00  0.00    +0.292 HD
ENDBRANCH  11  13
ENDBRANCH   3   7
BRANCH   5  15
ATOM     15  N   UNL     1       0.794   8.175   2.195  0.00  0.00    -0.342 N 
ATOM     16  H   UNL     1       0.591   9.255   2.254  0.00  0.00    +0.144 HD
ATOM     17  H   UNL     1       1.277   7.660   3.038  0.00  0.00    +0.144 HD
ENDBRANCH   5  15
BRANCH   4  18
ATOM     18  C   UNL     1       1.335   5.415   2.095  0.00  0.00    +0.103 C 
ATOM     19  N   UNL     1       1.834   4.881   2.966  0.00  0.00    -0.191 NA
ENDBRANCH   4  18
BRANCH   2  20
ATOM     20  C   UNL     1      -0.662   5.419  -2.415  0.00  0.00    +0.102 C 
ATOM     21  N   UNL     1      -0.972   4.888  -3.370  0.00  0.00    -0.191 NA
ENDBRANCH   2  20
BRANCH   1  22
ATOM     22  S   UNL     1      -1.274   8.374  -2.353  0.00  0.00    -0.066 S 
BRANCH  22  26
ATOM     23  C   UNL     1      -0.983  12.570  -0.670  0.00  0.00    +0.003 A 
ATOM     24  C   UNL     1      -2.190  11.896  -0.639  0.00  0.00    +0.001 A 
ATOM     25  C   UNL     1      -2.283  10.619  -1.157  0.00  0.00    +0.018 A 
ATOM     26  C   UNL     1      -1.160  10.006  -1.698  0.00  0.00    +0.049 A 
ATOM     27  C   UNL     1       0.053  10.687  -1.727  0.00  0.00    +0.137 A 
ATOM     28  C   UNL     1       0.137  11.967  -1.212  0.00  0.00    +0.039 A 
ATOM     29  F   UNL     1       1.147  10.097  -2.257  0.00  0.00    -0.204 F 
ENDBRANCH  22  26
ENDBRANCH   1  22
TORSDOF 7
