REMARK  Name = ZINC06074474
REMARK  11 active torsions:
REMARK  status: ('A' for Active; 'I' for Inactive)
REMARK    1  A    between atoms: C_1  and  C_2
REMARK    2  A    between atoms: C_2  and  C_3
REMARK    3  A    between atoms: C_2  and  C_4
REMARK    4  A    between atoms: C_2  and  N_5
REMARK    5  A    between atoms: C_6  and  C_8
REMARK    6  A    between atoms: C_8  and  C_10
REMARK    7  A    between atoms: C_8  and  N_17
REMARK    8  A    between atoms: N_17  and  C_18
REMARK    9  A    between atoms: C_23  and  C_25
REMARK   10  A    between atoms: C_28  and  C_30
REMARK   11  A    between atoms: C_30  and  N_71
REMARK                            x       y       z     vdW  Elec       q    Type
REMARK                         _______ _______ _______ _____ _____    ______ ____
ROOT
ATOM      1  N   UNL     1       1.266   5.551   6.145  0.00  0.00    -0.276 N 
ATOM      2  C   UNL     1       0.461   4.531   5.789  0.00  0.00    +0.283 C 
ATOM      3  O   UNL     1       0.855   3.691   5.001  0.00  0.00    -0.267 OA
ENDROOT
BRANCH   1   4
ATOM      4  C   UNL     1       2.635   5.619   5.627  0.00  0.00    +0.078 C 
ATOM      5  C   UNL     1       2.612   5.778   4.093  0.00  0.00    +0.022 C 
ATOM      6  C   UNL     1       3.813   4.929   3.605  0.00  0.00    +0.002 C 
ATOM      7  C   UNL     1       3.778   3.708   4.557  0.00  0.00    +0.002 C 
ATOM      8  C   UNL     1       3.376   4.303   5.922  0.00  0.00    +0.022 C 
ENDBRANCH   1   4
BRANCH   2   9
ATOM      9  C   UNL     1      -0.891   4.434   6.349  0.00  0.00    +0.190 A 
ATOM     10  C   UNL     1      -1.699   3.334   6.310  0.00  0.00    +0.055 A 
ATOM     11  C   UNL     1      -2.891   3.685   6.962  0.00  0.00    +0.043 A 
ATOM     12  C   UNL     1      -2.760   4.968   7.366  0.00  0.00    +0.090 A 
ATOM     13  O   UNL     1      -1.556   5.418   6.991  0.00  0.00    -0.457 OA
BRANCH  12  14
ATOM     14  C   UNL     1      -3.801   5.764   8.111  0.00  0.00    -0.003 C 
BRANCH  14  20
ATOM     15  C   UNL     1      -4.553   6.417  10.319  0.00  0.00    -0.050 C 
ATOM     16  C   UNL     1      -4.375   6.143  11.815  0.00  0.00    +0.141 C 
ATOM     17  O   UNL     1      -3.011   6.377  12.178  0.00  0.00    -0.383 OA
ATOM     18  C   UNL     1      -2.077   5.569  11.455  0.00  0.00    +0.141 C 
ATOM     19  C   UNL     1      -2.232   5.837   9.956  0.00  0.00    -0.050 C 
ATOM     20  N   UNL     1      -3.628   5.547   9.564  0.00  0.00    +0.387 N 
ATOM     21  H   UNL     1      -3.839   4.566   9.782  0.00  0.00    -0.081 HD
ENDBRANCH  14  20
ENDBRANCH  12  14
ENDBRANCH   2   9
BRANCH   1  22
ATOM     22  C   UNL     1       0.774   6.591   7.051  0.00  0.00    +0.193 C 
BRANCH  22  23
ATOM     23  C   UNL     1       0.654   7.894   6.303  0.00  0.00    -0.018 A 
ATOM     24  C   UNL     1      -0.574   8.520   6.198  0.00  0.00    +0.009 A 
ATOM     25  C   UNL     1      -0.683   9.718   5.517  0.00  0.00    +0.038 A 
ATOM     26  C   UNL     1       0.435  10.284   4.929  0.00  0.00    +0.123 A 
ATOM     27  C   UNL     1       1.664   9.653   5.030  0.00  0.00    +0.038 A 
ATOM     28  C   UNL     1       1.772   8.459   5.717  0.00  0.00    +0.009 A 
ATOM     29  F   UNL     1       0.328  11.451   4.257  0.00  0.00    -0.205 F 
ENDBRANCH  22  23
BRANCH  22  31
ATOM     30  N   UNL     1       1.489   7.665   9.162  0.00  0.00    -0.309 N 
ATOM     31  C   UNL     1       1.738   6.757   8.197  0.00  0.00    +0.239 C 
ATOM     32  O   UNL     1       2.738   6.074   8.252  0.00  0.00    -0.273 OA
ATOM     33  H   UNL     1       0.689   8.212   9.118  0.00  0.00    +0.149 HD
BRANCH  30  35
ATOM     34  C   UNL     1       3.799   8.230   9.733  0.00  0.00    +0.031 C 
ATOM     35  C   UNL     1       2.426   7.826  10.276  0.00  0.00    +0.026 C 
ATOM     36  C   UNL     1       1.912   8.913  11.222  0.00  0.00    +0.031 C 
ATOM     37  C   UNL     1       2.548   6.504  11.036  0.00  0.00    +0.031 C 
ENDBRANCH  30  35
ENDBRANCH  22  31
ENDBRANCH   1  22
TORSDOF 8
