REMARK  Name = ZINC07825887
REMARK  4 active torsions:
REMARK  status: ('A' for Active; 'I' for Inactive)
REMARK    1  A    between atoms: C_1  and  N_2
REMARK    2  A    between atoms: C_3  and  C_5
REMARK    3  A    between atoms: C_16  and  C_18
REMARK    4  A    between atoms: C_19  and  C_20
REMARK                            x       y       z     vdW  Elec       q    Type
REMARK                         _______ _______ _______ _____ _____    ______ ____
ROOT
ATOM      1  C   UNL     1       0.018  -2.696   1.060  0.00  0.00    +0.276 C 
ATOM      2  C   UNL     1      -1.134  -2.239   0.154  0.00  0.00    +0.168 C 
ATOM      3  N   UNL     1      -1.194  -0.768   0.219  0.00  0.00    -0.261 N 
ATOM      4  C   UNL     1       0.021  -0.064   0.191  0.00  0.00    +0.079 A 
ATOM      5  C   UNL     1       0.025   1.304  -0.035  0.00  0.00    +0.027 A 
ATOM      6  C   UNL     1       1.223   1.994  -0.059  0.00  0.00    +0.002 A 
ATOM      7  C   UNL     1       2.414   1.321   0.144  0.00  0.00    +0.004 A 
ATOM      8  C   UNL     1       2.415  -0.043   0.368  0.00  0.00    +0.047 A 
ATOM      9  C   UNL     1       1.219  -0.744   0.392  0.00  0.00    +0.143 A 
ATOM     10  O   UNL     1       1.229  -2.085   0.610  0.00  0.00    -0.476 OA
ATOM     11  C   UNL     1      -2.373  -0.121   0.302  0.00  0.00    +0.244 C 
ATOM     12  O   UNL     1      -2.396   1.085   0.462  0.00  0.00    -0.270 OA
ENDROOT
BRANCH   1  15
ATOM     13  C   UNL     1      -0.712  -6.441   1.379  0.00  0.00    +0.128 C 
ATOM     14  N   UNL     1      -0.841  -4.983   1.449  0.00  0.00    -0.315 N 
ATOM     15  C   UNL     1       0.151  -4.196   0.989  0.00  0.00    +0.255 C 
ATOM     16  O   UNL     1       1.152  -4.694   0.519  0.00  0.00    -0.272 OA
ATOM     17  H   UNL     1      -1.642  -4.585   1.825  0.00  0.00    +0.148 HD
ENDBRANCH   1  15
BRANCH  11  18
ATOM     18  C   UNL     1      -3.627  -0.870   0.200  0.00  0.00    +0.068 C 
ATOM     19  C   UNL     1      -4.805  -0.241   0.391  0.00  0.00    +0.014 C 
BRANCH  19  20
ATOM     20  C   UNL     1      -6.066  -0.993   0.288  0.00  0.00    -0.007 A 
ATOM     21  C   UNL     1      -6.046  -2.361  -0.006  0.00  0.00    +0.009 A 
ATOM     22  C   UNL     1      -7.231  -3.058  -0.100  0.00  0.00    +0.001 A 
ATOM     23  C   UNL     1      -8.439  -2.410   0.097  0.00  0.00    +0.001 A 
ATOM     24  C   UNL     1      -8.468  -1.059   0.388  0.00  0.00    +0.020 A 
ATOM     25  C   UNL     1      -7.290  -0.346   0.491  0.00  0.00    +0.048 A 
ATOM     26 CL   UNL     1      -7.327   1.349   0.865  0.00  0.00    -0.083 Cl
ENDBRANCH  19  20
ENDBRANCH  11  18
TORSDOF 3
