REMARK  Name = ZINC14720782
REMARK  12 active torsions:
REMARK  status: ('A' for Active; 'I' for Inactive)
REMARK    1  A    between atoms: C_1  and  C_2
REMARK    2  A    between atoms: C_2  and  C_3
REMARK    3  A    between atoms: C_3  and  C_4
REMARK    4  A    between atoms: C_4  and  N_5
REMARK    5  A    between atoms: N_5  and  C_6
REMARK    6  A    between atoms: C_7  and  N_19
REMARK    7  A    between atoms: N_8  and  C_15
REMARK    8  A    between atoms: C_15  and  C_16
REMARK    9  A    between atoms: C_16  and  C_17
REMARK   10  A    between atoms: C_16  and  C_18
REMARK   11  A    between atoms: C_20  and  C_22
REMARK   12  A    between atoms: C_24  and  O_32
REMARK                            x       y       z     vdW  Elec       q    Type
REMARK                         _______ _______ _______ _____ _____    ______ ____
ROOT
ATOM      1  N   UNL     1       1.161   3.591   0.405  0.00  0.00    -0.260 N 
ATOM      2  C   UNL     1       0.002   4.093  -0.065  0.00  0.00    +0.252 C 
ATOM      3  O   UNL     1      -0.002   5.141  -0.680  0.00  0.00    -0.270 OA
ENDROOT
BRANCH   2   4
ATOM      4  C   UNL     1      -1.266   3.367   0.169  0.00  0.00    +0.051 A 
ATOM      5  C   UNL     1      -1.569   2.822   1.409  0.00  0.00    +0.080 A 
ATOM      6  C   UNL     1      -2.782   2.148   1.586  0.00  0.00    +0.214 A 
ATOM      7  N   UNL     1      -3.652   1.999   0.615  0.00  0.00    -0.213 NA
ATOM      8  C   UNL     1      -3.443   2.484  -0.612  0.00  0.00    +0.076 A 
ATOM      9  C   UNL     1      -2.249   3.189  -0.900  0.00  0.00    +0.013 A 
ATOM     10  C   UNL     1      -2.032   3.697  -2.186  0.00  0.00    +0.011 A 
ATOM     11  C   UNL     1      -2.975   3.507  -3.152  0.00  0.00    +0.001 A 
ATOM     12  C   UNL     1      -4.152   2.815  -2.874  0.00  0.00    +0.002 A 
ATOM     13  C   UNL     1      -4.394   2.309  -1.634  0.00  0.00    +0.028 A 
BRANCH   6  14
ATOM     14  O   UNL     1      -3.066   1.625   2.805  0.00  0.00    -0.492 OA
ATOM     15  H   UNL     1      -2.758   0.717   2.924  0.00  0.00    +0.294 HD
ENDBRANCH   6  14
ENDBRANCH   2   4
BRANCH   1  16
ATOM     16  C   UNL     1       1.184   2.321   1.016  0.00  0.00    +0.140 A 
ATOM     17  C   UNL     1       1.481   2.193   2.358  0.00  0.00    +0.127 A 
ATOM     18  N   UNL     1       1.495   0.940   2.925  0.00  0.00    -0.280 N 
ATOM     19  C   UNL     1       1.223  -0.147   2.181  0.00  0.00    +0.331 A 
ATOM     20  O   UNL     1       1.241  -1.246   2.702  0.00  0.00    -0.246 OA
ATOM     21  N   UNL     1       0.931  -0.042   0.873  0.00  0.00    -0.273 N 
ATOM     22  H   UNL     1       0.732  -0.866   0.343  0.00  0.00    +0.173 HD
ATOM     23  C   UNL     1       0.904   1.162   0.268  0.00  0.00    +0.277 A 
ATOM     24  O   UNL     1       0.638   1.246  -0.919  0.00  0.00    -0.266 OA
BRANCH  17  25
ATOM     25  N   UNL     1       1.754   3.304   3.119  0.00  0.00    -0.343 N 
ATOM     26  H   UNL     1       1.875   3.217   4.077  0.00  0.00    +0.144 HD
ATOM     27  H   UNL     1       1.825   4.175   2.698  0.00  0.00    +0.144 HD
ENDBRANCH  17  25
BRANCH  18  28
ATOM     28  C   UNL     1       1.809   0.788   4.348  0.00  0.00    +0.131 C 
BRANCH  28  29
ATOM     29  C   UNL     1       0.518   0.866   5.166  0.00  0.00    +0.003 C 
ATOM     30  C   UNL     1      -0.377  -0.326   4.819  0.00  0.00    +0.009 C 
ATOM     31  C   UNL     1       0.856   0.833   6.657  0.00  0.00    +0.009 C 
ENDBRANCH  28  29
ENDBRANCH  18  28
ENDBRANCH   1  16
BRANCH   1  32
ATOM     32  C   UNL     1       2.398   4.367   0.281  0.00  0.00    +0.114 C 
BRANCH  32  33
ATOM     33  C   UNL     1       3.022   4.114  -1.093  0.00  0.00    +0.019 C 
BRANCH  33  35
ATOM     34  C   UNL     1       4.938   4.672  -2.597  0.00  0.00    +0.004 C 
ATOM     35  C   UNL     1       4.314   4.924  -1.223  0.00  0.00    -0.002 C 
ENDBRANCH  33  35
ENDBRANCH  32  33
ENDBRANCH   1  32
TORSDOF 9
