REMARK  Name = ZINC35934722
REMARK  7 active torsions:
REMARK  status: ('A' for Active; 'I' for Inactive)
REMARK    1  A    between atoms: C_1  and  N_2
REMARK    2  A    between atoms: C_5  and  C_10
REMARK    3  A    between atoms: N_19  and  C_21
REMARK    4  A    between atoms: C_21  and  C_22
REMARK    5  A    between atoms: C_22  and  C_23
REMARK    6  A    between atoms: N_25  and  C_26
REMARK    7  A    between atoms: C_26  and  C_27
REMARK                            x       y       z     vdW  Elec       q    Type
REMARK                         _______ _______ _______ _____ _____    ______ ____
ROOT
ATOM      1  C   UNL     1      -0.018   1.461   0.010  0.00  0.00    +0.139 C 
ATOM      2  N   UNL     1       0.002  -0.004   0.002  0.00  0.00    -0.260 N 
ATOM      3  C   UNL     1      -1.193  -0.666   0.004  0.00  0.00    +0.042 C 
ATOM      4  C   UNL     1      -1.245  -2.013  -0.003  0.00  0.00    +0.058 C 
ATOM      5  C   UNL     1       0.068  -2.769  -0.014  0.00  0.00    +0.143 C 
ATOM      6  N   UNL     1       1.301  -1.964  -0.016  0.00  0.00    -0.288 N 
ATOM      7  C   UNL     1       1.191  -0.621  -0.013  0.00  0.00    +0.307 C 
ATOM      8  O   UNL     1       2.203   0.052  -0.018  0.00  0.00    -0.252 OA
ATOM      9  C   UNL     1      -2.585  -2.452   0.002  0.00  0.00    +0.247 C 
ATOM     10  O   UNL     1      -2.927  -3.620  -0.003  0.00  0.00    -0.270 OA
ATOM     11  N   UNL     1      -3.437  -1.411   0.012  0.00  0.00    -0.292 N 
ATOM     12  C   UNL     1      -2.626  -0.184   0.015  0.00  0.00    +0.159 C 
ATOM     13  H   UNL     1       2.172  -2.391  -0.023  0.00  0.00    +0.151 HD
ENDROOT
BRANCH   5  14
ATOM     14  C   UNL     1       0.100  -3.664   1.198  0.00  0.00    -0.004 A 
ATOM     15  C   UNL     1       0.712  -3.232   2.360  0.00  0.00    +0.007 A 
ATOM     16  C   UNL     1       0.741  -4.052   3.472  0.00  0.00    +0.000 A 
ATOM     17  C   UNL     1       0.157  -5.305   3.424  0.00  0.00    +0.001 A 
ATOM     18  C   UNL     1      -0.455  -5.737   2.263  0.00  0.00    +0.020 A 
ATOM     19  C   UNL     1      -0.490  -4.915   1.151  0.00  0.00    +0.046 A 
ATOM     20 CL   UNL     1      -1.265  -5.455  -0.305  0.00  0.00    -0.083 Cl
ENDBRANCH   5  14
BRANCH  11  21
ATOM     21  C   UNL     1      -4.900  -1.485   0.019  0.00  0.00    +0.117 C 
BRANCH  21  22
ATOM     22  C   UNL     1      -5.402  -1.519   1.464  0.00  0.00    +0.114 C 
BRANCH  22  23
ATOM     23  C   UNL     1      -6.907  -1.596   1.471  0.00  0.00    +0.215 C 
ATOM     24  O   UNL     1      -7.518  -1.621   0.424  0.00  0.00    -0.276 OA
ATOM     25  N   UNL     1      -7.574  -1.636   2.642  0.00  0.00    -0.311 N 
ATOM     26  H   UNL     1      -7.085  -1.617   3.479  0.00  0.00    +0.149 HD
BRANCH  25  27
ATOM     27  C   UNL     1      -9.037  -1.711   2.649  0.00  0.00    +0.139 C 
BRANCH  27  28
ATOM     28  C   UNL     1      -9.532  -1.744   4.072  0.00  0.00    -0.027 A 
ATOM     29  C   UNL     1      -9.692  -2.956   4.718  0.00  0.00    +0.009 A 
ATOM     30  C   UNL     1     -10.144  -2.992   6.024  0.00  0.00    +0.050 A 
ATOM     31  C   UNL     1     -10.440  -1.812   6.688  0.00  0.00    +0.166 A 
ATOM     32  C   UNL     1     -10.278  -0.592   6.037  0.00  0.00    +0.167 A 
ATOM     33  C   UNL     1      -9.819  -0.563   4.730  0.00  0.00    +0.054 A 
ATOM     34  O   UNL     1     -10.631   0.410   6.894  0.00  0.00    -0.453 OA
ATOM     35  C   UNL     1     -11.397  -0.226   7.935  0.00  0.00    +0.466 C 
ATOM     36  O   UNL     1     -10.893  -1.575   7.954  0.00  0.00    -0.453 OA
ENDBRANCH  27  28
ENDBRANCH  25  27
ENDBRANCH  22  23
ENDBRANCH  21  22
ENDBRANCH  11  21
TORSDOF 6
