REMARK  Name = ZINC28287240
REMARK  6 active torsions:
REMARK  status: ('A' for Active; 'I' for Inactive)
REMARK    1  A    between atoms: C_6  and  C_7
REMARK    2  A    between atoms: C_9  and  C_12
REMARK    3  A    between atoms: N_14  and  C_15
REMARK    4  A    between atoms: C_15  and  C_16
REMARK    5  A    between atoms: C_16  and  C_18
REMARK    6  A    between atoms: C_16  and  N_25
REMARK                            x       y       z     vdW  Elec       q    Type
REMARK                         _______ _______ _______ _____ _____    ______ ____
ROOT
ATOM      1  C   UNL     1      -1.952   3.977   3.548  0.00  0.00    +0.266 C 
ATOM      2  O   UNL     1      -2.865   3.532   4.216  0.00  0.00    -0.268 OA
ATOM      3  N   UNL     1      -1.045   3.141   3.005  0.00  0.00    -0.311 N 
ATOM      4  H   UNL     1      -0.219   3.543   2.400  0.00  0.00    +0.149 HD
ENDROOT
BRANCH   1   7
ATOM      5  C   UNL     1      -2.165   7.608   3.353  0.00  0.00    +0.168 A 
ATOM      6  C   UNL     1      -2.707   6.445   3.826  0.00  0.00    +0.086 A 
ATOM      7  C   UNL     1      -1.836   5.440   3.331  0.00  0.00    +0.168 A 
ATOM      8  N   UNL     1      -0.913   6.061   2.638  0.00  0.00    -0.073 NA
ATOM      9  O   UNL     1      -1.080   7.258   2.640  0.00  0.00    -0.354 OA
BRANCH   5  15
ATOM     10  C   UNL     1      -3.826   9.182   4.338  0.00  0.00    +0.013 A 
ATOM     11  C   UNL     1      -4.295  10.462   4.545  0.00  0.00    +0.016 A 
ATOM     12  C   UNL     1      -3.632  11.543   3.989  0.00  0.00    +0.018 A 
ATOM     13  C   UNL     1      -2.494  11.347   3.226  0.00  0.00    +0.016 A 
ATOM     14  C   UNL     1      -2.013  10.072   3.016  0.00  0.00    +0.013 A 
ATOM     15  C   UNL     1      -2.676   8.978   3.574  0.00  0.00    +0.020 A 
ATOM     16 BR   UNL     1      -4.286  13.295   4.271  0.00  0.00    -0.050 Br
ENDBRANCH   5  15
ENDBRANCH   1   7
BRANCH   3  17
ATOM     17  C   UNL     1      -1.160   1.696   3.219  0.00  0.00    +0.094 C 
BRANCH  17  18
ATOM     18  C   UNL     1      -0.078   0.974   2.413  0.00  0.00    -0.020 C 
BRANCH  18  19
ATOM     19  C   UNL     1      -0.278  -0.515   2.527  0.00  0.00    -0.059 A 
ATOM     20  C   UNL     1      -1.464  -1.087   2.106  0.00  0.00    +0.003 A 
ATOM     21  C   UNL     1      -1.646  -2.454   2.204  0.00  0.00    +0.020 A 
ATOM     22  C   UNL     1      -0.645  -3.248   2.735  0.00  0.00    +0.041 A 
ATOM     23  C   UNL     1       0.540  -2.675   3.161  0.00  0.00    +0.020 A 
ATOM     24  C   UNL     1       0.722  -1.309   3.057  0.00  0.00    +0.003 A 
ATOM     25 CL   UNL     1      -0.875  -4.964   2.866  0.00  0.00    -0.084 Cl
ENDBRANCH  18  19
BRANCH  18  26
ATOM     26  N   UNL     1      -0.169   1.374   1.003  0.00  0.00    +0.385 N 
ATOM     27  C   UNL     1      -1.552   1.708   0.639  0.00  0.00    -0.078 C 
ATOM     28  C   UNL     1      -1.585   2.258  -0.789  0.00  0.00    -0.019 C 
ATOM     29  C   UNL     1      -1.025   1.205  -1.750  0.00  0.00    -0.004 C 
ATOM     30  C   UNL     1       0.398   0.839  -1.319  0.00  0.00    -0.019 C 
ATOM     31  C   UNL     1       0.375   0.331   0.124  0.00  0.00    -0.078 C 
ATOM     32  H   UNL     1       0.442   2.279   0.867  0.00  0.00    -0.081 HD
ENDBRANCH  18  26
ENDBRANCH  17  18
ENDBRANCH   3  17
TORSDOF 6
