REMARK  Name = ZINC38610590
REMARK  5 active torsions:
REMARK  status: ('A' for Active; 'I' for Inactive)
REMARK    1  A    between atoms: C_1  and  O_2
REMARK    2  A    between atoms: O_2  and  C_3
REMARK    3  A    between atoms: C_3  and  C_5
REMARK    4  A    between atoms: C_7  and  N_15
REMARK    5  A    between atoms: C_16  and  C_18
REMARK                            x       y       z     vdW  Elec       q    Type
REMARK                         _______ _______ _______ _____ _____    ______ ____
ROOT
ATOM      1  N   UNL     1       0.013  -2.480   2.397  0.00  0.00    -0.286 N 
ATOM      2  C   UNL     1       0.005  -3.129   3.578  0.00  0.00    +0.223 C 
ATOM      3  O   UNL     1      -0.871  -3.931   3.823  0.00  0.00    -0.275 OA
ATOM      4  H   UNL     1       0.758  -1.902   2.167  0.00  0.00    +0.155 HD
ENDROOT
BRANCH   2   5
ATOM      5  C   UNL     1       1.085  -2.859   4.594  0.00  0.00    +0.049 C 
ATOM      6  C   UNL     1       1.058  -1.380   4.985  0.00  0.00    +0.019 C 
ATOM      7  C   UNL     1       2.154  -1.105   6.017  0.00  0.00    -0.008 C 
ATOM      8  C   UNL     1       1.913  -1.965   7.259  0.00  0.00    +0.007 C 
ATOM      9  C   UNL     1       1.940  -3.444   6.868  0.00  0.00    -0.008 C 
ATOM     10  C   UNL     1       0.844  -3.719   5.836  0.00  0.00    +0.019 C 
ATOM     11  C   UNL     1       3.304  -3.788   6.267  0.00  0.00    +0.026 C 
ATOM     12  C   UNL     1       3.545  -2.928   5.025  0.00  0.00    +0.047 C 
ATOM     13  C   UNL     1       3.518  -1.449   5.416  0.00  0.00    +0.026 C 
ATOM     14  C   UNL     1       2.449  -3.202   3.993  0.00  0.00    +0.039 C 
ATOM     15 CL   UNL     1       5.153  -3.333   4.316  0.00  0.00    -0.118 Cl
ENDBRANCH   2   5
BRANCH   1  17
ATOM     16  C   UNL     1      -2.186  -3.595   1.655  0.00  0.00    +0.234 C 
ATOM     17  C   UNL     1      -1.024  -2.635   1.528  0.00  0.00    +0.053 C 
ATOM     18  C   UNL     1      -1.232  -1.948   0.344  0.00  0.00    +0.018 A 
ATOM     19  C   UNL     1      -0.497  -0.931  -0.311  0.00  0.00    +0.011 A 
ATOM     20  C   UNL     1      -0.947  -0.429  -1.488  0.00  0.00    +0.001 A 
ATOM     21  C   UNL     1      -2.127  -0.890  -2.078  0.00  0.00    +0.002 A 
ATOM     22  C   UNL     1      -2.881  -1.861  -1.508  0.00  0.00    +0.026 A 
ATOM     23  C   UNL     1      -2.476  -2.437  -0.275  0.00  0.00    +0.045 A 
ATOM     24  N   UNL     1      -3.023  -3.377   0.471  0.00  0.00    -0.367 N 
ATOM     25  H   UNL     1      -3.847  -3.848   0.269  0.00  0.00    +0.161 HD
BRANCH  16  26
ATOM     26  C   UNL     1      -1.685  -5.016   1.681  0.00  0.00    +0.335 C 
ATOM     27  O   UNL     1      -1.307  -5.542   0.661  0.00  0.00    -0.248 OA
BRANCH  26  29
ATOM     28  C   UNL     1      -1.172  -7.040   2.788  0.00  0.00    +0.280 C 
ATOM     29  O   UNL     1      -1.659  -5.697   2.837  0.00  0.00    -0.466 OA
ENDBRANCH  26  29
ENDBRANCH  16  26
ENDBRANCH   1  17
TORSDOF 4
