REMARK  Name = ZINC64981101
REMARK  6 active torsions:
REMARK  status: ('A' for Active; 'I' for Inactive)
REMARK    1  A    between atoms: C_4  and  N_7
REMARK    2  A    between atoms: C_8  and  N_15
REMARK    3  A    between atoms: C_9  and  C_13
REMARK    4  A    between atoms: C_16  and  C_18
REMARK    5  A    between atoms: C_18  and  S_19
REMARK    6  A    between atoms: S_19  and  C_20
REMARK                            x       y       z     vdW  Elec       q    Type
REMARK                         _______ _______ _______ _____ _____    ______ ____
ROOT
ATOM      1  N   UNL     1       2.587  -2.867   0.058  0.00  0.00    -0.192 NA
ATOM      2  C   UNL     1       2.710  -4.155   0.216  0.00  0.00    +0.258 C 
ATOM      3  O   UNL     1       3.926  -4.696   0.424  0.00  0.00    -0.270 OA
ENDROOT
BRANCH   1   5
ATOM      4  N   UNL     1       3.912  -1.108   0.907  0.00  0.00    -0.281 N 
ATOM      5  C   UNL     1       3.694  -2.082  -0.011  0.00  0.00    +0.167 A 
ATOM      6  C   UNL     1       4.627  -2.261  -1.023  0.00  0.00    +0.134 A 
ATOM      7  S   UNL     1       5.826  -0.998  -0.628  0.00  0.00    -0.049 S 
ATOM      8  C   UNL     1       5.017  -0.333   0.818  0.00  0.00    +0.133 A 
ATOM      9  S   UNL     1       5.515   0.952   1.834  0.00  0.00    -0.024 S 
BRANCH   4  13
ATOM     10  C   UNL     1       1.169  -0.489   3.983  0.00  0.00    +0.000 A 
ATOM     11  C   UNL     1       1.317   0.461   2.989  0.00  0.00    +0.002 A 
ATOM     12  C   UNL     1       2.225   0.259   1.968  0.00  0.00    +0.026 A 
ATOM     13  C   UNL     1       2.990  -0.899   1.941  0.00  0.00    +0.050 A 
ATOM     14  C   UNL     1       2.840  -1.851   2.941  0.00  0.00    +0.026 A 
ATOM     15  C   UNL     1       1.930  -1.644   3.959  0.00  0.00    +0.002 A 
ENDBRANCH   4  13
BRANCH   6  16
ATOM     16  C   UNL     1       4.627  -3.207  -2.098  0.00  0.00    +0.110 C 
ATOM     17  N   UNL     1       4.628  -3.958  -2.950  0.00  0.00    -0.190 NA
ENDBRANCH   6  16
ENDBRANCH   1   5
BRANCH   2  18
ATOM     18  C   UNL     1       1.491  -5.040   0.166  0.00  0.00    +0.178 C 
BRANCH  18  19
ATOM     19  S   UNL     1       0.017  -4.024  -0.126  0.00  0.00    -0.078 S 
BRANCH  19  20
ATOM     20  C   UNL     1      -1.304  -5.189  -0.158  0.00  0.00    +0.171 A 
ATOM     21  N   UNL     1      -1.041  -6.466   0.021  0.00  0.00    -0.185 NA
ATOM     22  C   UNL     1      -1.994  -7.402   0.008  0.00  0.00    +0.282 A 
ATOM     23  O   UNL     1      -1.708  -8.577   0.179  0.00  0.00    -0.265 OA
ATOM     24  C   UNL     1      -3.404  -6.999  -0.215  0.00  0.00    +0.075 A 
ATOM     25  C   UNL     1      -4.598  -7.843  -0.269  0.00  0.00    -0.023 A 
ATOM     26  C   UNL     1      -5.775  -7.223  -0.487  0.00  0.00    -0.004 A 
ATOM     27  S   UNL     1      -5.365  -5.504  -0.630  0.00  0.00    -0.075 S 
ATOM     28  C   UNL     1      -3.612  -5.632  -0.396  0.00  0.00    +0.092 A 
ATOM     29  N   UNL     1      -2.578  -4.747  -0.362  0.00  0.00    -0.328 N 
ATOM     30  C   UNL     1      -7.130  -7.854  -0.588  0.00  0.00    +0.043 C 
ATOM     31  C   UNL     1      -6.947  -9.367  -0.775  0.00  0.00    +0.005 C 
ATOM     32  C   UNL     1      -5.934  -9.870   0.258  0.00  0.00    +0.005 C 
ATOM     33  C   UNL     1      -4.537  -9.358  -0.090  0.00  0.00    +0.037 C 
ATOM     34  H   UNL     1      -2.747  -3.800  -0.486  0.00  0.00    +0.168 HD
ENDBRANCH  19  20
ENDBRANCH  18  19
ENDBRANCH   2  18
TORSDOF 6
