REMARK  Name = ZINC13978951
REMARK  9 active torsions:
REMARK  status: ('A' for Active; 'I' for Inactive)
REMARK    1  A    between atoms: C_1  and  C_2
REMARK    2  A    between atoms: C_2  and  C_3
REMARK    3  A    between atoms: C_2  and  C_4
REMARK    4  A    between atoms: C_2  and  C_5
REMARK    5  A    between atoms: C_8  and  C_11
REMARK    6  A    between atoms: N_13  and  N_14
REMARK    7  A    between atoms: N_14  and  C_15
REMARK    8  A    between atoms: C_15  and  N_17
REMARK    9  A    between atoms: C_18  and  C_20
REMARK                            x       y       z     vdW  Elec       q    Type
REMARK                         _______ _______ _______ _____ _____    ______ ____
ROOT
ATOM      1  N   UNL     1      -0.017   1.397   0.010  0.00  0.00    -0.245 N 
ATOM      2  H   UNL     1      -0.864   1.870   0.016  0.00  0.00    +0.172 HD
ENDROOT
BRANCH   1   5
ATOM      3  C   UNL     1      -1.156  -0.694   0.009  0.00  0.00    +0.260 C 
ATOM      4  O   UNL     1      -2.217  -0.100   0.023  0.00  0.00    -0.269 OA
ATOM      5  N   UNL     1       0.002  -0.004   0.002  0.00  0.00    -0.231 N 
ATOM      6  H   UNL     1       0.849  -0.478  -0.009  0.00  0.00    +0.173 HD
BRANCH   3  10
ATOM      7  C   UNL     1      -1.098  -4.941  -0.014  0.00  0.00    -0.042 A 
ATOM      8  C   UNL     1      -2.307  -4.269   0.001  0.00  0.00    +0.005 A 
ATOM      9  C   UNL     1      -2.333  -2.889   0.009  0.00  0.00    +0.013 A 
ATOM     10  C   UNL     1      -1.136  -2.172   0.001  0.00  0.00    +0.038 A 
ATOM     11  C   UNL     1       0.081  -2.856  -0.020  0.00  0.00    +0.013 A 
ATOM     12  C   UNL     1       0.092  -4.236  -0.021  0.00  0.00    +0.005 A 
BRANCH   7  14
ATOM     13  C   UNL     1      -1.804  -6.960  -1.268  0.00  0.00    +0.015 C 
ATOM     14  C   UNL     1      -1.078  -6.448  -0.023  0.00  0.00    -0.013 C 
ATOM     15  C   UNL     1       0.371  -6.938  -0.040  0.00  0.00    +0.015 C 
ATOM     16  C   UNL     1      -1.780  -6.975   1.230  0.00  0.00    +0.015 C 
ENDBRANCH   7  14
ENDBRANCH   3  10
ENDBRANCH   1   5
BRANCH   1  17
ATOM     17  C   UNL     1       1.141   2.087   0.002  0.00  0.00    +0.153 C 
ATOM     18  S   UNL     1       1.118   3.798   0.012  0.00  0.00    -0.017 S 
BRANCH  17  19
ATOM     19  N   UNL     1       2.317   1.429  -0.012  0.00  0.00    -0.262 N 
ATOM     20  C   UNL     1       3.475   2.118  -0.020  0.00  0.00    +0.258 C 
ATOM     21  O   UNL     1       3.459   3.335  -0.013  0.00  0.00    -0.269 OA
ATOM     22  H   UNL     1       2.330   0.459  -0.018  0.00  0.00    +0.157 HD
BRANCH  20  23
ATOM     23  C   UNL     1       4.755   1.402  -0.036  0.00  0.00    +0.094 A 
ATOM     24  C   UNL     1       6.016   1.917  -0.051  0.00  0.00    +0.068 A 
ATOM     25  C   UNL     1       7.126   1.053  -0.060  0.00  0.00    +0.008 A 
ATOM     26  C   UNL     1       8.504   1.393  -0.071  0.00  0.00    +0.010 A 
ATOM     27  C   UNL     1       9.457   0.426  -0.086  0.00  0.00    +0.001 A 
ATOM     28  C   UNL     1       9.127  -0.924  -0.091  0.00  0.00    +0.001 A 
ATOM     29  C   UNL     1       7.799  -1.299  -0.080  0.00  0.00    +0.016 A 
ATOM     30  C   UNL     1       6.819  -0.329  -0.065  0.00  0.00    +0.021 A 
ATOM     31  S   UNL     1       5.045  -0.359  -0.049  0.00  0.00    -0.082 S 
ATOM     32 CL   UNL     1       6.252   3.637  -0.052  0.00  0.00    -0.082 Cl
ENDBRANCH  20  23
ENDBRANCH  17  19
ENDBRANCH   1  17
TORSDOF 6
