REMARK  Name = ZINC09298597
REMARK  7 active torsions:
REMARK  status: ('A' for Active; 'I' for Inactive)
REMARK    1  A    between atoms: C_1  and  C_2
REMARK    2  A    between atoms: C_2  and  C_3
REMARK    3  A    between atoms: C_18  and  C_20
REMARK    4  A    between atoms: C_25  and  N_26
REMARK    5  A    between atoms: N_26  and  S_27
REMARK    6  A    between atoms: S_27  and  C_30
REMARK    7  A    between atoms: C_33  and  C_36
REMARK                            x       y       z     vdW  Elec       q    Type
REMARK                         _______ _______ _______ _____ _____    ______ ____
ROOT
ATOM      1  C   UNL     1       2.984  -0.740  -2.953  0.00  0.00    -0.021 A 
ATOM      2  C   UNL     1       3.109   0.417  -3.678  0.00  0.00    +0.006 A 
ATOM      3  C   UNL     1       2.012   1.022  -4.274  0.00  0.00    +0.001 A 
ATOM      4  C   UNL     1       0.762   0.446  -4.133  0.00  0.00    +0.017 A 
ATOM      5  C   UNL     1       0.628  -0.712  -3.410  0.00  0.00    +0.041 A 
ATOM      6  C   UNL     1       1.722  -1.356  -2.790  0.00  0.00    +0.083 A 
ATOM      7  N   UNL     1       1.429  -2.488  -2.112  0.00  0.00    -0.224 NA
ATOM      8  C   UNL     1       0.207  -2.964  -2.031  0.00  0.00    +0.162 A 
ATOM      9  S   UNL     1      -0.731  -1.772  -2.977  0.00  0.00    -0.052 S 
ATOM     10  N   UNL     1      -0.238  -4.097  -1.381  0.00  0.00    -0.307 N 
ATOM     11  C   UNL     1       0.488  -5.288  -1.840  0.00  0.00    +0.126 C 
ATOM     12  C   UNL     1       0.095  -6.488  -0.972  0.00  0.00    +0.127 C 
ATOM     13  N   UNL     1      -1.370  -6.612  -0.981  0.00  0.00    -0.294 N 
ATOM     14  C   UNL     1      -2.171  -5.419  -0.664  0.00  0.00    +0.127 C 
ATOM     15  C   UNL     1      -1.689  -4.261  -1.544  0.00  0.00    +0.126 C 
ATOM     16  C   UNL     1      -1.964  -7.787  -1.271  0.00  0.00    +0.249 C 
ATOM     17  O   UNL     1      -1.288  -8.747  -1.586  0.00  0.00    -0.270 OA
ENDROOT
BRANCH  16  18
ATOM     18  C   UNL     1      -3.432  -7.907  -1.207  0.00  0.00    +0.059 A 
ATOM     19  C   UNL     1      -4.151  -7.216  -0.228  0.00  0.00    +0.015 A 
ATOM     20  C   UNL     1      -5.523  -7.328  -0.177  0.00  0.00    +0.001 A 
ATOM     21  C   UNL     1      -6.195  -8.132  -1.085  0.00  0.00    +0.002 A 
ATOM     22  C   UNL     1      -5.498  -8.824  -2.054  0.00  0.00    +0.025 A 
ATOM     23  C   UNL     1      -4.114  -8.719  -2.125  0.00  0.00    +0.060 A 
BRANCH  23  24
ATOM     24  N   UNL     1      -3.411  -9.415  -3.099  0.00  0.00    -0.216 N 
ATOM     25  H   UNL     1      -2.489  -9.673  -2.941  0.00  0.00    +0.174 HD
BRANCH  24  26
ATOM     26  S   UNL     1      -4.146  -9.806  -4.531  0.00  0.00    +0.072 S 
ATOM     27  O   UNL     1      -3.142 -10.375  -5.360  0.00  0.00    -0.150 OA
ATOM     28  O   UNL     1      -5.341 -10.498  -4.199  0.00  0.00    -0.150 OA
BRANCH  26  29
ATOM     29  C   UNL     1      -4.633  -8.295  -5.295  0.00  0.00    +0.109 A 
ATOM     30  C   UNL     1      -5.884  -7.764  -5.041  0.00  0.00    +0.029 A 
ATOM     31  C   UNL     1      -6.265  -6.577  -5.637  0.00  0.00    +0.005 A 
ATOM     32  C   UNL     1      -5.399  -5.925  -6.495  0.00  0.00    -0.050 A 
ATOM     33  C   UNL     1      -4.150  -6.458  -6.753  0.00  0.00    +0.005 A 
ATOM     34  C   UNL     1      -3.767  -7.644  -6.153  0.00  0.00    +0.029 A 
ATOM     35  C   UNL     1      -5.816  -4.633  -7.149  0.00  0.00    +0.044 C 
ENDBRANCH  26  29
ENDBRANCH  24  26
ENDBRANCH  23  24
ENDBRANCH  16  18
BRANCH   1  37
ATOM     36  C   UNL     1       4.768  -2.435  -3.257  0.00  0.00    +0.009 C 
ATOM     37  C   UNL     1       4.204  -1.361  -2.324  0.00  0.00    +0.034 C 
ENDBRANCH   1  37
TORSDOF 5
