REMARK  Name = ZINC10959916
REMARK  6 active torsions:
REMARK  status: ('A' for Active; 'I' for Inactive)
REMARK    1  A    between atoms: C_12  and  C_18
REMARK    2  A    between atoms: C_13  and  N_17
REMARK    3  A    between atoms: C_18  and  O_20
REMARK    4  A    between atoms: O_20  and  C_21
REMARK    5  A    between atoms: C_21  and  C_22
REMARK    6  A    between atoms: N_24  and  C_25
REMARK                            x       y       z     vdW  Elec       q    Type
REMARK                         _______ _______ _______ _____ _____    ______ ____
ROOT
ATOM      1  C   UNL     1     -14.919   2.641   8.368  0.00  0.00    +0.001 A 
ATOM      2  C   UNL     1     -15.569   1.929   7.377  0.00  0.00    +0.001 A 
ATOM      3  C   UNL     1     -14.873   1.470   6.272  0.00  0.00    +0.012 A 
ATOM      4  C   UNL     1     -13.510   1.726   6.155  0.00  0.00    +0.033 A 
ATOM      5  C   UNL     1     -12.849   2.450   7.163  0.00  0.00    +0.033 A 
ATOM      6  C   UNL     1     -13.564   2.904   8.268  0.00  0.00    +0.012 A 
ATOM      7  C   UNL     1     -11.402   2.726   7.046  0.00  0.00    +0.195 C 
ATOM      8  O   UNL     1     -10.830   3.351   7.917  0.00  0.00    -0.287 OA
ATOM      9  C   UNL     1     -10.651   2.239   5.867  0.00  0.00    +0.035 A 
ATOM     10  C   UNL     1      -9.288   2.496   5.753  0.00  0.00    +0.013 A 
ATOM     11  C   UNL     1      -8.580   2.044   4.655  0.00  0.00    +0.017 A 
ATOM     12  C   UNL     1      -9.223   1.325   3.648  0.00  0.00    +0.080 A 
ATOM     13  C   UNL     1     -10.602   1.059   3.745  0.00  0.00    +0.050 A 
ATOM     14  C   UNL     1     -11.316   1.515   4.862  0.00  0.00    +0.054 A 
ATOM     15  C   UNL     1     -12.758   1.240   4.979  0.00  0.00    +0.196 C 
ATOM     16  O   UNL     1     -13.331   0.614   4.107  0.00  0.00    -0.287 OA
ENDROOT
BRANCH  13  17
ATOM     17  N   UNL     1     -11.244   0.353   2.749  0.00  0.00    -0.357 N 
ATOM     18  H   UNL     1     -10.772  -0.343   2.266  0.00  0.00    +0.142 HD
ATOM     19  H   UNL     1     -12.169   0.551   2.533  0.00  0.00    +0.142 HD
ENDBRANCH  13  17
BRANCH  12  20
ATOM     20  C   UNL     1      -8.459   0.847   2.480  0.00  0.00    +0.341 C 
ATOM     21  O   UNL     1      -9.007   0.173   1.631  0.00  0.00    -0.245 OA
BRANCH  20  22
ATOM     22  O   UNL     1      -7.154   1.157   2.355  0.00  0.00    -0.452 OA
BRANCH  22  23
ATOM     23  C   UNL     1      -6.466   0.653   1.181  0.00  0.00    +0.328 C 
BRANCH  23  24
ATOM     24  C   UNL     1      -5.027   1.098   1.212  0.00  0.00    +0.251 C 
ATOM     25  O   UNL     1      -4.621   1.773   2.134  0.00  0.00    -0.272 OA
ATOM     26  N   UNL     1      -4.190   0.745   0.216  0.00  0.00    -0.307 N 
ATOM     27  H   UNL     1      -4.515   0.205  -0.521  0.00  0.00    +0.149 HD
BRANCH  26  28
ATOM     28  C   UNL     1      -2.791   1.177   0.246  0.00  0.00    +0.035 C 
ATOM     29  C   UNL     1      -2.066   0.646  -0.992  0.00  0.00    +0.029 C 
ATOM     30  C   UNL     1      -0.604   1.098  -0.959  0.00  0.00    -0.008 C 
ATOM     31  C   UNL     1       0.071   0.552   0.300  0.00  0.00    +0.007 C 
ATOM     32  C   UNL     1      -0.654   1.083   1.538  0.00  0.00    -0.008 C 
ATOM     33  C   UNL     1      -2.116   0.631   1.506  0.00  0.00    +0.029 C 
ATOM     34  C   UNL     1      -0.593   2.612   1.549  0.00  0.00    +0.007 C 
ATOM     35  C   UNL     1      -1.268   3.158   0.289  0.00  0.00    -0.008 C 
ATOM     36  C   UNL     1      -0.543   2.626  -0.949  0.00  0.00    +0.007 C 
ATOM     37  C   UNL     1      -2.729   2.706   0.257  0.00  0.00    +0.029 C 
ENDBRANCH  26  28
ENDBRANCH  23  24
ENDBRANCH  22  23
ENDBRANCH  20  22
ENDBRANCH  12  20
TORSDOF 6
