REMARK  Name = ZINC09137926
REMARK  7 active torsions:
REMARK  status: ('A' for Active; 'I' for Inactive)
REMARK    1  A    between atoms: C_1  and  N_2
REMARK    2  A    between atoms: C_10  and  C_12
REMARK    3  A    between atoms: C_12  and  C_14
REMARK    4  A    between atoms: C_12  and  N_61
REMARK    5  A    between atoms: C_14  and  N_15
REMARK    6  A    between atoms: C_16  and  C_18
REMARK    7  A    between atoms: C_22  and  N_24
REMARK                            x       y       z     vdW  Elec       q    Type
REMARK                         _______ _______ _______ _____ _____    ______ ____
ROOT
ATOM      1  C   UNL     1       2.877  -2.271   4.219  0.00  0.00    -0.020 C 
ENDROOT
BRANCH   1  11
ATOM      2  C   UNL     1      -1.109   1.221   0.782  0.00  0.00    +0.129 C 
ATOM      3  N   UNL     1       0.320   1.124   0.458  0.00  0.00    -0.333 N 
ATOM      4  C   UNL     1       0.916   2.454   0.312  0.00  0.00    +0.105 C 
ATOM      5  C   UNL     1       2.410   2.291   0.004  0.00  0.00    +0.024 C 
ATOM      6  C   UNL     1       3.090   1.726   1.254  0.00  0.00    +0.038 C 
ATOM      7  C   UNL     1       2.292   0.562   1.783  0.00  0.00    -0.026 A 
ATOM      8  C   UNL     1       0.989   0.322   1.382  0.00  0.00    +0.033 A 
ATOM      9  C   UNL     1       0.297  -0.767   1.915  0.00  0.00    +0.023 A 
ATOM     10  C   UNL     1       0.905  -1.600   2.829  0.00  0.00    +0.004 A 
ATOM     11  C   UNL     1       2.209  -1.360   3.222  0.00  0.00    -0.059 A 
ATOM     12  C   UNL     1       2.897  -0.282   2.700  0.00  0.00    +0.007 A 
ENDBRANCH   1  11
BRANCH   1  18
ATOM     13  C   UNL     1       3.505  -3.469   2.211  0.00  0.00    -0.078 C 
ATOM     14  C   UNL     1       3.849  -4.853   1.656  0.00  0.00    -0.019 C 
ATOM     15  C   UNL     1       2.620  -5.760   1.760  0.00  0.00    -0.004 C 
ATOM     16  C   UNL     1       2.171  -5.833   3.222  0.00  0.00    -0.019 C 
ATOM     17  C   UNL     1       1.875  -4.421   3.731  0.00  0.00    -0.078 C 
ATOM     18  N   UNL     1       3.105  -3.606   3.628  0.00  0.00    +0.385 N 
ATOM     19  H   UNL     1       3.859  -4.074   4.143  0.00  0.00    -0.081 HD
ENDBRANCH   1  18
BRANCH   1  20
ATOM     20  C   UNL     1       1.989  -2.411   5.457  0.00  0.00    +0.094 C 
BRANCH  20  21
ATOM     21  N   UNL     1       2.677  -3.225   6.462  0.00  0.00    -0.313 N 
ATOM     22  C   UNL     1       2.046  -3.563   7.604  0.00  0.00    +0.244 C 
ATOM     23  O   UNL     1       0.905  -3.192   7.800  0.00  0.00    -0.270 OA
ATOM     24  H   UNL     1       3.588  -3.522   6.306  0.00  0.00    +0.149 HD
BRANCH  22  25
ATOM     25  C   UNL     1       2.740  -4.384   8.618  0.00  0.00    +0.039 A 
ATOM     26  C   UNL     1       4.049  -4.816   8.393  0.00  0.00    +0.014 A 
ATOM     27  C   UNL     1       4.693  -5.578   9.344  0.00  0.00    +0.023 A 
ATOM     28  C   UNL     1       4.041  -5.923  10.517  0.00  0.00    +0.071 A 
ATOM     29  C   UNL     1       2.742  -5.502  10.743  0.00  0.00    +0.145 A 
ATOM     30  C   UNL     1       2.088  -4.735   9.801  0.00  0.00    +0.047 A 
ATOM     31 CL   UNL     1       4.857  -6.888  11.707  0.00  0.00    -0.081 Cl
BRANCH  29  32
ATOM     32  N   UNL     1       2.052  -5.874  11.999  0.00  0.00    +0.058 N 
ATOM     33  O   UNL     1       0.909  -5.504  12.200  0.00  0.00    -0.126 OA
ATOM     34  O   UNL     1       2.628  -6.552  12.832  0.00  0.00    -0.126 OA
ENDBRANCH  29  32
ENDBRANCH  22  25
ENDBRANCH  20  21
ENDBRANCH   1  20
TORSDOF 6
