REMARK  Name = ZINC40576749
REMARK  6 active torsions:
REMARK  status: ('A' for Active; 'I' for Inactive)
REMARK    1  A    between atoms: C_1  and  C_2
REMARK    2  A    between atoms: C_5  and  N_11
REMARK    3  A    between atoms: C_6  and  C_8
REMARK    4  A    between atoms: N_14  and  C_15
REMARK    5  A    between atoms: C_15  and  C_17
REMARK    6  A    between atoms: C_15  and  C_18
REMARK                            x       y       z     vdW  Elec       q    Type
REMARK                         _______ _______ _______ _____ _____    ______ ____
ROOT
ATOM      1  N   UNL     1       0.037  -4.014  -0.062  0.00  0.00    -0.269 N 
ATOM      2  C   UNL     1      -0.100  -4.625  -1.256  0.00  0.00    +0.304 C 
ATOM      3  O   UNL     1      -0.136  -3.964  -2.276  0.00  0.00    -0.252 OA
ATOM      4  N   UNL     1      -0.196  -5.968  -1.319  0.00  0.00    -0.292 N 
ATOM      5  H   UNL     1       0.149  -4.544   0.743  0.00  0.00    +0.156 HD
ATOM      6  H   UNL     1      -0.167  -6.495  -0.506  0.00  0.00    +0.151 HD
ENDROOT
BRANCH   1  11
ATOM      7  C   UNL     1      -0.056   1.653   0.243  0.00  0.00    +0.044 C 
ATOM      8  C   UNL     1      -0.026   0.148   0.170  0.00  0.00    -0.050 A 
ATOM      9  C   UNL     1      -0.657  -0.504  -0.877  0.00  0.00    +0.005 A 
ATOM     10  C   UNL     1      -0.638  -1.881  -0.957  0.00  0.00    +0.024 A 
ATOM     11  C   UNL     1       0.017  -2.625   0.016  0.00  0.00    +0.049 A 
ATOM     12  C   UNL     1       0.658  -1.968   1.079  0.00  0.00    +0.085 A 
ATOM     13  C   UNL     1       0.633  -0.571   1.142  0.00  0.00    +0.020 A 
BRANCH  12  14
ATOM     14  C   UNL     1       1.354  -2.744   2.116  0.00  0.00    +0.388 C 
ATOM     15  O   UNL     1       1.828  -2.176   3.091  0.00  0.00    -0.241 OA
ATOM     16  O   UNL     1       1.461  -3.958   2.005  0.00  0.00    -0.241 OA
ENDBRANCH  12  14
ENDBRANCH   1  11
BRANCH   4  17
ATOM     17  C   UNL     1      -0.344  -6.631  -2.617  0.00  0.00    +0.108 C 
ATOM     18  C   UNL     1       1.036  -6.846  -3.240  0.00  0.00    +0.033 C 
BRANCH  17  19
ATOM     19  C   UNL     1      -1.023  -7.963  -2.426  0.00  0.00    +0.010 A 
ATOM     20  C   UNL     1      -1.964  -8.559  -3.197  0.00  0.00    +0.013 A 
ATOM     21  C   UNL     1      -2.450  -9.799  -2.824  0.00  0.00    +0.008 A 
ATOM     22  C   UNL     1      -1.969 -10.381  -1.698  0.00  0.00    +0.045 A 
ATOM     23  S   UNL     1      -0.789  -9.168  -1.130  0.00  0.00    -0.100 S 
ENDBRANCH  17  19
ENDBRANCH   4  17
TORSDOF 4
