REMARK  Name = ZINC01877178
REMARK  13 active torsions:
REMARK  status: ('A' for Active; 'I' for Inactive)
REMARK    1  A    between atoms: C_1  and  C_2
REMARK    2  A    between atoms: C_2  and  C_3
REMARK    3  A    between atoms: C_2  and  C_4
REMARK    4  A    between atoms: C_4  and  C_5
REMARK    5  A    between atoms: N_7  and  C_8
REMARK    6  A    between atoms: C_8  and  C_32
REMARK    7  A    between atoms: N_17  and  C_20
REMARK    8  A    between atoms: C_20  and  C_21
REMARK    9  A    between atoms: C_21  and  C_22
REMARK   10  A    between atoms: C_25  and  O_30
REMARK   11  A    between atoms: C_26  and  O_28
REMARK   12  A    between atoms: O_28  and  C_29
REMARK   13  A    between atoms: O_30  and  C_31
REMARK                            x       y       z     vdW  Elec       q    Type
REMARK                         _______ _______ _______ _____ _____    ______ ____
ROOT
ATOM      1  C   UNL     1      -2.558  -4.183  -0.262  0.00  0.00    +0.240 C 
ATOM      2  C   UNL     1      -3.955  -4.741  -0.150  0.00  0.00    +0.098 A 
ATOM      3  C   UNL     1      -3.959  -5.574   0.956  0.00  0.00    +0.144 A 
ATOM      4  N   UNL     1      -5.099  -6.205   1.282  0.00  0.00    -0.177 NA
ATOM      5  C   UNL     1      -6.194  -6.046   0.576  0.00  0.00    +0.350 A 
ATOM      6  N   UNL     1      -6.233  -5.239  -0.516  0.00  0.00    -0.273 N 
ATOM      7  C   UNL     1      -5.119  -4.575  -0.898  0.00  0.00    +0.262 A 
ATOM      8  O   UNL     1      -5.133  -3.844  -1.876  0.00  0.00    -0.267 OA
ATOM      9  O   UNL     1      -7.312  -6.704   0.945  0.00  0.00    -0.245 OA
ATOM     10  N   UNL     1      -2.710  -5.594   1.547  0.00  0.00    -0.253 N 
ATOM     11  C   UNL     1      -1.825  -4.811   0.906  0.00  0.00    +0.258 C 
ATOM     12  O   UNL     1      -0.662  -4.641   1.205  0.00  0.00    -0.272 OA
ATOM     13  H   UNL     1      -7.056  -5.140  -1.019  0.00  0.00    +0.173 HD
ENDROOT
BRANCH   1  16
ATOM     14  C   UNL     1      -1.416  -2.035  -0.119  0.00  0.00    +0.214 C 
ATOM     15  O   UNL     1      -0.359  -2.623  -0.213  0.00  0.00    -0.276 OA
ATOM     16  N   UNL     1      -2.574  -2.724  -0.133  0.00  0.00    -0.291 N 
ATOM     17  H   UNL     1      -3.419  -2.253  -0.058  0.00  0.00    +0.150 HD
BRANCH  14  18
ATOM     18  C   UNL     1      -1.433  -0.534   0.013  0.00  0.00    +0.098 C 
BRANCH  18  20
ATOM     19  C   UNL     1      -0.019   1.526   0.010  0.00  0.00    +0.008 C 
ATOM     20  C   UNL     1       0.002  -0.004   0.002  0.00  0.00    -0.008 C 
ATOM     21  C   UNL     1       0.742  -0.511   1.242  0.00  0.00    +0.008 C 
ENDBRANCH  18  20
ENDBRANCH  14  18
ENDBRANCH   1  16
BRANCH   1  22
ATOM     22  C   UNL     1      -1.914  -4.597  -1.586  0.00  0.00    +0.424 C 
ATOM     23  F   UNL     1      -0.604  -4.108  -1.641  0.00  0.00    -0.167 F 
ATOM     24  F   UNL     1      -1.894  -5.993  -1.679  0.00  0.00    -0.167 F 
ATOM     25  F   UNL     1      -2.654  -4.069  -2.650  0.00  0.00    -0.167 F 
ENDBRANCH   1  22
BRANCH  10  26
ATOM     26  C   UNL     1      -2.387  -6.381   2.740  0.00  0.00    +0.120 C 
BRANCH  26  27
ATOM     27  C   UNL     1      -1.896  -7.767   2.318  0.00  0.00    +0.054 C 
BRANCH  27  28
ATOM     28  C   UNL     1      -1.563  -8.576   3.546  0.00  0.00    -0.042 A 
ATOM     29  C   UNL     1      -0.287  -8.533   4.075  0.00  0.00    +0.007 A 
ATOM     30  C   UNL     1       0.023  -9.274   5.201  0.00  0.00    +0.049 A 
ATOM     31  C   UNL     1      -0.947 -10.061   5.801  0.00  0.00    +0.161 A 
ATOM     32  C   UNL     1      -2.232 -10.105   5.267  0.00  0.00    +0.162 A 
ATOM     33  C   UNL     1      -2.537  -9.356   4.142  0.00  0.00    +0.053 A 
BRANCH  32  34
ATOM     34  O   UNL     1      -3.187 -10.876   5.853  0.00  0.00    -0.491 OA
ATOM     35  C   UNL     1      -4.483 -10.871   5.251  0.00  0.00    +0.277 C 
ENDBRANCH  32  34
BRANCH  31  36
ATOM     36  O   UNL     1      -0.643 -10.791   6.907  0.00  0.00    -0.491 OA
ATOM     37  C   UNL     1       0.695 -10.698   7.399  0.00  0.00    +0.277 C 
ENDBRANCH  31  36
ENDBRANCH  27  28
ENDBRANCH  26  27
ENDBRANCH  10  26
TORSDOF 9
