REMARK  Name = ZINC04483819
REMARK  2 active torsions:
REMARK  status: ('A' for Active; 'I' for Inactive)
REMARK    1  A    between atoms: C_1  and  C_2
REMARK    2  A    between atoms: C_7  and  N_8
REMARK                            x       y       z     vdW  Elec       q    Type
REMARK                         _______ _______ _______ _____ _____    ______ ____
ROOT
ATOM      1  N   UNL     1       3.585   2.123  -0.022  0.00  0.00    -0.123 N 
ATOM      2  C   UNL     1       4.173   2.575   1.111  0.00  0.00    +0.330 C 
ATOM      3  O   UNL     1       3.604   2.331   2.158  0.00  0.00    -0.250 OA
ATOM      4  N   UNL     1       5.306   3.254   1.192  0.00  0.00    -0.266 N 
ATOM      5  C   UNL     1       6.174   3.679   0.198  0.00  0.00    +0.062 A 
ATOM      6  C   UNL     1       7.329   4.392   0.502  0.00  0.00    +0.025 A 
ATOM      7  C   UNL     1       8.172   4.800  -0.512  0.00  0.00    +0.002 A 
ATOM      8  C   UNL     1       7.886   4.511  -1.834  0.00  0.00    +0.002 A 
ATOM      9  C   UNL     1       6.737   3.801  -2.150  0.00  0.00    +0.031 A 
ATOM     10  C   UNL     1       5.905   3.399  -1.144  0.00  0.00    +0.130 A 
ATOM     11  S   UNL     1       4.416   2.481  -1.438  0.00  0.00    +0.084 S 
ATOM     12  O   UNL     1       4.829   1.229  -1.969  0.00  0.00    -0.149 OA
ATOM     13  O   UNL     1       3.568   3.354  -2.172  0.00  0.00    -0.149 OA
ATOM     14  H   UNL     1       5.572   3.494   2.093  0.00  0.00    +0.156 HD
ENDROOT
BRANCH   1  21
ATOM     15  C   UNL     1       3.709  -0.719  -0.040  0.00  0.00    +0.046 C 
ATOM     16  C   UNL     1       2.396   0.021  -0.022  0.00  0.00    -0.027 A 
ATOM     17  C   UNL     1       1.207  -0.682  -0.014  0.00  0.00    +0.006 A 
ATOM     18  C   UNL     1       0.002  -0.004   0.002  0.00  0.00    +0.020 A 
ATOM     19  C   UNL     1      -0.017   1.380   0.010  0.00  0.00    +0.043 A 
ATOM     20  C   UNL     1       1.170   2.088   0.002  0.00  0.00    +0.045 A 
ATOM     21  C   UNL     1       2.381   1.409  -0.014  0.00  0.00    +0.066 A 
ATOM     22 CL   UNL     1      -1.532   2.227   0.021  0.00  0.00    -0.083 Cl
ENDBRANCH   1  21
TORSDOF 1
