REMARK  Name = ZINC44322955
REMARK  10 active torsions:
REMARK  status: ('A' for Active; 'I' for Inactive)
REMARK    1  A    between atoms: C_1  and  C_2
REMARK    2  A    between atoms: C_2  and  C_3
REMARK    3  A    between atoms: C_6  and  C_9
REMARK    4  A    between atoms: C_14  and  C_15
REMARK    5  A    between atoms: C_15  and  CA_16
REMARK    6  A    between atoms: CA_16  and  C_18
REMARK    7  A    between atoms: CA_16  and  N_21
REMARK    8  A    between atoms: C_22  and  O_24
REMARK    9  A    between atoms: O_24  and  C_25
REMARK   10  A    between atoms: C_25  and  C_26
REMARK                            x       y       z     vdW  Elec       q    Type
REMARK                         _______ _______ _______ _____ _____    ______ ____
ROOT
ATOM      1  CA  UNL     1       5.849  -0.636  -4.021  0.00  0.00    +0.195 C 
ENDROOT
BRANCH   1   2
ATOM      2  N   UNL     1       6.818  -1.409  -4.801  0.00  0.00    -0.267 N 
ATOM      3  C   UNL     1       7.588  -2.333  -4.193  0.00  0.00    +0.401 C 
ATOM      4  O   UNL     1       7.479  -2.525  -2.998  0.00  0.00    -0.226 OA
ATOM      5  H   UNL     1       6.906  -1.257  -5.755  0.00  0.00    +0.153 HD
BRANCH   3   6
ATOM      6  O   UNL     1       8.479  -3.044  -4.910  0.00  0.00    -0.449 OA
BRANCH   6   7
ATOM      7  C   UNL     1       9.262  -4.006  -4.200  0.00  0.00    +0.246 C 
BRANCH   7   8
ATOM      8  C   UNL     1      10.210  -4.710  -5.173  0.00  0.00    +0.088 C 
ATOM      9  C   UNL     1      11.260  -3.744  -5.665  0.00  0.00    -0.029 A 
ATOM     10  C   UNL     1      11.174  -2.563  -6.370  0.00  0.00    +0.005 A 
ATOM     11  C   UNL     1      12.323  -1.865  -6.696  0.00  0.00    +0.000 A 
ATOM     12  C   UNL     1      13.561  -2.351  -6.316  0.00  0.00    +0.001 A 
ATOM     13  C   UNL     1      13.657  -3.532  -5.610  0.00  0.00    +0.009 A 
ATOM     14  C   UNL     1      12.502  -4.242  -5.278  0.00  0.00    -0.014 A 
ATOM     15  C   UNL     1      12.315  -5.515  -4.539  0.00  0.00    -0.014 A 
ATOM     16  C   UNL     1      10.957  -5.813  -4.465  0.00  0.00    -0.029 A 
ATOM     17  C   UNL     1      10.530  -6.956  -3.822  0.00  0.00    +0.005 A 
ATOM     18  C   UNL     1      11.452  -7.812  -3.247  0.00  0.00    +0.000 A 
ATOM     19  C   UNL     1      12.803  -7.524  -3.315  0.00  0.00    +0.001 A 
ATOM     20  C   UNL     1      13.239  -6.384  -3.956  0.00  0.00    +0.009 A 
ENDBRANCH   7   8
ENDBRANCH   6   7
ENDBRANCH   3   6
ENDBRANCH   1   2
BRANCH   1  21
ATOM     21  C   UNL     1       6.536   0.554  -3.403  0.00  0.00    +0.376 C 
ATOM     22  O   UNL     1       6.139   1.005  -2.342  0.00  0.00    -0.244 OA
ATOM     23  OXT UNL     1       7.490   1.067  -3.965  0.00  0.00    -0.244 OA
ENDBRANCH   1  21
BRANCH   1  24
ATOM     24  C   UNL     1       4.723  -0.155  -4.940  0.00  0.00    +0.089 C 
BRANCH  24  30
ATOM     25  C   UNL     1       2.942  -1.312  -6.370  0.00  0.00    +0.023 A 
ATOM     26  C   UNL     1       2.504  -2.637  -6.564  0.00  0.00    +0.143 A 
ATOM     27  N   UNL     1       3.215  -3.416  -5.792  0.00  0.00    -0.181 NA
ATOM     28  H   UNL     1       4.776  -2.949  -4.437  0.00  0.00    +0.189 HD
ATOM     29  N   UNL     1       4.127  -2.627  -5.082  0.00  0.00    -0.281 N 
ATOM     30  C   UNL     1       3.950  -1.343  -5.451  0.00  0.00    +0.046 A 
BRANCH  25  34
ATOM     31  C   UNL     1       1.413   2.149  -8.313  0.00  0.00    -0.048 A 
ATOM     32  C   UNL     1       1.887   1.089  -9.065  0.00  0.00    +0.004 A 
ATOM     33  C   UNL     1       2.384  -0.037  -8.440  0.00  0.00    +0.009 A 
ATOM     34  C   UNL     1       2.409  -0.104  -7.048  0.00  0.00    -0.015 A 
ATOM     35  C   UNL     1       1.931   0.966  -6.296  0.00  0.00    +0.009 A 
ATOM     36  C   UNL     1       1.440   2.089  -6.931  0.00  0.00    +0.004 A 
BRANCH  31  38
ATOM     37  C   UNL     1       2.008   4.372  -9.234  0.00  0.00    +0.009 C 
ATOM     38  C   UNL     1       0.872   3.375  -9.001  0.00  0.00    +0.032 C 
ENDBRANCH  31  38
ENDBRANCH  25  34
ENDBRANCH  24  30
ENDBRANCH   1  24
TORSDOF 9
