REMARK  Name = ZINC64746810
REMARK  10 active torsions:
REMARK  status: ('A' for Active; 'I' for Inactive)
REMARK    1  A    between atoms: C_1  and  C_2
REMARK    2  A    between atoms: C_6  and  C_8
REMARK    3  A    between atoms: C_9  and  N_31
REMARK    4  A    between atoms: N_19  and  C_22
REMARK    5  A    between atoms: C_22  and  C_23
REMARK    6  A    between atoms: C_26  and  C_29
REMARK    7  A    between atoms: N_31  and  C_32
REMARK    8  A    between atoms: C_32  and  C_33
REMARK    9  A    between atoms: C_32  and  C_34
REMARK   10  A    between atoms: C_32  and  C_35
REMARK                            x       y       z     vdW  Elec       q    Type
REMARK                         _______ _______ _______ _____ _____    ______ ____
ROOT
ATOM      1  C   UNL     1       0.212  -3.005   2.840  0.00  0.00    +0.114 A 
ATOM      2  C   UNL     1      -0.548  -4.132   2.945  0.00  0.00    +0.150 A 
ATOM      3  N   UNL     1      -0.634  -4.456   4.290  0.00  0.00    -0.190 N 
ATOM      4  C   UNL     1       0.091  -3.490   4.942  0.00  0.00    +0.199 A 
ATOM      5  N   UNL     1       0.592  -2.643   4.093  0.00  0.00    -0.218 NA
ATOM      6  S   UNL     1      -0.069  -3.974   6.645  0.00  0.00    -0.013 S 
ATOM      7  C   UNL     1      -1.083  -5.421   6.387  0.00  0.00    +0.184 A 
ATOM      8  N   UNL     1      -1.221  -5.433   5.089  0.00  0.00    -0.140 NA
ATOM      9  N   UNL     1      -1.593  -6.305   7.324  0.00  0.00    -0.306 N 
ATOM     10  C   UNL     1      -2.412  -7.455   6.910  0.00  0.00    +0.122 C 
ATOM     11  C   UNL     1      -3.704  -7.454   7.734  0.00  0.00    +0.103 C 
ATOM     12  N   UNL     1      -3.369  -7.412   9.164  0.00  0.00    -0.295 NA
ATOM     13  C   UNL     1      -2.664  -6.170   9.510  0.00  0.00    +0.103 C 
ATOM     14  C   UNL     1      -1.324  -6.122   8.758  0.00  0.00    +0.122 C 
ENDROOT
BRANCH   1  20
ATOM     15  C   UNL     1       1.129   1.235   0.371  0.00  0.00    +0.044 C 
ATOM     16  C   UNL     1       1.007  -0.267   0.393  0.00  0.00    -0.050 A 
ATOM     17  C   UNL     1       1.225  -0.994  -0.764  0.00  0.00    +0.003 A 
ATOM     18  C   UNL     1       1.115  -2.373  -0.752  0.00  0.00    +0.001 A 
ATOM     19  C   UNL     1       0.786  -3.032   0.415  0.00  0.00    +0.010 A 
ATOM     20  C   UNL     1       0.565  -2.304   1.585  0.00  0.00    +0.004 A 
ATOM     21  C   UNL     1       0.683  -0.914   1.567  0.00  0.00    +0.013 A 
ENDBRANCH   1  20
BRANCH   2  22
ATOM     22  N   UNL     1      -1.134  -4.834   1.888  0.00  0.00    -0.323 N 
ATOM     23  H   UNL     1      -1.088  -4.479   0.986  0.00  0.00    +0.148 HD
BRANCH  22  24
ATOM     24  C   UNL     1      -1.818  -6.104   2.142  0.00  0.00    +0.025 C 
ATOM     25  C   UNL     1      -3.041  -5.857   3.028  0.00  0.00    +0.031 C 
ATOM     26  C   UNL     1      -2.266  -6.716   0.813  0.00  0.00    +0.031 C 
ATOM     27  C   UNL     1      -0.861  -7.066   2.849  0.00  0.00    +0.031 C 
ENDBRANCH  22  24
ENDBRANCH   2  22
BRANCH  12  28
ATOM     28  C   UNL     1      -4.572  -7.582   9.991  0.00  0.00    +0.119 C 
BRANCH  28  29
ATOM     29  C   UNL     1      -4.168  -7.779  11.429  0.00  0.00    -0.033 A 
ATOM     30  C   UNL     1      -3.931  -9.055  11.909  0.00  0.00    +0.006 A 
ATOM     31  C   UNL     1      -3.561  -9.243  13.224  0.00  0.00    +0.019 A 
ATOM     32  C   UNL     1      -3.426  -8.142  14.072  0.00  0.00    +0.052 A 
ATOM     33  C   UNL     1      -3.666  -6.857  13.581  0.00  0.00    +0.019 A 
ATOM     34  C   UNL     1      -4.031  -6.683  12.262  0.00  0.00    +0.006 A 
BRANCH  32  35
ATOM     35  C   UNL     1      -3.042  -8.330  15.439  0.00  0.00    +0.099 C 
ATOM     36  N   UNL     1      -2.739  -8.479  16.524  0.00  0.00    -0.191 NA
ENDBRANCH  32  35
ENDBRANCH  28  29
ENDBRANCH  12  28
TORSDOF 6
