REMARK  Name = ZINC63234368
REMARK  10 active torsions:
REMARK  status: ('A' for Active; 'I' for Inactive)
REMARK    1  A    between atoms: C_1  and  C_2
REMARK    2  A    between atoms: N_4  and  C_5
REMARK    3  A    between atoms: C_8  and  C_11
REMARK    4  A    between atoms: C_11  and  N_13
REMARK    5  A    between atoms: N_13  and  C_14
REMARK    6  A    between atoms: C_14  and  C_15
REMARK    7  A    between atoms: C_15  and  C_17
REMARK    8  A    between atoms: C_15  and  C_25
REMARK    9  A    between atoms: C_20  and  O_23
REMARK   10  A    between atoms: O_23  and  C_24
REMARK                            x       y       z     vdW  Elec       q    Type
REMARK                         _______ _______ _______ _____ _____    ______ ____
ROOT
ATOM      1  C   UNL     1      -3.451  -8.794  -2.142  0.00  0.00    +0.064 C 
ENDROOT
BRANCH   1   2
ATOM      2  C   UNL     1      -4.755  -8.406  -1.496  0.00  0.00    -0.033 C 
ATOM      3  C   UNL     1      -5.696  -7.575  -1.998  0.00  0.00    -0.000 A 
ATOM      4  C   UNL     1      -5.783  -6.812  -3.249  0.00  0.00    +0.010 A 
ATOM      5  C   UNL     1      -6.876  -6.048  -3.478  0.00  0.00    +0.001 A 
ATOM      6  C   UNL     1      -7.925  -5.967  -2.551  0.00  0.00    +0.002 A 
ATOM      7  C   UNL     1      -7.917  -6.638  -1.380  0.00  0.00    +0.026 A 
ATOM      8  C   UNL     1      -6.817  -7.472  -1.037  0.00  0.00    +0.043 A 
ATOM      9  N   UNL     1      -6.579  -8.211   0.019  0.00  0.00    -0.380 N 
ATOM     10  C   UNL     1      -5.280  -8.872  -0.156  0.00  0.00    +0.145 C 
ATOM     11  H   UNL     1      -7.164  -8.308   0.786  0.00  0.00    +0.160 HD
ENDBRANCH   1   2
BRANCH   1  12
ATOM     12  C   UNL     1      -3.417 -10.287  -2.347  0.00  0.00    -0.038 A 
ATOM     13  C   UNL     1      -3.523 -11.136  -1.261  0.00  0.00    +0.008 A 
ATOM     14  C   UNL     1      -3.491 -12.504  -1.446  0.00  0.00    +0.046 A 
ATOM     15  C   UNL     1      -3.353 -13.027  -2.724  0.00  0.00    +0.120 A 
ATOM     16  C   UNL     1      -3.248 -12.173  -3.812  0.00  0.00    +0.046 A 
ATOM     17  C   UNL     1      -3.285 -10.806  -3.622  0.00  0.00    +0.008 A 
BRANCH  15  18
ATOM     18  O   UNL     1      -3.322 -14.373  -2.909  0.00  0.00    -0.495 OA
ATOM     19  C   UNL     1      -3.178 -14.840  -4.252  0.00  0.00    +0.277 C 
ENDBRANCH  15  18
ENDBRANCH   1  12
BRANCH   1  20
ATOM     20  C   UNL     1      -2.289  -8.377  -1.238  0.00  0.00    +0.114 C 
BRANCH  20  21
ATOM     21  N   UNL     1      -2.251  -6.916  -1.135  0.00  0.00    -0.337 N 
ATOM     22  H   UNL     1      -2.906  -6.380  -1.607  0.00  0.00    +0.147 HD
BRANCH  21  23
ATOM     23  C   UNL     1      -1.304  -6.318  -0.385  0.00  0.00    +0.079 C 
ATOM     24  S   UNL     1      -0.146  -7.266   0.447  0.00  0.00    -0.035 S 
BRANCH  23  28
ATOM     25  C   UNL     1      -1.192  -2.085  -0.088  0.00  0.00    +0.033 A 
ATOM     26  C   UNL     1      -0.006  -2.812  -0.091  0.00  0.00    +0.024 A 
ATOM     27  C   UNL     1      -0.038  -4.185  -0.187  0.00  0.00    +0.012 A 
ATOM     28  C   UNL     1      -1.265  -4.848  -0.281  0.00  0.00    +0.003 A 
ATOM     29  C   UNL     1      -2.455  -4.115  -0.277  0.00  0.00    +0.012 A 
ATOM     30  C   UNL     1      -2.415  -2.742  -0.175  0.00  0.00    +0.024 A 
BRANCH  25  34
ATOM     31  C   UNL     1      -0.177   1.504  -0.566  0.00  0.00    +0.109 C 
ATOM     32  C   UNL     1      -0.161  -0.003  -0.582  0.00  0.00    +0.214 C 
ATOM     33  O   UNL     1       0.747  -0.594  -1.127  0.00  0.00    -0.276 OA
ATOM     34  N   UNL     1      -1.156  -0.694   0.009  0.00  0.00    -0.286 N 
ATOM     35  H   UNL     1      -1.846  -0.224   0.503  0.00  0.00    +0.155 HD
ENDBRANCH  25  34
ENDBRANCH  23  28
ENDBRANCH  21  23
ENDBRANCH  20  21
ENDBRANCH   1  20
TORSDOF 8
