REMARK  Name = ZINC00822574
REMARK  6 active torsions:
REMARK  status: ('A' for Active; 'I' for Inactive)
REMARK    1  A    between atoms: C_1  and  O_2
REMARK    2  A    between atoms: O_2  and  C_3
REMARK    3  A    between atoms: C_3  and  C_5
REMARK    4  A    between atoms: C_8  and  C_11
REMARK    5  A    between atoms: C_23  and  S_26
REMARK    6  A    between atoms: S_26  and  C_27
REMARK                            x       y       z     vdW  Elec       q    Type
REMARK                         _______ _______ _______ _____ _____    ______ ____
ROOT
ATOM      1  C   UNL     1       2.750   0.849  -1.197  0.00  0.00    +0.294 C 
ATOM      2  N   UNL     1       1.603   0.090  -1.685  0.00  0.00    -0.305 N 
ATOM      3  C   UNL     1       0.826  -0.621  -0.765  0.00  0.00    +0.039 A 
ATOM      4  C   UNL     1       0.828  -2.003  -0.736  0.00  0.00    +0.024 A 
ATOM      5  C   UNL     1       0.074  -2.674   0.209  0.00  0.00    +0.002 A 
ATOM      6  C   UNL     1      -0.684  -1.970   1.129  0.00  0.00    +0.001 A 
ATOM      7  C   UNL     1      -0.702  -0.589   1.108  0.00  0.00    +0.012 A 
ATOM      8  C   UNL     1       0.046   0.098   0.160  0.00  0.00    +0.028 A 
ATOM      9  C   UNL     1       0.045   1.574   0.093  0.00  0.00    +0.156 A 
ATOM     10  C   UNL     1       1.271   2.270  -0.003  0.00  0.00    +0.248 A 
ATOM     11  N   UNL     1       1.249   3.590  -0.072  0.00  0.00    -0.184 NA
ATOM     12  C   UNL     1       0.080   4.223  -0.043  0.00  0.00    +0.212 A 
ATOM     13  N   UNL     1      -1.060   3.551   0.055  0.00  0.00    -0.122 NA
ATOM     14  N   UNL     1      -1.085   2.265   0.117  0.00  0.00    -0.141 NA
ATOM     15  O   UNL     1       2.437   1.581  -0.018  0.00  0.00    -0.449 OA
ATOM     16  H   UNL     1       1.383   0.079  -2.630  0.00  0.00    +0.150 HD
ENDROOT
BRANCH   1  20
ATOM     17  C   UNL     1       5.951  -1.855  -0.345  0.00  0.00    +0.059 A 
ATOM     18  C   UNL     1       5.140  -2.059  -1.463  0.00  0.00    +0.015 A 
ATOM     19  C   UNL     1       4.109  -1.183  -1.732  0.00  0.00    +0.010 A 
ATOM     20  C   UNL     1       3.878  -0.104  -0.897  0.00  0.00    +0.011 A 
ATOM     21  C   UNL     1       4.681   0.106   0.210  0.00  0.00    +0.010 A 
ATOM     22  C   UNL     1       5.713  -0.765   0.493  0.00  0.00    +0.015 A 
BRANCH  17  23
ATOM     23  C   UNL     1       7.058  -2.789  -0.052  0.00  0.00    +0.339 C 
ATOM     24  O   UNL     1       7.263  -3.737  -0.783  0.00  0.00    -0.245 OA
BRANCH  23  26
ATOM     25  C   UNL     1       8.907  -3.547   1.255  0.00  0.00    +0.280 C 
ATOM     26  O   UNL     1       7.839  -2.590   1.028  0.00  0.00    -0.464 OA
ENDBRANCH  23  26
ENDBRANCH  17  23
ENDBRANCH   1  20
BRANCH  12  27
ATOM     27  S   UNL     1       0.045   5.982  -0.134  0.00  0.00    -0.088 S 
ATOM     28  C   UNL     1      -1.741   6.266  -0.053  0.00  0.00    +0.093 C 
ENDBRANCH  12  27
TORSDOF 4
