REMARK  Name = ZINC12876083
REMARK  9 active torsions:
REMARK  status: ('A' for Active; 'I' for Inactive)
REMARK    1  A    between atoms: C_1  and  C_2
REMARK    2  A    between atoms: C_4  and  C_36
REMARK    3  A    between atoms: C_13  and  C_15
REMARK    4  A    between atoms: C_15  and  C_17
REMARK    5  A    between atoms: C_15  and  O_18
REMARK    6  A    between atoms: N_21  and  C_24
REMARK    7  A    between atoms: C_24  and  C_25
REMARK    8  A    between atoms: C_30  and  O_31
REMARK    9  A    between atoms: O_31  and  C_32
REMARK                            x       y       z     vdW  Elec       q    Type
REMARK                         _______ _______ _______ _____ _____    ______ ____
ROOT
ATOM      1  C   UNL     1       4.163   4.795  -0.004  0.00  0.00    +0.044 C 
ATOM      2  C   UNL     1       3.099   3.729  -0.004  0.00  0.00    -0.050 A 
ATOM      3  C   UNL     1       3.456   2.393  -0.017  0.00  0.00    +0.008 A 
ATOM      4  C   UNL     1       2.486   1.412  -0.015  0.00  0.00    -0.029 A 
ATOM      5  C   UNL     1       1.137   1.761   0.001  0.00  0.00    +0.039 A 
ATOM      6  C   UNL     1       0.789   3.108   0.012  0.00  0.00    -0.027 A 
ATOM      7  C   UNL     1       1.762   4.083   0.010  0.00  0.00    +0.008 A 
ATOM      8  C   UNL     1      -0.713   3.145   0.023  0.00  0.00    +0.050 C 
ATOM      9  C   UNL     1      -1.250   3.888   1.251  0.00  0.00    +0.088 C 
ATOM     10  C   UNL     1      -2.516   4.630   0.738  0.00  0.00    +0.075 C 
ATOM     11  C   UNL     1      -2.626   4.239  -0.751  0.00  0.00    -0.028 C 
ATOM     12  C   UNL     1      -3.650   3.987   1.504  0.00  0.00    +0.224 C 
ATOM     13  O   UNL     1      -4.821   4.285   1.405  0.00  0.00    -0.275 OA
ATOM     14  N   UNL     1      -3.136   3.029   2.311  0.00  0.00    -0.237 N 
ATOM     15  C   UNL     1      -1.806   2.897   2.247  0.00  0.00    +0.225 C 
ATOM     16  O   UNL     1      -1.150   2.104   2.888  0.00  0.00    -0.275 OA
ATOM     17  C   UNL     1      -1.139   1.702   0.016  0.00  0.00    +0.211 C 
ATOM     18  O   UNL     1      -2.277   1.284   0.021  0.00  0.00    -0.277 OA
ATOM     19  N   UNL     1      -0.011   0.966   0.007  0.00  0.00    -0.286 N 
ATOM     20  C   UNL     1       2.886  -0.041  -0.030  0.00  0.00    +0.045 C 
ATOM     21  H   UNL     1       0.002  -0.004   0.002  0.00  0.00    +0.155 HD
ATOM     22  N   UNL     1      -1.261   3.856  -1.119  0.00  0.00    +0.396 N 
ATOM     23  H   UNL     1      -1.274   3.247  -1.945  0.00  0.00    -0.083 HD
ATOM     24  H   UNL     1      -0.700   4.692  -1.319  0.00  0.00    -0.083 HD
ENDROOT
BRANCH  11  25
ATOM     25  C   UNL     1      -3.115   5.429  -1.579  0.00  0.00    +0.098 C 
ATOM     26  C   UNL     1      -3.143   5.044  -3.060  0.00  0.00    +0.036 C 
BRANCH  25  27
ATOM     27  O   UNL     1      -4.430   5.795  -1.157  0.00  0.00    -0.394 OA
ATOM     28  H   UNL     1      -5.085   5.091  -1.256  0.00  0.00    +0.210 HD
ENDBRANCH  25  27
ENDBRANCH  11  25
BRANCH  14  29
ATOM     29  C   UNL     1      -3.973   2.209   3.191  0.00  0.00    +0.155 C 
BRANCH  29  30
ATOM     30  C   UNL     1      -4.113   2.890   4.528  0.00  0.00    +0.012 A 
ATOM     31  C   UNL     1      -3.341   2.478   5.598  0.00  0.00    +0.009 A 
ATOM     32  C   UNL     1      -3.466   3.106   6.824  0.00  0.00    +0.001 A 
ATOM     33  C   UNL     1      -4.371   4.138   6.985  0.00  0.00    +0.004 A 
ATOM     34  C   UNL     1      -5.149   4.550   5.921  0.00  0.00    +0.046 A 
ATOM     35  C   UNL     1      -5.022   3.925   4.688  0.00  0.00    +0.125 A 
BRANCH  35  36
ATOM     36  O   UNL     1      -5.786   4.328   3.639  0.00  0.00    -0.495 OA
ATOM     37  C   UNL     1      -6.700   5.400   3.876  0.00  0.00    +0.277 C 
ENDBRANCH  35  36
ENDBRANCH  29  30
ENDBRANCH  14  29
TORSDOF 5
