REMARK  Name = ZINC32877160
REMARK  9 active torsions:
REMARK  status: ('A' for Active; 'I' for Inactive)
REMARK    1  A    between atoms: C_1  and  C_2
REMARK    2  A    between atoms: C_2  and  N_3
REMARK    3  A    between atoms: C_7  and  S_29
REMARK    4  A    between atoms: C_11  and  S_12
REMARK    5  A    between atoms: S_12  and  C_13
REMARK    6  A    between atoms: C_13  and  C_14
REMARK    7  A    between atoms: N_16  and  C_17
REMARK    8  A    between atoms: C_18  and  C_27
REMARK    9  A    between atoms: S_29  and  N_32
REMARK                            x       y       z     vdW  Elec       q    Type
REMARK                         _______ _______ _______ _____ _____    ______ ____
ROOT
ATOM      1  S   UNL     1      -2.763   4.072  -7.438  0.00  0.00    -0.078 S 
ENDROOT
BRANCH   1  10
ATOM      2  N   UNL     1      -1.750   4.881  -4.977  0.00  0.00    -0.319 N 
ATOM      3  C   UNL     1      -1.576   4.359  -3.705  0.00  0.00    +0.070 A 
ATOM      4  C   UNL     1      -1.048   4.860  -2.525  0.00  0.00    +0.030 A 
ATOM      5  C   UNL     1      -1.020   4.069  -1.395  0.00  0.00    +0.030 A 
ATOM      6  C   UNL     1      -1.507   2.771  -1.433  0.00  0.00    +0.107 A 
ATOM      7  C   UNL     1      -2.035   2.257  -2.597  0.00  0.00    +0.058 A 
ATOM      8  C   UNL     1      -2.075   3.047  -3.749  0.00  0.00    +0.092 A 
ATOM      9  N   UNL     1      -2.522   2.831  -5.013  0.00  0.00    -0.222 NA
ATOM     10  C   UNL     1      -2.332   3.906  -5.737  0.00  0.00    +0.170 A 
BRANCH   6  11
ATOM     11  S   UNL     1      -1.456   1.774   0.019  0.00  0.00    +0.056 S 
ATOM     12  O   UNL     1      -2.472   0.792  -0.128  0.00  0.00    -0.153 OA
ATOM     13  O   UNL     1      -1.413   2.667   1.123  0.00  0.00    -0.153 OA
BRANCH  11  14
ATOM     14  N   UNL     1      -0.011   0.966   0.007  0.00  0.00    -0.204 NA
ATOM     15  H   UNL     1       0.060   0.329   0.902  0.00  0.00    +0.144 HD
ATOM     16  H   UNL     1       0.815   1.692   0.007  0.00  0.00    +0.144 HD
ENDBRANCH  11  14
ENDBRANCH   6  11
BRANCH   2  18
ATOM     17  C   UNL     1      -2.557   7.179  -5.199  0.00  0.00    +0.027 C 
ATOM     18  C   UNL     1      -1.380   6.226  -5.422  0.00  0.00    +0.121 C 
ENDBRANCH   2  18
ENDBRANCH   1  10
BRANCH   1  19
ATOM     19  C   UNL     1      -3.462   2.430  -7.746  0.00  0.00    +0.173 C 
BRANCH  19  20
ATOM     20  C   UNL     1      -3.912   2.337  -9.181  0.00  0.00    +0.228 C 
ATOM     21  O   UNL     1      -3.774   3.287  -9.923  0.00  0.00    -0.275 OA
ATOM     22  N   UNL     1      -4.468   1.199  -9.641  0.00  0.00    -0.278 N 
ATOM     23  H   UNL     1      -4.592   0.337  -8.968  0.00  0.00    +0.155 HD
BRANCH  22  24
ATOM     24  C   UNL     1      -4.882   1.113 -10.963  0.00  0.00    +0.090 A 
ATOM     25  C   UNL     1      -5.464   0.038 -11.614  0.00  0.00    +0.084 A 
ATOM     26  C   UNL     1      -5.817   0.206 -13.017  0.00  0.00    -0.018 A 
ATOM     27  C   UNL     1      -5.515   1.415 -13.539  0.00  0.00    -0.004 A 
ATOM     28  S   UNL     1      -4.792   2.322 -12.200  0.00  0.00    -0.077 S 
ATOM     29  C   UNL     1      -5.728   1.884 -14.945  0.00  0.00    +0.043 C 
ATOM     30  C   UNL     1      -7.165   1.559 -15.375  0.00  0.00    +0.005 C 
ATOM     31  C   UNL     1      -7.179   0.164 -15.993  0.00  0.00    +0.001 C 
ATOM     32  C   UNL     1      -6.142  -0.725 -15.310  0.00  0.00    +0.005 C 
ATOM     33  C   UNL     1      -6.478  -0.897 -13.833  0.00  0.00    +0.037 C 
BRANCH  25  34
ATOM     34  C   UNL     1      -5.713  -1.195 -10.931  0.00  0.00    +0.102 C 
ATOM     35  N   UNL     1      -5.910  -2.174 -10.389  0.00  0.00    -0.191 NA
ENDBRANCH  25  34
ENDBRANCH  22  24
ENDBRANCH  19  20
ENDBRANCH   1  19
TORSDOF 8
