REMARK  Name = ZINC16291373
REMARK  10 active torsions:
REMARK  status: ('A' for Active; 'I' for Inactive)
REMARK    1  A    between atoms: C_1  and  C_2
REMARK    2  A    between atoms: C_5  and  C_30
REMARK    3  A    between atoms: C_6  and  S_8
REMARK    4  A    between atoms: S_8  and  O_11
REMARK    5  A    between atoms: O_11  and  C_12
REMARK    6  A    between atoms: C_13  and  C_29
REMARK    7  A    between atoms: C_17  and  C_18
REMARK    8  A    between atoms: N_19  and  N_20
REMARK    9  A    between atoms: C_25  and  C_27
REMARK   10  A    between atoms: C_25  and  C_28
REMARK                            x       y       z     vdW  Elec       q    Type
REMARK                         _______ _______ _______ _____ _____    ______ ____
ROOT
ATOM      1  C   UNL     1       0.040  -1.199   4.401  0.00  0.00    +0.168 A 
ATOM      2  C   UNL     1      -0.068   0.034   3.780  0.00  0.00    -0.005 A 
ATOM      3  C   UNL     1      -0.889   1.010   4.313  0.00  0.00    +0.007 A 
ATOM      4  C   UNL     1      -1.609   0.765   5.470  0.00  0.00    +0.001 A 
ATOM      5  C   UNL     1      -1.513  -0.456   6.103  0.00  0.00    +0.013 A 
ATOM      6  C   UNL     1      -0.692  -1.454   5.571  0.00  0.00    +0.040 A 
ATOM      7  C   UNL     1       0.711   0.312   2.520  0.00  0.00    +0.047 C 
ENDROOT
BRANCH   6   8
ATOM      8  C   UNL     1      -0.590  -2.762   6.237  0.00  0.00    +0.146 C 
ATOM      9  N   UNL     1       0.183  -3.689   5.739  0.00  0.00    -0.155 NA
BRANCH   9  10
ATOM     10  N   UNL     1       0.273  -4.836   6.323  0.00  0.00    -0.127 NA
ATOM     11  C   UNL     1       1.052  -5.771   5.822  0.00  0.00    +0.183 C 
ATOM     12  N   UNL     1       1.845  -5.705   4.695  0.00  0.00    -0.262 N 
ATOM     13  C   UNL     1       2.589  -6.720   4.291  0.00  0.00    +0.235 C 
ATOM     14  O   UNL     1       3.284  -6.654   3.299  0.00  0.00    -0.274 OA
ATOM     15  C   UNL     1       2.520  -7.974   5.147  0.00  0.00    +0.094 C 
ATOM     16  S   UNL     1       1.338  -7.420   6.445  0.00  0.00    -0.073 S 
ATOM     17  C   UNL     1       1.965  -9.158   4.353  0.00  0.00    +0.032 C 
ATOM     18  C   UNL     1       3.885  -8.307   5.753  0.00  0.00    +0.032 C 
ATOM     19  H   UNL     1       1.856  -4.883   4.180  0.00  0.00    +0.157 HD
ENDBRANCH   9  10
ENDBRANCH   6   8
BRANCH   1  20
ATOM     20  O   UNL     1       0.846  -2.159   3.877  0.00  0.00    -0.341 OA
BRANCH  20  21
ATOM     21  S   UNL     1       0.194  -2.979   2.773  0.00  0.00    +0.151 S 
ATOM     22  O   UNL     1      -0.456  -2.055   1.910  0.00  0.00    -0.131 OA
ATOM     23  O   UNL     1      -0.499  -4.042   3.411  0.00  0.00    -0.131 OA
BRANCH  21  29
ATOM     24  C   UNL     1       5.198  -3.246   1.286  0.00  0.00    +0.044 C 
ATOM     25  C   UNL     1       3.797  -3.791   1.189  0.00  0.00    -0.049 A 
ATOM     26  C   UNL     1       3.530  -4.868   0.365  0.00  0.00    +0.004 A 
ATOM     27  C   UNL     1       2.244  -5.368   0.275  0.00  0.00    +0.005 A 
ATOM     28  C   UNL     1       1.225  -4.791   1.011  0.00  0.00    -0.022 A 
ATOM     29  C   UNL     1       1.493  -3.715   1.836  0.00  0.00    +0.131 A 
ATOM     30  C   UNL     1       2.780  -3.217   1.928  0.00  0.00    +0.034 A 
ATOM     31  C   UNL     1      -0.176  -5.335   0.913  0.00  0.00    +0.046 C 
ENDBRANCH  21  29
ENDBRANCH  20  21
ENDBRANCH   1  20
TORSDOF 5
