REMARK  Name = ZINC10087193
REMARK  8 active torsions:
REMARK  status: ('A' for Active; 'I' for Inactive)
REMARK    1  A    between atoms: C_1  and  C_2
REMARK    2  A    between atoms: C_5  and  N_31
REMARK    3  A    between atoms: C_7  and  N_8
REMARK    4  A    between atoms: C_9  and  C_11
REMARK    5  A    between atoms: N_13  and  C_14
REMARK    6  A    between atoms: C_14  and  C_15
REMARK    7  A    between atoms: C_15  and  C_17
REMARK    8  A    between atoms: C_15  and  N_59
REMARK                            x       y       z     vdW  Elec       q    Type
REMARK                         _______ _______ _______ _____ _____    ______ ____
ROOT
ATOM      1  C   UNL     1      -2.763   3.425   1.645  0.00  0.00    +0.299 C 
ATOM      2  O   UNL     1      -1.980   3.813   0.804  0.00  0.00    -0.265 OA
ATOM      3  N   UNL     1      -3.684   2.493   1.330  0.00  0.00    -0.309 N 
ATOM      4  H   UNL     1      -4.310   2.183   2.003  0.00  0.00    +0.149 HD
ENDROOT
BRANCH   1   6
ATOM      5  N   UNL     1      -1.782   4.908   3.348  0.00  0.00    -0.277 N 
ATOM      6  C   UNL     1      -2.706   3.980   3.031  0.00  0.00    +0.303 C 
ATOM      7  O   UNL     1      -3.490   3.592   3.873  0.00  0.00    -0.265 OA
ATOM      8  H   UNL     1      -1.107   5.162   2.699  0.00  0.00    +0.155 HD
BRANCH   5  15
ATOM      9  C   UNL     1       0.650   6.001   4.343  0.00  0.00    +0.045 C 
ATOM     10  C   UNL     1      -0.631   6.051   5.136  0.00  0.00    -0.029 A 
ATOM     11  C   UNL     1      -0.648   6.640   6.385  0.00  0.00    +0.007 A 
ATOM     12  C   UNL     1      -1.822   6.687   7.113  0.00  0.00    +0.033 A 
ATOM     13  C   UNL     1      -2.984   6.145   6.593  0.00  0.00    +0.128 A 
ATOM     14  C   UNL     1      -2.975   5.559   5.343  0.00  0.00    +0.056 A 
ATOM     15  C   UNL     1      -1.795   5.505   4.611  0.00  0.00    +0.039 A 
BRANCH  13  16
ATOM     16  N   UNL     1      -4.239   6.198   7.376  0.00  0.00    +0.056 N 
ATOM     17  O   UNL     1      -4.249   6.720   8.477  0.00  0.00    -0.126 OA
ATOM     18  O   UNL     1      -5.262   5.721   6.919  0.00  0.00    -0.126 OA
ENDBRANCH  13  16
ENDBRANCH   5  15
ENDBRANCH   1   6
BRANCH   3  19
ATOM     19  C   UNL     1      -3.740   1.949  -0.029  0.00  0.00    +0.094 C 
BRANCH  19  20
ATOM     20  C   UNL     1      -4.943   1.012  -0.154  0.00  0.00    -0.020 C 
BRANCH  20  21
ATOM     21  C   UNL     1      -6.214   1.802   0.021  0.00  0.00    -0.052 A 
ATOM     22  C   UNL     1      -6.814   1.870   1.241  0.00  0.00    +0.003 A 
ATOM     23  C   UNL     1      -7.988   2.599   1.424  0.00  0.00    +0.001 A 
ATOM     24  C   UNL     1      -8.573   3.256   0.386  0.00  0.00    +0.008 A 
ATOM     25  C   UNL     1      -7.986   3.204  -0.889  0.00  0.00    -0.018 A 
ATOM     26  C   UNL     1      -6.790   2.467  -1.074  0.00  0.00    -0.016 A 
ATOM     27  C   UNL     1      -6.202   2.416  -2.350  0.00  0.00    +0.009 A 
ATOM     28  C   UNL     1      -6.788   3.073  -3.388  0.00  0.00    +0.001 A 
ATOM     29  C   UNL     1      -7.964   3.798  -3.206  0.00  0.00    +0.001 A 
ATOM     30  C   UNL     1      -8.562   3.870  -1.985  0.00  0.00    +0.008 A 
ENDBRANCH  20  21
BRANCH  20  35
ATOM     31  C   UNL     1      -5.987  -0.991   0.753  0.00  0.00    -0.078 C 
ATOM     32  C   UNL     1      -5.474  -2.236   1.519  0.00  0.00    -0.020 C 
ATOM     33  C   UNL     1      -3.970  -2.267   1.161  0.00  0.00    -0.020 C 
ATOM     34  C   UNL     1      -3.628  -0.826   0.738  0.00  0.00    -0.078 C 
ATOM     35  N   UNL     1      -4.862  -0.053   0.890  0.00  0.00    +0.385 N 
ATOM     36  H   UNL     1      -4.885   0.384   1.819  0.00  0.00    -0.081 HD
ENDBRANCH  20  35
ENDBRANCH  19  20
ENDBRANCH   3  19
TORSDOF 7
