REMARK  Name = ZINC21122595
REMARK  9 active torsions:
REMARK  status: ('A' for Active; 'I' for Inactive)
REMARK    1  A    between atoms: C_1  and  C_2
REMARK    2  A    between atoms: C_5  and  C_8
REMARK    3  A    between atoms: C_10  and  C_13
REMARK    4  A    between atoms: C_13  and  C_14
REMARK    5  A    between atoms: C_14  and  C_15
REMARK    6  A    between atoms: N_17  and  C_18
REMARK    7  A    between atoms: C_21  and  S_24
REMARK    8  A    between atoms: S_24  and  N_27
REMARK    9  A    between atoms: N_27  and  C_28
REMARK                            x       y       z     vdW  Elec       q    Type
REMARK                         _______ _______ _______ _____ _____    ______ ____
ROOT
ATOM      1  C   UNL     1       8.679  -0.859  -0.148  0.00  0.00    +0.218 C 
ATOM      2  O   UNL     1       8.070  -0.054  -0.821  0.00  0.00    -0.275 OA
ATOM      3  N   UNL     1       8.039  -1.924   0.373  0.00  0.00    -0.285 N 
ATOM      4  H   UNL     1       8.570  -2.607   1.052  0.00  0.00    +0.155 HD
ENDROOT
BRANCH   3   5
ATOM      5  C   UNL     1       6.698  -2.161   0.049  0.00  0.00    +0.033 A 
ATOM      6  C   UNL     1       6.216  -1.827  -1.209  0.00  0.00    +0.025 A 
ATOM      7  C   UNL     1       4.892  -2.062  -1.525  0.00  0.00    +0.030 A 
ATOM      8  C   UNL     1       4.047  -2.631  -0.590  0.00  0.00    +0.109 A 
ATOM      9  C   UNL     1       4.523  -2.961   0.666  0.00  0.00    +0.030 A 
ATOM     10  C   UNL     1       5.847  -2.732   0.987  0.00  0.00    +0.025 A 
BRANCH   8  11
ATOM     11  S   UNL     1       2.359  -2.930  -0.997  0.00  0.00    +0.072 S 
ATOM     12  O   UNL     1       2.064  -2.119  -2.126  0.00  0.00    -0.150 OA
ATOM     13  O   UNL     1       1.627  -2.842   0.217  0.00  0.00    -0.150 OA
BRANCH  11  14
ATOM     14  N   UNL     1       2.249  -4.503  -1.503  0.00  0.00    -0.216 N 
ATOM     15  H   UNL     1       1.621  -5.216  -0.949  0.00  0.00    +0.174 HD
BRANCH  14  16
ATOM     16  C   UNL     1       2.953  -4.925  -2.635  0.00  0.00    +0.048 A 
ATOM     17  C   UNL     1       3.676  -6.110  -2.603  0.00  0.00    +0.027 A 
ATOM     18  C   UNL     1       4.371  -6.524  -3.723  0.00  0.00    +0.040 A 
ATOM     19  C   UNL     1       4.348  -5.758  -4.876  0.00  0.00    +0.124 A 
ATOM     20  C   UNL     1       3.628  -4.576  -4.910  0.00  0.00    +0.040 A 
ATOM     21  C   UNL     1       2.931  -4.158  -3.793  0.00  0.00    +0.027 A 
ATOM     22  F   UNL     1       5.029  -6.165  -5.970  0.00  0.00    -0.205 F 
ENDBRANCH  14  16
ENDBRANCH  11  14
ENDBRANCH   8  11
ENDBRANCH   3   5
BRANCH   1  23
ATOM     23  C   UNL     1      10.152  -0.668   0.105  0.00  0.00    +0.105 C 
BRANCH  23  24
ATOM     24  C   UNL     1      10.628   0.608  -0.593  0.00  0.00    +0.108 C 
BRANCH  24  27
ATOM     25  C   UNL     1      14.217   0.756  -0.467  0.00  0.00    +0.202 A 
ATOM     26  N   UNL     1      13.084   0.341  -1.076  0.00  0.00    -0.191 NA
ATOM     27  C   UNL     1      12.102   0.799  -0.340  0.00  0.00    +0.228 A 
ATOM     28  O   UNL     1      12.652   1.473   0.675  0.00  0.00    -0.338 OA
ATOM     29  N   UNL     1      13.861   1.435   0.592  0.00  0.00    -0.056 NA
BRANCH  25  34
ATOM     30  C   UNL     1      19.608  -0.279  -2.211  0.00  0.00    +0.044 C 
ATOM     31  C   UNL     1      18.198  -0.008  -1.755  0.00  0.00    -0.050 A 
ATOM     32  C   UNL     1      17.975   0.732  -0.608  0.00  0.00    +0.004 A 
ATOM     33  C   UNL     1      16.685   0.983  -0.186  0.00  0.00    +0.012 A 
ATOM     34  C   UNL     1      15.607   0.490  -0.917  0.00  0.00    +0.022 A 
ATOM     35  C   UNL     1      15.837  -0.260  -2.069  0.00  0.00    +0.012 A 
ATOM     36  C   UNL     1      17.131  -0.501  -2.485  0.00  0.00    +0.004 A 
ENDBRANCH  25  34
ENDBRANCH  24  27
ENDBRANCH  23  24
ENDBRANCH   1  23
TORSDOF 8
