REMARK  Name = ZINC13063727
REMARK  13 active torsions:
REMARK  status: ('A' for Active; 'I' for Inactive)
REMARK    1  A    between atoms: C_1  and  C_2
REMARK    2  A    between atoms: C_2  and  C_3
REMARK    3  A    between atoms: C_10  and  C_15
REMARK    4  A    between atoms: C_15  and  N_72
REMARK    5  A    between atoms: C_16  and  C_17
REMARK    6  A    between atoms: C_16  and  N_72
REMARK    7  A    between atoms: C_20  and  C_23
REMARK    8  A    between atoms: C_24  and  C_26
REMARK    9  A    between atoms: C_24  and  C_28
REMARK   10  A    between atoms: C_24  and  N_72
REMARK   11  A    between atoms: C_26  and  C_27
REMARK   12  A    between atoms: N_32  and  C_33
REMARK   13  A    between atoms: C_33  and  C_34
REMARK                            x       y       z     vdW  Elec       q    Type
REMARK                         _______ _______ _______ _____ _____    ______ ____
ROOT
ATOM      1  N   UNL     1       4.047   0.815  -2.928  0.00  0.00    +0.392 N 
ATOM      2  H   UNL     1       4.687   0.722  -3.726  0.00  0.00    -0.080 HD
ENDROOT
BRANCH   1   3
ATOM      3  C   UNL     1       4.401  -0.195  -1.909  0.00  0.00    -0.036 C 
BRANCH   3  11
ATOM      4  C   UNL     1      -0.332  -1.113   1.969  0.00  0.00    -0.047 A 
ATOM      5  C   UNL     1       0.082  -0.207   2.937  0.00  0.00    +0.005 A 
ATOM      6  C   UNL     1       1.243   0.516   2.772  0.00  0.00    +0.026 A 
ATOM      7  C   UNL     1       2.011   0.338   1.626  0.00  0.00    +0.049 A 
ATOM      8  C   UNL     1       1.588  -0.581   0.648  0.00  0.00    -0.001 A 
ATOM      9  C   UNL     1       0.406  -1.304   0.836  0.00  0.00    +0.013 A 
ATOM     10  C   UNL     1       2.403  -0.761  -0.555  0.00  0.00    +0.017 A 
ATOM     11  C   UNL     1       3.540  -0.033  -0.683  0.00  0.00    +0.001 A 
ATOM     12  C   UNL     1       3.922   0.871   0.331  0.00  0.00    +0.251 A 
ATOM     13  O   UNL     1       4.950   1.512   0.198  0.00  0.00    -0.268 OA
ATOM     14  N   UNL     1       3.177   1.048   1.436  0.00  0.00    -0.322 N 
ATOM     15  H   UNL     1       3.467   1.681   2.112  0.00  0.00    +0.169 HD
BRANCH   4  17
ATOM     16  C   UNL     1      -1.293  -3.201   2.900  0.00  0.00    +0.009 C 
ATOM     17  C   UNL     1      -1.606  -1.892   2.172  0.00  0.00    +0.032 C 
ENDBRANCH   4  17
ENDBRANCH   3  11
ENDBRANCH   1   3
BRANCH   1  18
ATOM     18  C   UNL     1       2.662   0.597  -3.395  0.00  0.00    -0.042 C 
BRANCH  18  19
ATOM     19  C   UNL     1       2.650  -0.576  -4.342  0.00  0.00    -0.064 A 
ATOM     20  C   UNL     1       2.985  -0.395  -5.671  0.00  0.00    +0.002 A 
ATOM     21  C   UNL     1       2.978  -1.471  -6.538  0.00  0.00    +0.003 A 
ATOM     22  C   UNL     1       2.628  -2.727  -6.078  0.00  0.00    -0.050 A 
ATOM     23  C   UNL     1       2.289  -2.907  -4.750  0.00  0.00    +0.003 A 
ATOM     24  C   UNL     1       2.300  -1.831  -3.882  0.00  0.00    +0.002 A 
ATOM     25  C   UNL     1       2.617  -3.900  -7.024  0.00  0.00    +0.044 C 
ENDBRANCH  18  19
ENDBRANCH   1  18
BRANCH   1  26
ATOM     26  C   UNL     1       4.181   2.174  -2.361  0.00  0.00    +0.003 C 
BRANCH  26  27
ATOM     27  C   UNL     1       3.625   3.174  -3.341  0.00  0.00    +0.138 A 
ATOM     28  N   UNL     1       3.822   3.193  -4.637  0.00  0.00    -0.115 NA
ATOM     29  N   UNL     1       3.185   4.202  -5.122  0.00  0.00    -0.023 NA
ATOM     30  N   UNL     1       2.582   4.825  -4.170  0.00  0.00    -0.044 NA
ATOM     31  N   UNL     1       2.826   4.219  -3.057  0.00  0.00    -0.226 N 
BRANCH  31  32
ATOM     32  C   UNL     1       2.332   4.601  -1.732  0.00  0.00    +0.182 C 
BRANCH  32  33
ATOM     33  C   UNL     1       1.015   3.915  -1.470  0.00  0.00    -0.026 A 
ATOM     34  C   UNL     1       0.992   2.672  -0.865  0.00  0.00    +0.005 A 
ATOM     35  C   UNL     1      -0.215   2.043  -0.625  0.00  0.00    +0.000 A 
ATOM     36  C   UNL     1      -1.399   2.655  -0.994  0.00  0.00    +0.000 A 
ATOM     37  C   UNL     1      -1.376   3.901  -1.593  0.00  0.00    +0.000 A 
ATOM     38  C   UNL     1      -0.168   4.530  -1.833  0.00  0.00    +0.005 A 
ENDBRANCH  32  33
ENDBRANCH  31  32
ENDBRANCH  26  27
BRANCH  26  39
ATOM     39  C   UNL     1       5.664   2.464  -2.122  0.00  0.00    -0.011 C 
ATOM     40  C   UNL     1       5.813   3.819  -1.427  0.00  0.00    +0.002 C 
ENDBRANCH  26  39
ENDBRANCH   1  26
TORSDOF 10
