REMARK  Name = ZINC01604342
REMARK  4 active torsions:
REMARK  status: ('A' for Active; 'I' for Inactive)
REMARK    1  A    between atoms: C_2  and  C_3
REMARK    2  A    between atoms: C_3  and  N_4
REMARK    3  A    between atoms: C_5  and  C_7
REMARK    4  A    between atoms: C_13  and  C_15
REMARK                            x       y       z     vdW  Elec       q    Type
REMARK                         _______ _______ _______ _____ _____    ______ ____
ROOT
ATOM      1  C   UNL     1      -0.013   1.086   0.008  0.00  0.00    +0.089 C 
ATOM      2  C   UNL     1       1.423   1.615  -0.003  0.00  0.00    +0.013 C 
ATOM      3  C   UNL     1       2.163   1.109   1.237  0.00  0.00    +0.001 C 
ATOM      4  C   UNL     1       1.446   1.602   2.495  0.00  0.00    +0.001 C 
ATOM      5  C   UNL     1       0.011   1.072   2.506  0.00  0.00    +0.015 C 
ATOM      6  C   UNL     1      -0.729   1.579   1.267  0.00  0.00    +0.114 C 
ENDROOT
BRANCH   1   8
ATOM      7  N   UNL     1      -0.288   1.272  -2.443  0.00  0.00    -0.312 N 
ATOM      8  C   UNL     1      -0.742   1.585  -1.213  0.00  0.00    +0.217 C 
ATOM      9  O   UNL     1      -1.736   2.268  -1.088  0.00  0.00    -0.275 OA
ATOM     10  H   UNL     1       0.507   0.726  -2.543  0.00  0.00    +0.149 HD
BRANCH   7  11
ATOM     11  C   UNL     1      -0.997   1.758  -3.630  0.00  0.00    +0.131 C 
BRANCH  11  13
ATOM     12  C   UNL     1      -0.953   0.597  -5.778  0.00  0.00    +0.005 C 
ATOM     13  C   UNL     1      -0.292   1.272  -4.870  0.00  0.00    -0.016 C 
ENDBRANCH  11  13
ENDBRANCH   7  11
ENDBRANCH   1   8
BRANCH   6  14
ATOM     14  C   UNL     1      -2.143   1.058   1.278  0.00  0.00    +0.360 C 
ATOM     15  O   UNL     1      -2.537   0.362   0.371  0.00  0.00    -0.246 OA
ATOM     16  O   UNL     1      -2.964   1.365   2.294  0.00  0.00    -0.246 OA
ENDBRANCH   6  14
TORSDOF 4
