REMARK  Name = ZINC16757186
REMARK  6 active torsions:
REMARK  status: ('A' for Active; 'I' for Inactive)
REMARK    1  A    between atoms: C_1  and  C_2
REMARK    2  A    between atoms: C_2  and  N_3
REMARK    3  A    between atoms: N_3  and  N_4
REMARK    4  A    between atoms: C_5  and  N_27
REMARK    5  A    between atoms: C_6  and  S_17
REMARK    6  A    between atoms: S_17  and  C_20
REMARK                            x       y       z     vdW  Elec       q    Type
REMARK                         _______ _______ _______ _____ _____    ______ ____
ROOT
ATOM      1  N   UNL     1      -0.747   1.950  -1.038  0.00  0.00    -0.231 N 
ATOM      2  C   UNL     1      -1.863   2.742  -0.933  0.00  0.00    +0.143 A 
ATOM      3  C   UNL     1      -2.348   3.051  -2.159  0.00  0.00    +0.162 A 
ATOM      4  C   UNL     1      -1.517   2.437  -3.126  0.00  0.00    +0.137 A 
ATOM      5  C   UNL     1      -0.475   1.728  -2.372  0.00  0.00    +0.180 A 
ATOM      6  N   UNL     1       0.448   1.051  -3.016  0.00  0.00    -0.225 NA
ATOM      7  C   UNL     1       0.440   1.020  -4.355  0.00  0.00    +0.092 A 
ATOM      8  C   UNL     1       1.429   0.302  -5.052  0.00  0.00    +0.030 A 
ATOM      9  C   UNL     1       1.413   0.274  -6.412  0.00  0.00    +0.002 A 
ATOM     10  C   UNL     1       0.429   0.951  -7.132  0.00  0.00    +0.002 A 
ATOM     11  C   UNL     1      -0.543   1.656  -6.493  0.00  0.00    +0.030 A 
ATOM     12  C   UNL     1      -0.561   1.707  -5.086  0.00  0.00    +0.090 A 
ATOM     13  N   UNL     1      -1.513   2.398  -4.449  0.00  0.00    -0.240 NA
ENDROOT
BRANCH   3  14
ATOM     14  S   UNL     1      -3.765   4.043  -2.491  0.00  0.00    +0.030 S 
ATOM     15  O   UNL     1      -4.234   3.663  -3.778  0.00  0.00    -0.164 OA
ATOM     16  O   UNL     1      -4.586   3.979  -1.333  0.00  0.00    -0.164 OA
BRANCH  14  17
ATOM     17  C   UNL     1      -3.214   5.710  -2.627  0.00  0.00    +0.094 A 
ATOM     18  C   UNL     1      -3.172   6.518  -1.506  0.00  0.00    +0.030 A 
ATOM     19  C   UNL     1      -2.736   7.825  -1.611  0.00  0.00    +0.040 A 
ATOM     20  C   UNL     1      -2.349   8.329  -2.841  0.00  0.00    +0.124 A 
ATOM     21  C   UNL     1      -2.396   7.520  -3.965  0.00  0.00    +0.040 A 
ATOM     22  C   UNL     1      -2.828   6.212  -3.857  0.00  0.00    +0.030 A 
ATOM     23  F   UNL     1      -1.926   9.607  -2.946  0.00  0.00    -0.205 F 
ENDBRANCH  14  17
ENDBRANCH   3  14
BRANCH   2  24
ATOM     24  N   UNL     1      -2.417   3.166   0.262  0.00  0.00    -0.342 N 
ATOM     25  H   UNL     1      -2.013   2.904   1.104  0.00  0.00    +0.144 HD
ATOM     26  H   UNL     1      -3.208   3.726   0.257  0.00  0.00    +0.144 HD
ENDBRANCH   2  24
BRANCH   1  27
ATOM     27  N   UNL     1      -0.018   1.465   0.010  0.00  0.00    -0.282 N 
ATOM     28  H   UNL     1       0.919   1.839   0.003  0.00  0.00    +0.166 HD
BRANCH  27  30
ATOM     29  C   UNL     1       0.826  -0.509   1.188  0.00  0.00    +0.025 C 
ATOM     30  C   UNL     1       0.002  -0.004   0.002  0.00  0.00    +0.117 C 
ENDBRANCH  27  30
ENDBRANCH   1  27
TORSDOF 5
