REMARK  Name = ZINC63383788
REMARK  8 active torsions:
REMARK  status: ('A' for Active; 'I' for Inactive)
REMARK    1  A    between atoms: C_1  and  C_2
REMARK    2  A    between atoms: C_7  and  C_8
REMARK    3  A    between atoms: C_17  and  C_20
REMARK    4  A    between atoms: C_20  and  C_21
REMARK    5  A    between atoms: N_32  and  C_35
REMARK    6  A    between atoms: C_35  and  C_36
REMARK    7  A    between atoms: C_36  and  O_37
REMARK    8  A    between atoms: O_37  and  C_38
REMARK                            x       y       z     vdW  Elec       q    Type
REMARK                         _______ _______ _______ _____ _____    ______ ____
ROOT
ATOM      1  C   UNL     1      -0.074   1.300   0.248  0.00  0.00    +0.044 C 
ATOM      2  C   UNL     1      -0.063  -0.202   0.128  0.00  0.00    -0.046 A 
ATOM      3  C   UNL     1      -0.028  -0.792  -1.122  0.00  0.00    +0.004 A 
ATOM      4  C   UNL     1      -0.019  -2.171  -1.232  0.00  0.00    +0.008 A 
ATOM      5  C   UNL     1      -0.045  -2.954  -0.099  0.00  0.00    +0.004 A 
ATOM      6  C   UNL     1      -0.079  -2.371   1.164  0.00  0.00    +0.042 A 
ATOM      7  C   UNL     1      -0.083  -0.982   1.266  0.00  0.00    -0.026 A 
ATOM      8  C   UNL     1      -0.114  -0.328   2.624  0.00  0.00    +0.046 C 
ATOM      9  N   UNL     1      -0.097  -3.358   2.151  0.00  0.00    -0.283 N 
ATOM     10  C   UNL     1      -0.080  -4.600   1.629  0.00  0.00    +0.243 C 
ATOM     11  O   UNL     1      -0.090  -5.645   2.244  0.00  0.00    -0.273 OA
ATOM     12  C   UNL     1      -0.046  -4.438   0.133  0.00  0.00    +0.136 C 
ATOM     13  C   UNL     1       1.193  -5.105  -0.475  0.00  0.00    +0.122 C 
ATOM     14  C   UNL     1       0.703  -5.682  -1.832  0.00  0.00    +0.107 C 
ATOM     15  C   UNL     1      -0.790  -5.297  -1.909  0.00  0.00    +0.072 C 
ATOM     16  N   UNL     1      -1.208  -5.085  -0.504  0.00  0.00    -0.295 NA
ATOM     17  C   UNL     1       1.487  -4.887  -2.852  0.00  0.00    +0.227 C 
ATOM     18  O   UNL     1       1.411  -5.022  -4.054  0.00  0.00    -0.275 OA
ATOM     19  N   UNL     1       2.278  -4.012  -2.221  0.00  0.00    -0.239 N 
ATOM     20  C   UNL     1       2.200  -4.049  -0.871  0.00  0.00    +0.228 C 
ATOM     21  O   UNL     1       2.825  -3.353  -0.100  0.00  0.00    -0.275 OA
ATOM     22  H   UNL     1      -0.119  -3.172   3.103  0.00  0.00    +0.155 HD
ATOM     23  H   UNL     1      -1.418  -5.967  -0.063  0.00  0.00    +0.124 HD
ENDROOT
BRANCH  15  24
ATOM     24  C   UNL     1      -1.598  -6.422  -2.559  0.00  0.00    +0.052 C 
BRANCH  24  25
ATOM     25  C   UNL     1      -3.027  -5.977  -2.736  0.00  0.00    -0.040 C 
ATOM     26  C   UNL     1      -3.579  -5.436  -3.845  0.00  0.00    -0.001 A 
ATOM     27  C   UNL     1      -3.035  -5.110  -5.169  0.00  0.00    +0.010 A 
ATOM     28  C   UNL     1      -3.852  -4.561  -6.097  0.00  0.00    +0.001 A 
ATOM     29  C   UNL     1      -5.201  -4.297  -5.827  0.00  0.00    +0.002 A 
ATOM     30  C   UNL     1      -5.773  -4.568  -4.635  0.00  0.00    +0.026 A 
ATOM     31  C   UNL     1      -5.008  -5.147  -3.586  0.00  0.00    +0.043 A 
ATOM     32  N   UNL     1      -5.326  -5.497  -2.363  0.00  0.00    -0.380 N 
ATOM     33  C   UNL     1      -4.136  -6.053  -1.710  0.00  0.00    +0.144 C 
ATOM     34  H   UNL     1      -6.203  -5.406  -1.959  0.00  0.00    +0.160 HD
ENDBRANCH  24  25
ENDBRANCH  15  24
BRANCH  19  35
ATOM     35  C   UNL     1       3.165  -3.089  -2.933  0.00  0.00    +0.144 C 
BRANCH  35  36
ATOM     36  C   UNL     1       4.566  -3.698  -3.026  0.00  0.00    +0.179 C 
BRANCH  36  37
ATOM     37  O   UNL     1       4.523  -4.872  -3.840  0.00  0.00    -0.381 OA
ATOM     38  C   UNL     1       5.761  -5.582  -3.901  0.00  0.00    +0.194 C 
ENDBRANCH  36  37
ENDBRANCH  35  36
ENDBRANCH  19  35
TORSDOF 5
