REMARK  Name = ZINC54067728
REMARK  8 active torsions:
REMARK  status: ('A' for Active; 'I' for Inactive)
REMARK    1  A    between atoms: C_1  and  C_2
REMARK    2  A    between atoms: C_2  and  C_4
REMARK    3  A    between atoms: C_2  and  N_12
REMARK    4  A    between atoms: N_15  and  N_16
REMARK    5  A    between atoms: C_17  and  C_19
REMARK    6  A    between atoms: C_19  and  C_21
REMARK    7  A    between atoms: C_19  and  O_22
REMARK    8  A    between atoms: O_22  and  C_23
REMARK                            x       y       z     vdW  Elec       q    Type
REMARK                         _______ _______ _______ _____ _____    ______ ____
ROOT
ATOM      1  N   UNL     1       1.119  -1.121   0.840  0.00  0.00    -0.292 N 
ATOM      2  C   UNL     1       2.458  -1.057   0.981  0.00  0.00    +0.316 C 
ATOM      3  O   UNL     1       3.154  -0.738   0.036  0.00  0.00    -0.251 OA
ATOM      4  N   UNL     1       3.025  -1.347   2.168  0.00  0.00    -0.218 N 
ATOM      5  H   UNL     1       0.564  -1.375   1.593  0.00  0.00    +0.151 HD
ATOM      6  H   UNL     1       3.989  -1.301   2.270  0.00  0.00    +0.174 HD
ENDROOT
BRANCH   4   7
ATOM      7  N   UNL     1       2.223  -1.714   3.256  0.00  0.00    -0.230 N 
ATOM      8  C   UNL     1       2.790  -2.004   4.444  0.00  0.00    +0.270 C 
ATOM      9  O   UNL     1       3.995  -1.946   4.571  0.00  0.00    -0.270 OA
ATOM     10  H   UNL     1       1.260  -1.760   3.155  0.00  0.00    +0.173 HD
BRANCH   8  11
ATOM     11  C   UNL     1       1.927  -2.399   5.615  0.00  0.00    +0.257 C 
ATOM     12  C   UNL     1       1.040  -1.219   6.016  0.00  0.00    +0.062 C 
BRANCH  11  13
ATOM     13  O   UNL     1       2.759  -2.767   6.717  0.00  0.00    -0.480 OA
BRANCH  13  14
ATOM     14  C   UNL     1       2.226  -3.613   7.638  0.00  0.00    +0.122 A 
ATOM     15  C   UNL     1       0.895  -3.994   7.541  0.00  0.00    +0.048 A 
ATOM     16  C   UNL     1       0.354  -4.854   8.477  0.00  0.00    +0.042 A 
ATOM     17  C   UNL     1       1.139  -5.336   9.511  0.00  0.00    +0.124 A 
ATOM     18  C   UNL     1       2.467  -4.956   9.609  0.00  0.00    +0.042 A 
ATOM     19  C   UNL     1       3.013  -4.101   8.671  0.00  0.00    +0.048 A 
ATOM     20  F   UNL     1       0.609  -6.176  10.427  0.00  0.00    -0.205 F 
ENDBRANCH  13  14
ENDBRANCH  11  13
ENDBRANCH   8  11
ENDBRANCH   4   7
BRANCH   1  22
ATOM     21  C   UNL     1       0.295   0.706  -0.562  0.00  0.00    +0.033 C 
ATOM     22  C   UNL     1       0.503  -0.806  -0.452  0.00  0.00    +0.104 C 
BRANCH  22  23
ATOM     23  C   UNL     1      -0.828  -1.505  -0.556  0.00  0.00    +0.008 A 
ATOM     24  C   UNL     1      -1.523  -1.843   0.590  0.00  0.00    +0.011 A 
ATOM     25  C   UNL     1      -2.744  -2.483   0.495  0.00  0.00    +0.039 A 
ATOM     26  C   UNL     1      -3.272  -2.787  -0.749  0.00  0.00    +0.126 A 
ATOM     27  C   UNL     1      -2.578  -2.449  -1.897  0.00  0.00    +0.077 A 
ATOM     28  C   UNL     1      -1.357  -1.802  -1.801  0.00  0.00    +0.131 A 
ATOM     29  F   UNL     1      -0.681  -1.466  -2.921  0.00  0.00    -0.205 F 
ATOM     30  F   UNL     1      -4.466  -3.414  -0.841  0.00  0.00    -0.205 F 
ENDBRANCH  22  23
ENDBRANCH   1  22
TORSDOF 6
