REMARK  Name = ZINC20834093
REMARK  11 active torsions:
REMARK  status: ('A' for Active; 'I' for Inactive)
REMARK    1  A    between atoms: C_1  and  C_2
REMARK    2  A    between atoms: C_2  and  C_3
REMARK    3  A    between atoms: C_2  and  C_4
REMARK    4  A    between atoms: C_8  and  C_33
REMARK    5  A    between atoms: C_9  and  N_10
REMARK    6  A    between atoms: C_11  and  C_13
REMARK    7  A    between atoms: C_13  and  N_14
REMARK    8  A    between atoms: C_17  and  C_22
REMARK    9  A    between atoms: C_22  and  C_23
REMARK   10  A    between atoms: C_33  and  C_34
REMARK   11  A    between atoms: C_33  and  C_35
REMARK                            x       y       z     vdW  Elec       q    Type
REMARK                         _______ _______ _______ _____ _____    ______ ____
ROOT
ATOM      1  N   UNL     1       1.856   3.081  -4.118  0.00  0.00    -0.216 N 
ATOM      2  C   UNL     1       2.702   2.067  -3.850  0.00  0.00    +0.244 C 
ATOM      3  O   UNL     1       3.439   1.503  -4.630  0.00  0.00    -0.273 OA
ATOM      4  C   UNL     1       2.541   1.778  -2.371  0.00  0.00    +0.165 C 
ATOM      5  N   UNL     1       1.527   2.755  -1.936  0.00  0.00    -0.287 N 
ATOM      6  C   UNL     1       1.189   3.469  -3.025  0.00  0.00    +0.310 C 
ATOM      7  O   UNL     1       0.369   4.366  -3.016  0.00  0.00    -0.252 OA
ATOM      8  H   UNL     1       1.203   2.780  -0.885  0.00  0.00    +0.151 HD
ENDROOT
BRANCH   1   9
ATOM      9  C   UNL     1       1.687   3.685  -5.442  0.00  0.00    +0.214 C 
BRANCH   9  11
ATOM     10  N   UNL     1       0.271   3.340  -7.441  0.00  0.00    -0.284 N 
ATOM     11  C   UNL     1       0.602   2.956  -6.192  0.00  0.00    +0.235 C 
ATOM     12  O   UNL     1       0.026   2.024  -5.671  0.00  0.00    -0.274 OA
ATOM     13  H   UNL     1       0.729   4.239  -7.880  0.00  0.00    +0.155 HD
BRANCH  10  19
ATOM     14  C   UNL     1      -0.281   2.022  -9.388  0.00  0.00    -0.023 A 
ATOM     15  C   UNL     1      -1.196   1.284 -10.113  0.00  0.00    +0.006 A 
ATOM     16  C   UNL     1      -2.486   1.123  -9.641  0.00  0.00    +0.001 A 
ATOM     17  C   UNL     1      -2.862   1.696  -8.440  0.00  0.00    +0.006 A 
ATOM     18  C   UNL     1      -1.951   2.432  -7.708  0.00  0.00    -0.023 A 
ATOM     19  C   UNL     1      -0.655   2.595  -8.180  0.00  0.00    +0.040 A 
BRANCH  14  21
ATOM     20  C   UNL     1       1.786   0.832 -10.067  0.00  0.00    +0.012 C 
ATOM     21  C   UNL     1       1.123   2.201  -9.906  0.00  0.00    +0.015 C 
ATOM     22  C   UNL     1       1.080   2.910 -11.261  0.00  0.00    +0.012 C 
ENDBRANCH  14  21
BRANCH  18  23
ATOM     23  C   UNL     1      -2.362   3.056  -6.400  0.00  0.00    +0.015 C 
ATOM     24  C   UNL     1      -3.007   4.418  -6.665  0.00  0.00    +0.012 C 
ATOM     25  C   UNL     1      -3.368   2.144  -5.694  0.00  0.00    +0.012 C 
ENDBRANCH  18  23
ENDBRANCH  10  19
ENDBRANCH   9  11
ENDBRANCH   1   9
BRANCH   4  26
ATOM     26  C   UNL     1       3.860   2.007  -1.631  0.00  0.00    +0.069 C 
BRANCH  26  27
ATOM     27  C   UNL     1       3.705   1.596  -0.189  0.00  0.00    -0.020 A 
ATOM     28  C   UNL     1       3.399   2.400   0.842  0.00  0.00    +0.087 A 
ATOM     29  N   UNL     1       3.345   1.673   2.000  0.00  0.00    -0.360 N 
ATOM     30  H   UNL     1       3.105   2.171   2.951  0.00  0.00    +0.165 HD
ATOM     31  C   UNL     1       3.621   0.350   1.736  0.00  0.00    +0.047 A 
ATOM     32  C   UNL     1       3.854   0.243   0.352  0.00  0.00    +0.003 A 
ATOM     33  C   UNL     1       4.168  -0.997  -0.207  0.00  0.00    +0.010 A 
ATOM     34  C   UNL     1       4.237  -2.103   0.592  0.00  0.00    +0.001 A 
ATOM     35  C   UNL     1       4.003  -2.004   1.956  0.00  0.00    +0.002 A 
ATOM     36  C   UNL     1       3.697  -0.789   2.530  0.00  0.00    +0.026 A 
ENDBRANCH  26  27
ENDBRANCH   4  26
TORSDOF 7
