REMARK  Name = ZINC03358575
REMARK  9 active torsions:
REMARK  status: ('A' for Active; 'I' for Inactive)
REMARK    1  A    between atoms: C_1  and  C_2
REMARK    2  A    between atoms: C_10  and  C_11
REMARK    3  A    between atoms: C_11  and  O_13
REMARK    4  A    between atoms: O_13  and  C_14
REMARK    5  A    between atoms: C_14  and  C_16
REMARK    6  A    between atoms: C_14  and  C_17
REMARK    7  A    between atoms: N_19  and  C_20
REMARK    8  A    between atoms: C_23  and  S_26
REMARK    9  A    between atoms: S_26  and  N_29
REMARK                            x       y       z     vdW  Elec       q    Type
REMARK                         _______ _______ _______ _____ _____    ______ ____
ROOT
ATOM      1  C   UNL     1       5.657  -0.580  -0.059  0.00  0.00    +0.259 C 
ATOM      2  C   UNL     1       6.152  -0.579  -1.508  0.00  0.00    +0.062 C 
ENDROOT
BRANCH   1   3
ATOM      3  C   UNL     1       6.175  -1.806   0.647  0.00  0.00    +0.258 C 
ATOM      4  O   UNL     1       5.400  -2.653   1.038  0.00  0.00    -0.271 OA
ATOM      5  N   UNL     1       7.499  -1.961   0.845  0.00  0.00    -0.282 N 
ATOM      6  H   UNL     1       8.124  -1.318   0.474  0.00  0.00    +0.155 HD
BRANCH   5   7
ATOM      7  C   UNL     1       7.973  -3.050   1.585  0.00  0.00    +0.034 A 
ATOM      8  C   UNL     1       9.093  -2.908   2.394  0.00  0.00    +0.025 A 
ATOM      9  C   UNL     1       9.554  -3.983   3.128  0.00  0.00    +0.030 A 
ATOM     10  C   UNL     1       8.909  -5.204   3.049  0.00  0.00    +0.105 A 
ATOM     11  C   UNL     1       7.798  -5.351   2.240  0.00  0.00    +0.030 A 
ATOM     12  C   UNL     1       7.328  -4.278   1.508  0.00  0.00    +0.025 A 
BRANCH  10  13
ATOM     13  S   UNL     1       9.506  -6.574   3.981  0.00  0.00    +0.056 S 
ATOM     14  O   UNL     1      10.231  -6.035   5.078  0.00  0.00    -0.153 OA
ATOM     15  O   UNL     1       8.405  -7.457   4.155  0.00  0.00    -0.153 OA
BRANCH  13  16
ATOM     16  N   UNL     1      10.605  -7.371   3.033  0.00  0.00    -0.204 NA
ATOM     17  H   UNL     1      11.343  -7.848   3.442  0.00  0.00    +0.144 HD
ATOM     18  H   UNL     1      10.511  -7.359   2.067  0.00  0.00    +0.144 HD
ENDBRANCH  13  16
ENDBRANCH  10  13
ENDBRANCH   5   7
ENDBRANCH   1   3
BRANCH   1  19
ATOM     19  O   UNL     1       4.206  -0.589  -0.044  0.00  0.00    -0.447 OA
BRANCH  19  20
ATOM     20  C   UNL     1       3.586   0.609  -0.039  0.00  0.00    +0.376 C 
ATOM     21  O   UNL     1       4.242   1.633  -0.048  0.00  0.00    -0.241 OA
BRANCH  20  31
ATOM     22  C   UNL     1       1.919   3.235  -0.025  0.00  0.00    +0.048 C 
ATOM     23  C   UNL     1       1.390   1.824  -0.016  0.00  0.00    +0.010 A 
ATOM     24  C   UNL     1      -0.013   1.411   0.001  0.00  0.00    +0.025 A 
ATOM     25  C   UNL     1      -1.230   2.097   0.018  0.00  0.00    +0.027 A 
ATOM     26  C   UNL     1      -2.403   1.395   0.029  0.00  0.00    +0.019 A 
ATOM     27  C   UNL     1      -2.392   0.006   0.031  0.00  0.00    +0.019 A 
ATOM     28  C   UNL     1      -1.202  -0.689   0.018  0.00  0.00    +0.048 A 
ATOM     29  C   UNL     1       0.004   0.003   0.003  0.00  0.00    +0.136 A 
ATOM     30  O   UNL     1       1.293  -0.389  -0.011  0.00  0.00    -0.448 OA
ATOM     31  C   UNL     1       2.120   0.677  -0.023  0.00  0.00    +0.216 A 
ATOM     32 BR   UNL     1      -4.051   2.322   0.048  0.00  0.00    -0.050 Br
ENDBRANCH  20  31
ENDBRANCH  19  20
ENDBRANCH   1  19
TORSDOF 7
