REMARK  Name = ZINC20999312
REMARK  7 active torsions:
REMARK  status: ('A' for Active; 'I' for Inactive)
REMARK    1  A    between atoms: C_4  and  C_7
REMARK    2  A    between atoms: N_12  and  C_15
REMARK    3  A    between atoms: C_15  and  C_16
REMARK    4  A    between atoms: C_19  and  C_24
REMARK    5  A    between atoms: N_26  and  C_27
REMARK    6  A    between atoms: C_27  and  C_28
REMARK    7  A    between atoms: C_28  and  N_34
REMARK                            x       y       z     vdW  Elec       q    Type
REMARK                         _______ _______ _______ _____ _____    ______ ____
ROOT
ATOM      1  C   UNL     1      -1.055   1.589  -1.189  0.00  0.00    +0.003 A 
ATOM      2  C   UNL     1      -1.128   2.944  -1.181  0.00  0.00    +0.020 A 
ATOM      3  C   UNL     1       0.006   3.704  -0.894  0.00  0.00    +0.020 A 
ATOM      4  C   UNL     1       1.204   3.050  -0.615  0.00  0.00    +0.101 A 
ATOM      5  C   UNL     1       1.228   1.631  -0.631  0.00  0.00    +0.261 A 
ATOM      6  O   UNL     1       2.264   1.035  -0.390  0.00  0.00    -0.267 OA
ATOM      7  N   UNL     1       0.104   0.946  -0.913  0.00  0.00    -0.327 N 
ATOM      8  H   UNL     1       0.138  -0.154  -0.918  0.00  0.00    +0.169 HD
ENDROOT
BRANCH   4   9
ATOM      9  C   UNL     1       2.421   3.816  -0.308  0.00  0.00    +0.249 C 
ATOM     10  O   UNL     1       3.436   3.236   0.029  0.00  0.00    -0.270 OA
ATOM     11  N   UNL     1       2.412   5.161  -0.400  0.00  0.00    -0.309 N 
ATOM     12  H   UNL     1       1.474   5.691  -0.624  0.00  0.00    +0.149 HD
BRANCH  11  13
ATOM     13  C   UNL     1       3.651   5.917  -0.202  0.00  0.00    +0.126 C 
BRANCH  13  14
ATOM     14  C   UNL     1       3.337   7.414  -0.178  0.00  0.00    +0.038 C 
ATOM     15  C   UNL     1       2.508   7.781  -1.411  0.00  0.00    +0.024 C 
ATOM     16  C   UNL     1       3.301   7.447  -2.676  0.00  0.00    +0.002 C 
ATOM     17  C   UNL     1       4.608   8.243  -2.684  0.00  0.00    +0.000 C 
ATOM     18  C   UNL     1       5.436   7.876  -1.451  0.00  0.00    +0.002 C 
ATOM     19  C   UNL     1       4.643   8.210  -0.186  0.00  0.00    +0.024 C 
BRANCH  14  20
ATOM     20  N   UNL     1       2.575   7.735   1.037  0.00  0.00    -0.291 NA
ATOM     21  C   UNL     1       3.406   7.569   2.239  0.00  0.00    +0.113 C 
ATOM     22  C   UNL     1       2.594   7.971   3.473  0.00  0.00    +0.175 C 
ATOM     23  O   UNL     1       1.400   7.185   3.528  0.00  0.00    -0.377 OA
ATOM     24  C   UNL     1       0.567   7.323   2.373  0.00  0.00    +0.175 C 
ATOM     25  C   UNL     1       1.358   6.916   1.128  0.00  0.00    +0.113 C 
ENDBRANCH  14  20
ENDBRANCH  13  14
ENDBRANCH  11  13
ENDBRANCH   4   9
BRANCH   1  26
ATOM     26  C   UNL     1      -2.290   0.784  -1.506  0.00  0.00    -0.025 C 
BRANCH  26  31
ATOM     27  C   UNL     1      -3.059  -1.081  -5.446  0.00  0.00    +0.017 C 
ATOM     28  C   UNL     1      -1.793  -0.396  -6.001  0.00  0.00    +0.006 C 
ATOM     29  C   UNL     1      -0.967   0.273  -4.889  0.00  0.00    -0.018 C 
ATOM     30  C   UNL     1      -1.848   0.972  -3.885  0.00  0.00    -0.078 C 
ATOM     31  N   UNL     1      -2.085   0.047  -2.760  0.00  0.00    +0.383 N 
ATOM     32  C   UNL     1      -3.111  -0.880  -2.970  0.00  0.00    -0.078 C 
ATOM     33  C   UNL     1      -2.801  -1.818  -4.157  0.00  0.00    -0.011 C 
ATOM     34  H   UNL     1      -1.203  -0.607  -2.688  0.00  0.00    -0.081 HD
BRANCH  27  38
ATOM     35  C   UNL     1      -4.516  -3.850  -8.353  0.00  0.00    +0.000 A 
ATOM     36  C   UNL     1      -5.291  -2.768  -7.980  0.00  0.00    +0.000 A 
ATOM     37  C   UNL     1      -4.819  -1.872  -7.039  0.00  0.00    +0.004 A 
ATOM     38  C   UNL     1      -3.573  -2.058  -6.471  0.00  0.00    -0.044 A 
ATOM     39  C   UNL     1      -2.796  -3.137  -6.848  0.00  0.00    +0.004 A 
ATOM     40  C   UNL     1      -3.270  -4.036  -7.786  0.00  0.00    +0.000 A 
ENDBRANCH  27  38
ENDBRANCH  26  31
ENDBRANCH   1  26
TORSDOF 7
