REMARK  Name = ZINC15956113
REMARK  15 active torsions:
REMARK  status: ('A' for Active; 'I' for Inactive)
REMARK    1  A    between atoms: C_1  and  C_2
REMARK    2  A    between atoms: C_2  and  C_3
REMARK    3  A    between atoms: C_3  and  C_4
REMARK    4  A    between atoms: C_4  and  N_81
REMARK    5  A    between atoms: C_5  and  C_6
REMARK    6  A    between atoms: C_5  and  N_81
REMARK    7  A    between atoms: C_6  and  C_7
REMARK    8  A    between atoms: C_7  and  C_8
REMARK    9  A    between atoms: C_9  and  C_10
REMARK   10  A    between atoms: C_9  and  N_81
REMARK   11  A    between atoms: C_10  and  C_11
REMARK   12  A    between atoms: C_11  and  N_12
REMARK   13  A    between atoms: C_32  and  C_34
REMARK   14  A    between atoms: C_39  and  O_40
REMARK   15  A    between atoms: O_40  and  C_41
REMARK                            x       y       z     vdW  Elec       q    Type
REMARK                         _______ _______ _______ _____ _____    ______ ____
ROOT
ATOM      1  N   UNL     1       5.551   1.134  -1.054  0.00  0.00    -0.291 N 
ATOM      2  C   UNL     1       5.006   2.038  -2.053  0.00  0.00    +0.203 C 
ATOM      3  C   UNL     1       3.957   2.937  -1.484  0.00  0.00    +0.234 C 
ATOM      4  O   UNL     1       3.414   3.719  -2.235  0.00  0.00    -0.274 OA
ATOM      5  N   UNL     1       3.578   2.938  -0.204  0.00  0.00    -0.276 N 
ATOM      6  C   UNL     1       4.209   2.104   0.817  0.00  0.00    +0.167 C 
ATOM      7  C   UNL     1       5.201   1.152   0.231  0.00  0.00    +0.237 C 
ATOM      8  O   UNL     1       5.722   0.346   0.973  0.00  0.00    -0.274 OA
ATOM      9  C   UNL     1       4.905   3.006   1.846  0.00  0.00    +0.069 C 
ATOM     10  C   UNL     1       3.970   4.127   2.220  0.00  0.00    -0.015 A 
ATOM     11  C   UNL     1       4.032   5.003   3.373  0.00  0.00    +0.003 A 
ATOM     12  C   UNL     1       4.920   5.090   4.449  0.00  0.00    +0.010 A 
ATOM     13  C   UNL     1       4.668   6.063   5.384  0.00  0.00    +0.001 A 
ATOM     14  C   UNL     1       3.589   6.925   5.276  0.00  0.00    +0.002 A 
ATOM     15  C   UNL     1       2.696   6.863   4.221  0.00  0.00    +0.026 A 
ATOM     16  C   UNL     1       2.926   5.883   3.256  0.00  0.00    +0.047 A 
ATOM     17  N   UNL     1       2.260   5.550   2.113  0.00  0.00    -0.356 N 
ATOM     18  H   UNL     1       1.461   5.991   1.783  0.00  0.00    +0.166 HD
ATOM     19  C   UNL     1       2.889   4.498   1.501  0.00  0.00    +0.046 A 
ATOM     20  C   UNL     1       2.469   3.822   0.215  0.00  0.00    +0.157 C 
ENDROOT
BRANCH  20  21
ATOM     21  C   UNL     1       1.224   3.006   0.448  0.00  0.00    +0.020 A 
ATOM     22  C   UNL     1       0.847   2.671   1.734  0.00  0.00    +0.009 A 
ATOM     23  C   UNL     1      -0.295   1.923   1.949  0.00  0.00    +0.001 A 
ATOM     24  C   UNL     1      -1.061   1.503   0.876  0.00  0.00    +0.004 A 
ATOM     25  C   UNL     1      -0.692   1.840  -0.411  0.00  0.00    +0.046 A 
ATOM     26  C   UNL     1       0.455   2.591  -0.629  0.00  0.00    +0.125 A 
BRANCH  26  27
ATOM     27  O   UNL     1       0.823   2.919  -1.895  0.00  0.00    -0.495 OA
ATOM     28  C   UNL     1      -0.017   2.458  -2.956  0.00  0.00    +0.277 C 
ENDBRANCH  26  27
ENDBRANCH  20  21
BRANCH   1  29
ATOM     29  C   UNL     1       6.543   0.146  -1.485  0.00  0.00    +0.106 C 
BRANCH  29  30
ATOM     30  C   UNL     1       7.946   0.744  -1.361  0.00  0.00    +0.000 C 
BRANCH  30  31
ATOM     31  C   UNL     1       8.982  -0.288  -1.811  0.00  0.00    -0.077 C 
BRANCH  31  32
ATOM     32  N   UNL     1      10.332   0.277  -1.608  0.00  0.00    +0.380 N 
ATOM     33  H   UNL     1      10.330   1.261  -1.901  0.00  0.00    -0.082 HD
BRANCH  32  34
ATOM     34  C   UNL     1      10.701   0.202  -0.178  0.00  0.00    -0.079 C 
BRANCH  34  35
ATOM     35  C   UNL     1      11.995   0.989   0.039  0.00  0.00    -0.019 C 
BRANCH  35  37
ATOM     36  C   UNL     1      13.673   1.726   1.737  0.00  0.00    +0.004 C 
ATOM     37  C   UNL     1      12.379   0.940   1.519  0.00  0.00    -0.005 C 
ENDBRANCH  35  37
ENDBRANCH  34  35
ENDBRANCH  32  34
BRANCH  32  38
ATOM     38  C   UNL     1      11.318  -0.464  -2.423  0.00  0.00    -0.079 C 
BRANCH  38  39
ATOM     39  C   UNL     1      11.203   0.004  -3.875  0.00  0.00    -0.019 C 
BRANCH  39  40
ATOM     40  C   UNL     1      12.193  -0.777  -4.742  0.00  0.00    -0.005 C 
ATOM     41  C   UNL     1      12.079  -0.309  -6.194  0.00  0.00    +0.004 C 
ENDBRANCH  39  40
ENDBRANCH  38  39
ENDBRANCH  32  38
ENDBRANCH  31  32
ENDBRANCH  30  31
ENDBRANCH  29  30
ENDBRANCH   1  29
TORSDOF 12
