REMARK  Name = ZINC08831324
REMARK  7 active torsions:
REMARK  status: ('A' for Active; 'I' for Inactive)
REMARK    1  A    between atoms: C_3  and  S_26
REMARK    2  A    between atoms: C_6  and  N_7
REMARK    3  A    between atoms: N_7  and  C_8
REMARK    4  A    between atoms: C_8  and  N_10
REMARK    5  A    between atoms: C_11  and  C_13
REMARK    6  A    between atoms: C_16  and  C_18
REMARK    7  A    between atoms: S_26  and  N_29
REMARK                            x       y       z     vdW  Elec       q    Type
REMARK                         _______ _______ _______ _____ _____    ______ ____
ROOT
ATOM      1  N   UNL     1      -4.771   2.242  -2.511  0.00  0.00    -0.261 N 
ATOM      2  C   UNL     1      -4.369   3.301  -1.780  0.00  0.00    +0.285 C 
ATOM      3  O   UNL     1      -5.082   4.283  -1.689  0.00  0.00    -0.266 OA
ATOM      4  H   UNL     1      -4.203   1.459  -2.583  0.00  0.00    +0.157 HD
ENDROOT
BRANCH   2   5
ATOM      5  C   UNL     1      -3.076   3.269  -1.095  0.00  0.00    +0.190 A 
ATOM      6  C   UNL     1      -2.546   4.277  -0.318  0.00  0.00    +0.055 A 
ATOM      7  C   UNL     1      -1.304   3.825   0.137  0.00  0.00    +0.051 A 
ATOM      8  C   UNL     1      -1.121   2.571  -0.373  0.00  0.00    +0.137 A 
ATOM      9  O   UNL     1      -2.192   2.248  -1.117  0.00  0.00    -0.450 OA
BRANCH   8  10
ATOM     10  C   UNL     1       0.060   1.715  -0.148  0.00  0.00    +0.036 A 
ATOM     11  C   UNL     1       1.345   2.223  -0.355  0.00  0.00    +0.014 A 
ATOM     12  C   UNL     1       2.444   1.417  -0.149  0.00  0.00    +0.021 A 
ATOM     13  C   UNL     1       2.277   0.104   0.261  0.00  0.00    +0.042 A 
ATOM     14  C   UNL     1       1.007  -0.407   0.469  0.00  0.00    +0.040 A 
ATOM     15  C   UNL     1      -0.102   0.390   0.266  0.00  0.00    +0.053 A 
ATOM     16 CL   UNL     1      -1.694  -0.253   0.525  0.00  0.00    -0.083 Cl
ATOM     17 CL   UNL     1       3.667  -0.904   0.518  0.00  0.00    -0.083 Cl
ENDBRANCH   8  10
ENDBRANCH   2   5
BRANCH   1  18
ATOM     18  C   UNL     1      -5.961   2.272  -3.142  0.00  0.00    +0.141 C 
ATOM     19  S   UNL     1      -6.964   3.654  -3.014  0.00  0.00    -0.018 S 
BRANCH  18  20
ATOM     20  N   UNL     1      -6.363   1.213  -3.873  0.00  0.00    -0.297 N 
ATOM     21  H   UNL     1      -5.770   0.456  -3.996  0.00  0.00    +0.154 HD
BRANCH  20  27
ATOM     22  C   UNL     1      -8.434   0.075  -4.370  0.00  0.00    +0.025 A 
ATOM     23  C   UNL     1      -9.692   0.074  -4.940  0.00  0.00    +0.030 A 
ATOM     24  C   UNL     1     -10.151   1.196  -5.606  0.00  0.00    +0.105 A 
ATOM     25  C   UNL     1      -9.356   2.323  -5.697  0.00  0.00    +0.030 A 
ATOM     26  C   UNL     1      -8.100   2.332  -5.124  0.00  0.00    +0.025 A 
ATOM     27  C   UNL     1      -7.635   1.207  -4.455  0.00  0.00    +0.033 A 
BRANCH  24  28
ATOM     28  S   UNL     1     -11.754   1.189  -6.337  0.00  0.00    +0.056 S 
ATOM     29  O   UNL     1     -12.514   0.209  -5.643  0.00  0.00    -0.153 OA
ATOM     30  O   UNL     1     -12.165   2.546  -6.429  0.00  0.00    -0.153 OA
BRANCH  28  31
ATOM     31  N   UNL     1     -11.581   0.640  -7.890  0.00  0.00    -0.204 NA
ATOM     32  H   UNL     1     -10.703   0.397  -8.224  0.00  0.00    +0.144 HD
ATOM     33  H   UNL     1     -12.357   0.562  -8.466  0.00  0.00    +0.144 HD
ENDBRANCH  28  31
ENDBRANCH  24  28
ENDBRANCH  20  27
ENDBRANCH  18  20
ENDBRANCH   1  18
TORSDOF 7
