REMARK  Name = ZINC13831809
REMARK  0 active torsions:
REMARK  status: ('A' for Active; 'I' for Inactive)
REMARK                            x       y       z     vdW  Elec       q    Type
REMARK                         _______ _______ _______ _____ _____    ______ ____
ROOT
ATOM      1  C   UNL     1      -0.017   1.378   0.010  0.00  0.00    +0.122 A 
ATOM      2  C   UNL     1       0.002  -0.004   0.002  0.00  0.00    +0.204 A 
ATOM      3  C   UNL     1      -1.222  -0.704   0.010  0.00  0.00    +0.104 A 
ATOM      4  C   UNL     1      -2.386  -0.019   0.026  0.00  0.00    +0.109 A 
ATOM      5  N   UNL     1      -2.396   1.340   0.033  0.00  0.00    -0.327 N 
ATOM      6  C   UNL     1      -1.248   2.043   0.031  0.00  0.00    +0.252 A 
ATOM      7  O   UNL     1      -1.281   3.264   0.038  0.00  0.00    -0.268 OA
ATOM      8 CL   UNL     1      -1.232  -2.440   0.001  0.00  0.00    -0.078 Cl
ATOM      9  O   UNL     1       1.178  -0.676  -0.014  0.00  0.00    -0.286 OA
ATOM     10  H   UNL     1      -3.244   1.811   0.043  0.00  0.00    +0.168 HD
ENDROOT
TORSDOF 0
