REMARK  Name = ZINC11440890
REMARK  10 active torsions:
REMARK  status: ('A' for Active; 'I' for Inactive)
REMARK    1  A    between atoms: C_1  and  C_2
REMARK    2  A    between atoms: C_3  and  C_35
REMARK    3  A    between atoms: C_11  and  C_13
REMARK    4  A    between atoms: C_13  and  C_15
REMARK    5  A    between atoms: C_13  and  O_16
REMARK    6  A    between atoms: O_16  and  C_17
REMARK    7  A    between atoms: C_17  and  C_19
REMARK    8  A    between atoms: C_19  and  C_20
REMARK    9  A    between atoms: C_20  and  N_21
REMARK   10  A    between atoms: N_24  and  C_25
REMARK                            x       y       z     vdW  Elec       q    Type
REMARK                         _______ _______ _______ _____ _____    ______ ____
ROOT
ATOM      1  C   UNL     1       4.399   3.957   1.370  0.00  0.00    +0.309 C 
ATOM      2  O   UNL     1       5.043   4.040   0.352  0.00  0.00    -0.251 OA
ENDROOT
BRANCH   1   3
ATOM      3  O   UNL     1       3.058   3.933   1.316  0.00  0.00    -0.454 OA
BRANCH   3   4
ATOM      4  C   UNL     1       2.450   4.011  -0.000  0.00  0.00    +0.239 C 
ATOM      5  C   UNL     1       2.207   5.477  -0.364  0.00  0.00    +0.060 C 
BRANCH   4  16
ATOM      6  C   UNL     1      -2.863  -0.078   0.016  0.00  0.00    +0.045 C 
ATOM      7  C   UNL     1      -2.614   1.409   0.022  0.00  0.00    -0.026 A 
ATOM      8  C   UNL     1      -3.644   2.270   0.031  0.00  0.00    -0.008 A 
ATOM      9  S   UNL     1      -2.848   3.865   0.048  0.00  0.00    -0.073 S 
ATOM     10  C   UNL     1      -1.157   3.329   0.030  0.00  0.00    +0.116 A 
ATOM     11  C   UNL     1      -1.259   1.926   0.018  0.00  0.00    +0.075 A 
ATOM     12  C   UNL     1      -0.015   1.215   0.009  0.00  0.00    +0.260 A 
ATOM     13  O   UNL     1       0.002  -0.004   0.002  0.00  0.00    -0.267 OA
ATOM     14  N   UNL     1       1.136   1.914   0.002  0.00  0.00    -0.307 N 
ATOM     15  H   UNL     1       1.981   1.438  -0.009  0.00  0.00    +0.170 HD
ATOM     16  C   UNL     1       1.137   3.272   0.008  0.00  0.00    +0.152 A 
ATOM     17  N   UNL     1       0.019   3.949   0.022  0.00  0.00    -0.223 NA
ATOM     18  C   UNL     1      -5.119   1.962   0.035  0.00  0.00    +0.052 C 
ENDBRANCH   4  16
ENDBRANCH   3   4
ENDBRANCH   1   3
BRANCH   1  19
ATOM     19  C   UNL     1       5.100   3.880   2.702  0.00  0.00    +0.139 C 
BRANCH  19  20
ATOM     20  C   UNL     1       6.614   3.925   2.484  0.00  0.00    +0.117 C 
BRANCH  20  21
ATOM     21  N   UNL     1       7.296   3.850   3.778  0.00  0.00    -0.299 N 
ATOM     22  C   UNL     1       8.643   3.874   3.833  0.00  0.00    +0.300 C 
ATOM     23  O   UNL     1       9.291   3.957   2.808  0.00  0.00    -0.253 OA
ATOM     24  N   UNL     1       9.270   3.805   5.024  0.00  0.00    -0.294 N 
ATOM     25  H   UNL     1       6.779   3.784   4.596  0.00  0.00    +0.150 HD
ATOM     26  H   UNL     1       8.753   3.738   5.841  0.00  0.00    +0.151 HD
BRANCH  24  27
ATOM     27  C   UNL     1      10.734   3.830   5.083  0.00  0.00    +0.037 C 
ATOM     28  C   UNL     1      11.296   2.643   4.299  0.00  0.00    +0.029 C 
ATOM     29  C   UNL     1      12.825   2.670   4.361  0.00  0.00    -0.008 C 
ATOM     30  C   UNL     1      13.278   2.579   5.819  0.00  0.00    +0.007 C 
ATOM     31  C   UNL     1      12.715   3.766   6.603  0.00  0.00    -0.008 C 
ATOM     32  C   UNL     1      11.187   3.739   6.541  0.00  0.00    +0.029 C 
ATOM     33  C   UNL     1      13.228   5.071   5.990  0.00  0.00    +0.007 C 
ATOM     34  C   UNL     1      12.775   5.162   4.532  0.00  0.00    -0.008 C 
ATOM     35  C   UNL     1      13.338   3.974   3.748  0.00  0.00    +0.007 C 
ATOM     36  C   UNL     1      11.246   5.135   4.470  0.00  0.00    +0.029 C 
ENDBRANCH  24  27
ENDBRANCH  20  21
ENDBRANCH  19  20
ENDBRANCH   1  19
TORSDOF 7
