REMARK  Name = ZINC64721160
REMARK  10 active torsions:
REMARK  status: ('A' for Active; 'I' for Inactive)
REMARK    1  A    between atoms: C_1  and  C_2
REMARK    2  A    between atoms: C_2  and  C_4
REMARK    3  A    between atoms: C_2  and  N_16
REMARK    4  A    between atoms: N_6  and  C_7
REMARK    5  A    between atoms: N_16  and  C_17
REMARK    6  A    between atoms: C_17  and  C_18
REMARK    7  A    between atoms: C_18  and  C_20
REMARK    8  A    between atoms: C_18  and  C_28
REMARK    9  A    between atoms: C_23  and  O_26
REMARK   10  A    between atoms: O_26  and  C_27
REMARK                            x       y       z     vdW  Elec       q    Type
REMARK                         _______ _______ _______ _____ _____    ______ ____
ROOT
ATOM      1  C   UNL     1       2.119  -0.072   1.127  0.00  0.00    -0.069 C 
ENDROOT
BRANCH   1   2
ATOM      2  N   UNL     1       0.712  -0.488   1.193  0.00  0.00    +0.387 N 
ATOM      3  H   UNL     1       0.286  -0.103   2.023  0.00  0.00    -0.085 HD
ATOM      4  H   UNL     1       0.660  -1.495   1.225  0.00  0.00    -0.085 HD
BRANCH   2   6
ATOM      5  C   UNL     1      -0.029   1.531   0.022  0.00  0.00    -0.004 C 
ATOM      6  C   UNL     1       0.000   0.002   0.005  0.00  0.00    +0.013 C 
BRANCH   6   7
ATOM      7  C   UNL     1      -1.411  -0.527   0.012  0.00  0.00    +0.203 C 
ATOM      8  O   UNL     1      -1.787  -1.242   0.917  0.00  0.00    -0.277 OA
ATOM      9  N   UNL     1      -2.256  -0.206  -0.988  0.00  0.00    -0.287 N 
ATOM     10  H   UNL     1      -1.977   0.418  -1.677  0.00  0.00    +0.155 HD
BRANCH   9  11
ATOM     11  C   UNL     1      -3.535  -0.774  -1.034  0.00  0.00    +0.037 A 
ATOM     12  C   UNL     1      -4.114  -1.085  -2.257  0.00  0.00    +0.027 A 
ATOM     13  C   UNL     1      -5.376  -1.645  -2.304  0.00  0.00    +0.051 A 
ATOM     14  C   UNL     1      -6.068  -1.899  -1.131  0.00  0.00    +0.166 A 
ATOM     15  C   UNL     1      -5.490  -1.589   0.098  0.00  0.00    +0.168 A 
ATOM     16  C   UNL     1      -4.223  -1.032   0.144  0.00  0.00    +0.072 A 
ATOM     17  O   UNL     1      -6.364  -1.930   1.090  0.00  0.00    -0.453 OA
ATOM     18  C   UNL     1      -7.643  -2.072   0.443  0.00  0.00    +0.466 C 
ATOM     19  O   UNL     1      -7.304  -2.435  -0.908  0.00  0.00    -0.453 OA
ENDBRANCH   9  11
ENDBRANCH   6   7
ENDBRANCH   2   6
ENDBRANCH   1   2
BRANCH   1  20
ATOM     20  C   UNL     1       2.861  -0.582   2.364  0.00  0.00    +0.030 C 
BRANCH  20  21
ATOM     21  C   UNL     1       2.305   0.087   3.595  0.00  0.00    -0.036 C 
ATOM     22  C   UNL     1       1.731  -0.517   4.660  0.00  0.00    -0.001 A 
ATOM     23  C   UNL     1       1.462  -1.924   4.980  0.00  0.00    +0.010 A 
ATOM     24  C   UNL     1       0.858  -2.227   6.152  0.00  0.00    +0.001 A 
ATOM     25  C   UNL     1       0.484  -1.233   7.066  0.00  0.00    +0.002 A 
ATOM     26  C   UNL     1       0.698   0.081   6.843  0.00  0.00    +0.026 A 
ATOM     27  C   UNL     1       1.326   0.514   5.643  0.00  0.00    +0.043 A 
ATOM     28  N   UNL     1       1.638   1.708   5.202  0.00  0.00    -0.380 N 
ATOM     29  C   UNL     1       2.281   1.570   3.891  0.00  0.00    +0.145 C 
ATOM     30  H   UNL     1       1.474   2.544   5.667  0.00  0.00    +0.160 HD
ENDBRANCH  20  21
BRANCH  20  31
ATOM     31  C   UNL     1       4.328  -0.263   2.238  0.00  0.00    -0.042 A 
ATOM     32  C   UNL     1       4.741   1.052   2.125  0.00  0.00    +0.008 A 
ATOM     33  C   UNL     1       6.085   1.347   2.008  0.00  0.00    +0.046 A 
ATOM     34  C   UNL     1       7.021   0.324   2.006  0.00  0.00    +0.120 A 
ATOM     35  C   UNL     1       6.605  -0.995   2.120  0.00  0.00    +0.046 A 
ATOM     36  C   UNL     1       5.260  -1.284   2.241  0.00  0.00    +0.008 A 
BRANCH  34  37
ATOM     37  O   UNL     1       8.345   0.612   1.891  0.00  0.00    -0.495 OA
ATOM     38  C   UNL     1       9.252  -0.492   1.896  0.00  0.00    +0.277 C 
ENDBRANCH  34  37
ENDBRANCH  20  31
ENDBRANCH   1  20
TORSDOF 8
