REMARK  Name = ZINC41586669
REMARK  9 active torsions:
REMARK  status: ('A' for Active; 'I' for Inactive)
REMARK    1  A    between atoms: C_1  and  C_2
REMARK    2  A    between atoms: C_2  and  O_3
REMARK    3  A    between atoms: O_3  and  C_4
REMARK    4  A    between atoms: C_4  and  C_6
REMARK    5  A    between atoms: N_11  and  C_13
REMARK    6  A    between atoms: C_13  and  C_14
REMARK    7  A    between atoms: C_15  and  O_33
REMARK    8  A    between atoms: C_22  and  O_25
REMARK    9  A    between atoms: O_25  and  C_26
REMARK                            x       y       z     vdW  Elec       q    Type
REMARK                         _______ _______ _______ _____ _____    ______ ____
ROOT
ATOM      1  C   UNL     1      -5.448  -6.606  -0.164  0.00  0.00    +0.020 A 
ATOM      2  C   UNL     1      -6.104  -7.081   0.960  0.00  0.00    +0.122 A 
ATOM      3  C   UNL     1      -7.312  -7.764   0.839  0.00  0.00    +0.046 A 
ATOM      4  C   UNL     1      -7.868  -7.974  -0.391  0.00  0.00    +0.019 A 
ATOM      5  C   UNL     1      -7.220  -7.501  -1.532  0.00  0.00    +0.068 A 
ATOM      6  C   UNL     1      -6.002  -6.806  -1.420  0.00  0.00    +0.143 A 
ATOM      7  O   UNL     1      -5.387  -6.350  -2.530  0.00  0.00    -0.459 OA
ATOM      8  C   UNL     1      -5.894  -6.527  -3.757  0.00  0.00    +0.245 A 
ATOM      9  C   UNL     1      -7.056  -7.174  -3.978  0.00  0.00    +0.210 A 
ATOM     10  C   UNL     1      -7.785  -7.707  -2.877  0.00  0.00    +0.235 A 
ATOM     11  O   UNL     1      -8.839  -8.298  -3.039  0.00  0.00    -0.283 OA
ENDROOT
BRANCH   2  12
ATOM     12  O   UNL     1      -5.564  -6.880   2.189  0.00  0.00    -0.506 OA
ATOM     13  H   UNL     1      -5.846  -6.058   2.613  0.00  0.00    +0.292 HD
ENDBRANCH   2  12
BRANCH   1  14
ATOM     14  C   UNL     1      -4.141  -5.868  -0.022  0.00  0.00    -0.036 C 
BRANCH  14  19
ATOM     15  C   UNL     1      -3.403  -2.197   0.229  0.00  0.00    +0.081 C 
ATOM     16  C   UNL     1      -4.177  -1.894   1.515  0.00  0.00    +0.011 C 
ATOM     17  C   UNL     1      -5.468  -2.719   1.529  0.00  0.00    -0.018 C 
ATOM     18  C   UNL     1      -5.120  -4.203   1.398  0.00  0.00    -0.078 C 
ATOM     19  N   UNL     1      -4.405  -4.432   0.137  0.00  0.00    +0.383 N 
ATOM     20  C   UNL     1      -3.132  -3.701   0.145  0.00  0.00    -0.064 C 
ATOM     21  H   UNL     1      -4.971  -4.109  -0.633  0.00  0.00    -0.081 HD
BRANCH  15  22
ATOM     22  C   UNL     1      -2.095  -1.450   0.241  0.00  0.00    +0.308 C 
ATOM     23  O   UNL     1      -1.052  -2.057   0.186  0.00  0.00    -0.251 OA
BRANCH  22  24
ATOM     24  O   UNL     1      -2.089  -0.109   0.312  0.00  0.00    -0.465 OA
BRANCH  24  26
ATOM     25  C   UNL     1      -1.006   2.050   0.405  0.00  0.00    +0.048 C 
ATOM     26  C   UNL     1      -0.813   0.534   0.319  0.00  0.00    +0.229 C 
ENDBRANCH  24  26
ENDBRANCH  22  24
ENDBRANCH  15  22
ENDBRANCH  14  19
ENDBRANCH   1  14
BRANCH   9  27
ATOM     27  O   UNL     1      -7.525  -7.324  -5.247  0.00  0.00    -0.448 OA
BRANCH  27  28
ATOM     28  C   UNL     1      -8.669  -6.673  -5.586  0.00  0.00    +0.143 A 
ATOM     29  C   UNL     1      -9.259  -5.793  -4.691  0.00  0.00    +0.047 A 
ATOM     30  C   UNL     1     -10.421  -5.132  -5.038  0.00  0.00    +0.004 A 
ATOM     31  C   UNL     1     -10.996  -5.346  -6.277  0.00  0.00    +0.001 A 
ATOM     32  C   UNL     1     -10.411  -6.223  -7.172  0.00  0.00    +0.019 A 
ATOM     33  C   UNL     1      -9.245  -6.883  -6.832  0.00  0.00    +0.060 A 
ATOM     34 BR   UNL     1      -8.440  -8.075  -8.059  0.00  0.00    -0.046 Br
ENDBRANCH  27  28
ENDBRANCH   9  27
TORSDOF 8
