REMARK  Name = ZINC38759712
REMARK  6 active torsions:
REMARK  status: ('A' for Active; 'I' for Inactive)
REMARK    1  A    between atoms: C_3  and  C_8
REMARK    2  A    between atoms: C_8  and  O_9
REMARK    3  A    between atoms: O_9  and  C_10
REMARK    4  A    between atoms: C_13  and  C_17
REMARK    5  A    between atoms: C_14  and  O_16
REMARK    6  A    between atoms: C_19  and  C_23
REMARK                            x       y       z     vdW  Elec       q    Type
REMARK                         _______ _______ _______ _____ _____    ______ ____
ROOT
ATOM      1  C   UNL     1       5.252   3.110   1.494  0.00  0.00    +0.124 A 
ATOM      2  C   UNL     1       5.965   3.554   0.389  0.00  0.00    +0.046 A 
ATOM      3  C   UNL     1       7.143   4.255   0.562  0.00  0.00    +0.013 A 
ATOM      4  C   UNL     1       7.615   4.516   1.835  0.00  0.00    +0.022 A 
ATOM      5  C   UNL     1       6.906   4.073   2.943  0.00  0.00    +0.126 A 
ATOM      6  C   UNL     1       5.720   3.375   2.772  0.00  0.00    +0.091 A 
ENDROOT
BRANCH   4   7
ATOM      7  C   UNL     1       8.901   5.279   2.020  0.00  0.00    +0.164 C 
ATOM      8  C   UNL     1      10.080   4.329   2.128  0.00  0.00    +0.008 C 
ATOM      9  C   UNL     1      10.854   4.659   1.067  0.00  0.00    +0.139 C 
ATOM     10  N   UNL     1      10.294   5.655   0.368  0.00  0.00    -0.185 NA
ATOM     11  N   UNL     1       9.217   6.066   0.816  0.00  0.00    -0.297 N 
ATOM     12  H   UNL     1       8.676   6.779   0.442  0.00  0.00    +0.183 HD
BRANCH   8  13
ATOM     13  C   UNL     1      10.325   3.294   3.145  0.00  0.00    -0.018 A 
ATOM     14  C   UNL     1       9.473   2.189   3.243  0.00  0.00    +0.010 A 
ATOM     15  C   UNL     1       9.709   1.223   4.198  0.00  0.00    +0.020 A 
ATOM     16  C   UNL     1      10.787   1.345   5.060  0.00  0.00    +0.041 A 
ATOM     17  C   UNL     1      11.635   2.437   4.969  0.00  0.00    +0.020 A 
ATOM     18  C   UNL     1      11.414   3.408   4.015  0.00  0.00    +0.010 A 
ATOM     19 CL   UNL     1      11.075   0.125   6.260  0.00  0.00    -0.084 Cl
ENDBRANCH   8  13
ENDBRANCH   4   7
BRANCH   5  20
ATOM     20  O   UNL     1       7.370   4.330   4.194  0.00  0.00    -0.506 OA
ATOM     21  H   UNL     1       7.051   5.162   4.569  0.00  0.00    +0.292 HD
ENDBRANCH   5  20
BRANCH   1  22
ATOM     22  O   UNL     1       4.094   2.421   1.323  0.00  0.00    -0.487 OA
BRANCH  22  23
ATOM     23  C   UNL     1       3.672   2.184  -0.021  0.00  0.00    +0.264 C 
BRANCH  23  26
ATOM     24  C   UNL     1      -0.017   1.378   0.010  0.00  0.00    +0.002 A 
ATOM     25  C   UNL     1       1.171   2.086   0.002  0.00  0.00    +0.007 A 
ATOM     26  C   UNL     1       2.378   1.412  -0.013  0.00  0.00    -0.009 A 
ATOM     27  C   UNL     1       2.398   0.029  -0.021  0.00  0.00    +0.027 A 
ATOM     28  C   UNL     1       1.210  -0.679  -0.013  0.00  0.00    +0.041 A 
ATOM     29  C   UNL     1       0.002  -0.004   0.002  0.00  0.00    +0.020 A 
ATOM     30 CL   UNL     1       1.234  -2.415  -0.024  0.00  0.00    -0.084 Cl
ENDBRANCH  23  26
ENDBRANCH  22  23
ENDBRANCH   1  22
TORSDOF 6
