REMARK  Name = ZINC03830610
REMARK  6 active torsions:
REMARK  status: ('A' for Active; 'I' for Inactive)
REMARK    1  A    between atoms: C_1  and  C_2
REMARK    2  A    between atoms: C_2  and  C_26
REMARK    3  A    between atoms: CA_3  and  C_23
REMARK    4  A    between atoms: CA_9  and  N_13
REMARK    5  A    between atoms: C_14  and  C_16
REMARK    6  A    between atoms: C_16  and  N_22
REMARK                            x       y       z     vdW  Elec       q    Type
REMARK                         _______ _______ _______ _____ _____    ______ ____
ROOT
ATOM      1  N   UNL     1       1.385  -3.178   1.091  0.00  0.00    -0.303 N 
ATOM      2  C   UNL     1       2.100  -4.316   1.195  0.00  0.00    +0.202 C 
ATOM      3  O   UNL     1       1.573  -5.327   1.609  0.00  0.00    -0.277 OA
ATOM      4  H   UNL     1       1.806  -2.370   0.759  0.00  0.00    +0.149 HD
ENDROOT
BRANCH   1  11
ATOM      5  C   UNL     1       0.374   0.964  -1.147  0.00  0.00    +0.025 C 
ATOM      6  C   UNL     1       0.241  -0.433  -0.538  0.00  0.00    +0.042 C 
ATOM      7  CA  UNL     1      -1.247  -0.895  -0.479  0.00  0.00    +0.206 C 
ATOM      8  N   UNL     1      -1.411  -1.927   0.546  0.00  0.00    -0.271 N 
ATOM      9  C   UNL     1      -0.580  -1.770   1.747  0.00  0.00    +0.165 C 
ATOM     10  S   UNL     1       0.587  -0.422   1.279  0.00  0.00    -0.127 S 
ATOM     11  CA  UNL     1      -0.028  -3.163   1.479  0.00  0.00    +0.190 C 
ATOM     12  C   UNL     1      -0.980  -3.176   0.321  0.00  0.00    +0.240 C 
ATOM     13  O   UNL     1      -1.258  -4.011  -0.513  0.00  0.00    -0.273 OA
ATOM     14  C   UNL     1       1.119  -1.449  -1.273  0.00  0.00    +0.025 C 
BRANCH   7  15
ATOM     15  C   UNL     1      -1.651  -1.454  -1.819  0.00  0.00    +0.377 C 
ATOM     16  O   UNL     1      -2.205  -2.538  -1.885  0.00  0.00    -0.244 OA
ATOM     17  OXT UNL     1      -1.423  -0.822  -2.837  0.00  0.00    -0.244 OA
ENDBRANCH   7  15
ENDBRANCH   1  11
BRANCH   2  18
ATOM     18  C   UNL     1       3.553  -4.332   0.796  0.00  0.00    +0.007 C 
ATOM     19  C   UNL     1       4.247  -5.531   1.445  0.00  0.00    -0.004 C 
ATOM     20  C   UNL     1       3.575  -6.824   0.978  0.00  0.00    -0.001 C 
ATOM     21  C   UNL     1       3.685  -6.934  -0.544  0.00  0.00    -0.000 C 
ATOM     22  C   UNL     1       2.991  -5.735  -1.194  0.00  0.00    -0.001 C 
ATOM     23  C   UNL     1       3.663  -4.442  -0.726  0.00  0.00    -0.004 C 
BRANCH  18  24
ATOM     24  N   UNL     1       4.197  -3.091   1.245  0.00  0.00    +0.388 N 
ATOM     25  H   UNL     1       4.125  -3.018   2.249  0.00  0.00    -0.089 HD
ATOM     26  H   UNL     1       5.170  -3.101   0.978  0.00  0.00    -0.089 HD
ATOM     27  H   UNL     1       3.740  -2.300   0.817  0.00  0.00    -0.089 HD
ENDBRANCH  18  24
ENDBRANCH   2  18
TORSDOF 4
