REMARK  Name = ZINC63751599
REMARK  10 active torsions:
REMARK  status: ('A' for Active; 'I' for Inactive)
REMARK    1  A    between atoms: C_1  and  C_2
REMARK    2  A    between atoms: C_6  and  C_15
REMARK    3  A    between atoms: C_13  and  C_14
REMARK    4  A    between atoms: C_15  and  S_16
REMARK    5  A    between atoms: S_16  and  C_17
REMARK    6  A    between atoms: C_20  and  N_23
REMARK    7  A    between atoms: C_24  and  C_26
REMARK    8  A    between atoms: C_26  and  C_27
REMARK    9  A    between atoms: C_30  and  O_33
REMARK   10  A    between atoms: O_33  and  C_34
REMARK                            x       y       z     vdW  Elec       q    Type
REMARK                         _______ _______ _______ _____ _____    ______ ____
ROOT
ATOM      1  C   UNL     1      -2.513  -5.002  -5.464  0.00  0.00    +0.008 A 
ATOM      2  C   UNL     1      -3.356  -5.811  -4.713  0.00  0.00    +0.016 A 
ATOM      3  C   UNL     1      -4.511  -6.316  -5.276  0.00  0.00    +0.024 A 
ATOM      4  C   UNL     1      -4.830  -6.014  -6.593  0.00  0.00    +0.033 A 
ATOM      5  C   UNL     1      -3.988  -5.205  -7.345  0.00  0.00    +0.024 A 
ATOM      6  C   UNL     1      -2.836  -4.695  -6.780  0.00  0.00    +0.016 A 
ENDROOT
BRANCH   4   7
ATOM      7  N   UNL     1      -6.003  -6.526  -7.165  0.00  0.00    -0.285 N 
ATOM      8  C   UNL     1      -7.101  -6.705  -6.404  0.00  0.00    +0.222 C 
ATOM      9  O   UNL     1      -7.106  -6.335  -5.250  0.00  0.00    -0.275 OA
ATOM     10  H   UNL     1      -6.024  -6.752  -8.108  0.00  0.00    +0.155 HD
BRANCH   8  11
ATOM     11  C   UNL     1      -8.323  -7.366  -6.989  0.00  0.00    +0.131 C 
BRANCH  11  12
ATOM     12  C   UNL     1      -9.402  -7.444  -5.940  0.00  0.00    -0.038 A 
ATOM     13  C   UNL     1      -9.479  -8.548  -5.111  0.00  0.00    +0.007 A 
ATOM     14  C   UNL     1     -10.467  -8.623  -4.148  0.00  0.00    +0.046 A 
ATOM     15  C   UNL     1     -11.382  -7.589  -4.014  0.00  0.00    +0.120 A 
ATOM     16  C   UNL     1     -11.303  -6.483  -4.847  0.00  0.00    +0.046 A 
ATOM     17  C   UNL     1     -10.309  -6.410  -5.804  0.00  0.00    +0.007 A 
BRANCH  15  18
ATOM     18  O   UNL     1     -12.356  -7.661  -3.068  0.00  0.00    -0.495 OA
ATOM     19  C   UNL     1     -13.264  -6.560  -2.987  0.00  0.00    +0.277 C 
ENDBRANCH  15  18
ENDBRANCH  11  12
ENDBRANCH   8  11
ENDBRANCH   4   7
BRANCH   1  20
ATOM     20  S   UNL     1      -1.038  -4.358  -4.745  0.00  0.00    -0.123 S 
BRANCH  20  21
ATOM     21  C   UNL     1      -1.050  -5.017  -3.055  0.00  0.00    +0.108 C 
BRANCH  21  27
ATOM     22  C   UNL     1      -0.050   0.900   0.657  0.00  0.00    +0.044 C 
ATOM     23  C   UNL     1       0.050  -0.591   0.457  0.00  0.00    -0.045 A 
ATOM     24  C   UNL     1       0.020  -1.090  -0.798  0.00  0.00    +0.030 A 
ATOM     25  C   UNL     1       0.117  -2.547  -0.985  0.00  0.00    +0.058 A 
ATOM     26  N   UNL     1       0.092  -3.067  -2.178  0.00  0.00    -0.372 N 
ATOM     27  C   UNL     1       0.193  -4.529  -2.309  0.00  0.00    +0.176 C 
ATOM     28  C   UNL     1       0.321  -5.346  -1.044  0.00  0.00    +0.240 C 
ATOM     29  O   UNL     1       0.408  -6.556  -1.098  0.00  0.00    -0.273 OA
ATOM     30  N   UNL     1       0.337  -4.719   0.135  0.00  0.00    -0.282 N 
ATOM     31  C   UNL     1       0.245  -3.403   0.222  0.00  0.00    +0.057 A 
ATOM     32  C   UNL     1       0.266  -2.772   1.486  0.00  0.00    +0.029 A 
ATOM     33  C   UNL     1       0.177  -1.424   1.580  0.00  0.00    -0.046 A 
ATOM     34  C   UNL     1       0.210  -0.793   2.948  0.00  0.00    +0.044 C 
ATOM     35  H   UNL     1       0.009  -2.503  -2.963  0.00  0.00    +0.160 HD
ATOM     36  H   UNL     1       0.418  -5.242   0.948  0.00  0.00    +0.155 HD
ENDBRANCH  21  27
ENDBRANCH  20  21
ENDBRANCH   1  20
TORSDOF 7
