REMARK  Name = ZINC58964852
REMARK  9 active torsions:
REMARK  status: ('A' for Active; 'I' for Inactive)
REMARK    1  A    between atoms: C_1  and  C_2
REMARK    2  A    between atoms: C_5  and  O_30
REMARK    3  A    between atoms: C_6  and  N_8
REMARK    4  A    between atoms: C_9  and  C_11
REMARK    5  A    between atoms: C_11  and  C_13
REMARK    6  A    between atoms: C_11  and  S_14
REMARK    7  A    between atoms: S_14  and  C_15
REMARK    8  A    between atoms: C_17  and  C_25
REMARK    9  A    between atoms: C_19  and  C_21
REMARK                            x       y       z     vdW  Elec       q    Type
REMARK                         _______ _______ _______ _____ _____    ______ ____
ROOT
ATOM      1  S   UNL     1       0.969  -1.807   6.138  0.00  0.00    -0.074 S 
ENDROOT
BRANCH   1   2
ATOM      2  C   UNL     1       1.195  -2.870   7.525  0.00  0.00    +0.190 A 
ATOM      3  N   UNL     1       1.690  -2.370   8.647  0.00  0.00    -0.221 NA
ATOM      4  C   UNL     1       1.872  -3.149   9.714  0.00  0.00    +0.082 A 
ATOM      5  C   UNL     1       1.532  -4.506   9.629  0.00  0.00    +0.061 A 
ATOM      6  C   UNL     1       1.020  -4.982   8.437  0.00  0.00    +0.148 A 
ATOM      7  N   UNL     1       0.861  -4.149   7.420  0.00  0.00    -0.218 NA
BRANCH   4   8
ATOM      8  C   UNL     1       2.424  -2.592  10.964  0.00  0.00    +0.038 A 
ATOM      9  C   UNL     1       2.807  -1.305  11.240  0.00  0.00    +0.017 A 
ATOM     10  C   UNL     1       3.298  -1.016  12.492  0.00  0.00    +0.008 A 
ATOM     11  C   UNL     1       3.390  -2.011  13.414  0.00  0.00    +0.046 A 
ATOM     12  S   UNL     1       2.758  -3.416  12.512  0.00  0.00    -0.095 S 
ENDBRANCH   4   8
BRANCH   6  13
ATOM     13  C   UNL     1       0.641  -6.434   8.298  0.00  0.00    +0.434 C 
ATOM     14  F   UNL     1      -0.697  -6.604   8.669  0.00  0.00    -0.164 F 
ATOM     15  F   UNL     1       0.811  -6.835   6.969  0.00  0.00    -0.164 F 
ATOM     16  F   UNL     1       1.457  -7.211   9.128  0.00  0.00    -0.164 F 
ENDBRANCH   6  13
ENDBRANCH   1   2
BRANCH   1  17
ATOM     17  C   UNL     1       0.279  -2.894   4.860  0.00  0.00    +0.137 C 
ATOM     18  C   UNL     1      -1.101  -3.388   5.301  0.00  0.00    +0.029 C 
BRANCH  17  20
ATOM     19  N   UNL     1       0.050  -2.795   2.399  0.00  0.00    -0.282 N 
ATOM     20  C   UNL     1       0.149  -2.130   3.568  0.00  0.00    +0.230 C 
ATOM     21  O   UNL     1       0.134  -0.917   3.579  0.00  0.00    -0.274 OA
ATOM     22  H   UNL     1      -0.002  -3.763   2.395  0.00  0.00    +0.155 HD
BRANCH  19  28
ATOM     23  C   UNL     1      -1.307   1.189  -0.143  0.00  0.00    +0.044 C 
ATOM     24  C   UNL     1      -0.627  -0.153  -0.071  0.00  0.00    -0.048 A 
ATOM     25  C   UNL     1      -0.029  -0.685  -1.199  0.00  0.00    +0.007 A 
ATOM     26  C   UNL     1       0.596  -1.917  -1.139  0.00  0.00    +0.047 A 
ATOM     27  C   UNL     1       0.625  -2.622   0.054  0.00  0.00    +0.138 A 
ATOM     28  C   UNL     1       0.024  -2.086   1.191  0.00  0.00    +0.076 A 
ATOM     29  C   UNL     1      -0.597  -0.847   1.124  0.00  0.00    +0.030 A 
BRANCH  27  30
ATOM     30  O   UNL     1       1.239  -3.834   0.115  0.00  0.00    -0.505 OA
ATOM     31  H   UNL     1       2.177  -3.788   0.347  0.00  0.00    +0.292 HD
ENDBRANCH  27  30
ENDBRANCH  19  28
ENDBRANCH  17  20
ENDBRANCH   1  17
TORSDOF 7
