REMARK  Name = ZINC07092624
REMARK  8 active torsions:
REMARK  status: ('A' for Active; 'I' for Inactive)
REMARK    1  A    between atoms: C_1  and  C_2
REMARK    2  A    between atoms: C_2  and  C_4
REMARK    3  A    between atoms: C_2  and  N_10
REMARK    4  A    between atoms: N_10  and  C_11
REMARK    5  A    between atoms: C_14  and  O_19
REMARK    6  A    between atoms: C_16  and  O_17
REMARK    7  A    between atoms: O_17  and  C_18
REMARK    8  A    between atoms: O_19  and  C_20
REMARK                            x       y       z     vdW  Elec       q    Type
REMARK                         _______ _______ _______ _____ _____    ______ ____
ROOT
ATOM      1  N   UNL     1      -1.116   7.024   1.853  0.00  0.00    -0.330 N 
ATOM      2  H   UNL     1      -0.746   7.625   1.187  0.00  0.00    +0.147 HD
ENDROOT
BRANCH   1   3
ATOM      3  C   UNL     1      -1.006   5.636   1.682  0.00  0.00    +0.072 A 
ATOM      4  C   UNL     1      -1.534   4.776   2.634  0.00  0.00    +0.050 A 
ATOM      5  C   UNL     1      -1.430   3.408   2.463  0.00  0.00    +0.084 A 
ATOM      6  C   UNL     1      -0.787   2.893   1.346  0.00  0.00    +0.142 A 
ATOM      7  C   UNL     1      -0.258   3.749   0.393  0.00  0.00    +0.094 A 
ATOM      8  C   UNL     1      -0.366   5.120   0.558  0.00  0.00    +0.144 A 
ATOM      9 CL   UNL     1      -2.098   2.333   3.651  0.00  0.00    -0.080 Cl
BRANCH   8  10
ATOM     10  O   UNL     1       0.153   5.962  -0.376  0.00  0.00    -0.493 OA
ATOM     11  C   UNL     1       0.795   5.363  -1.503  0.00  0.00    +0.277 C 
ENDBRANCH   8  10
BRANCH   6  12
ATOM     12  O   UNL     1      -0.682   1.547   1.184  0.00  0.00    -0.494 OA
ATOM     13  C   UNL     1      -0.013   1.086   0.008  0.00  0.00    +0.277 C 
ENDBRANCH   6  12
ENDBRANCH   1   3
BRANCH   1  15
ATOM     14  C   UNL     1      -0.795   7.650   4.195  0.00  0.00    +0.038 C 
ATOM     15  C   UNL     1      -1.790   7.566   3.035  0.00  0.00    +0.154 C 
BRANCH  15  16
ATOM     16  C   UNL     1      -2.318   8.943   2.725  0.00  0.00    +0.240 C 
ATOM     17  O   UNL     1      -2.149   9.424   1.626  0.00  0.00    -0.273 OA
ATOM     18  N   UNL     1      -2.979   9.639   3.671  0.00  0.00    -0.239 N 
ATOM     19  C   UNL     1      -3.452  10.871   3.394  0.00  0.00    +0.303 C 
ATOM     20  O   UNL     1      -3.282  11.353   2.292  0.00  0.00    -0.253 OA
ATOM     21  N   UNL     1      -4.113  11.567   4.340  0.00  0.00    -0.313 N 
ATOM     22  H   UNL     1      -3.115   9.254   4.551  0.00  0.00    +0.159 HD
ATOM     23  H   UNL     1      -4.248  11.182   5.220  0.00  0.00    +0.146 HD
ATOM     24  H   UNL     1      -4.453  12.454   4.141  0.00  0.00    +0.146 HD
ENDBRANCH  15  16
ENDBRANCH   1  15
TORSDOF 5
