REMARK  Name = ZINC49756563
REMARK  6 active torsions:
REMARK  status: ('A' for Active; 'I' for Inactive)
REMARK    1  A    between atoms: C_1  and  C_2
REMARK    2  A    between atoms: C_5  and  C_8
REMARK    3  A    between atoms: C_9  and  C_10
REMARK    4  A    between atoms: N_12  and  C_13
REMARK    5  A    between atoms: C_22  and  C_24
REMARK    6  A    between atoms: C_22  and  C_25
REMARK                            x       y       z     vdW  Elec       q    Type
REMARK                         _______ _______ _______ _____ _____    ______ ____
ROOT
ATOM      1  C   UNL     1       0.038  -8.467   2.346  0.00  0.00    +0.036 A 
ATOM      2  C   UNL     1       0.053  -9.204   1.168  0.00  0.00    +0.027 A 
ATOM      3  C   UNL     1      -0.018 -10.584   1.210  0.00  0.00    +0.049 A 
ATOM      4  C   UNL     1      -0.104 -11.235   2.428  0.00  0.00    +0.143 A 
ATOM      5  C   UNL     1      -0.119 -10.498   3.612  0.00  0.00    +0.077 A 
ATOM      6  C   UNL     1      -0.043  -9.117   3.571  0.00  0.00    +0.050 A 
ATOM      7  N   UNL     1      -0.209 -11.173   4.838  0.00  0.00    -0.279 N 
ATOM      8  C   UNL     1       0.038 -12.501   4.875  0.00  0.00    +0.261 C 
ATOM      9  O   UNL     1      -0.062 -13.110   5.918  0.00  0.00    -0.271 OA
ATOM     10  C   UNL     1       0.440 -13.221   3.613  0.00  0.00    +0.180 C 
ATOM     11  O   UNL     1      -0.173 -12.592   2.484  0.00  0.00    -0.475 OA
ATOM     12  C   UNL     1      -0.015 -14.680   3.692  0.00  0.00    +0.065 C 
ATOM     13  C   UNL     1       1.962 -13.171   3.460  0.00  0.00    +0.065 C 
ATOM     14  H   UNL     1      -0.445 -10.694   5.648  0.00  0.00    +0.155 HD
ENDROOT
BRANCH   1  17
ATOM     15  C   UNL     1      -0.490  -6.398   1.295  0.00  0.00    +0.241 C 
ATOM     16  O   UNL     1      -1.021  -7.009   0.386  0.00  0.00    -0.270 OA
ATOM     17  N   UNL     1       0.109  -7.070   2.298  0.00  0.00    -0.282 N 
ATOM     18  H   UNL     1       0.590  -6.585   2.987  0.00  0.00    +0.155 HD
BRANCH  15  20
ATOM     19  C   UNL     1      -1.102  -4.263   0.295  0.00  0.00    +0.013 C 
ATOM     20  C   UNL     1      -0.502  -4.934   1.299  0.00  0.00    +0.068 C 
BRANCH  19  25
ATOM     21  C   UNL     1      -1.151   1.486   0.312  0.00  0.00    +0.044 C 
ATOM     22  C   UNL     1      -1.138  -0.021   0.308  0.00  0.00    -0.050 A 
ATOM     23  C   UNL     1      -1.742  -0.711  -0.728  0.00  0.00    +0.004 A 
ATOM     24  C   UNL     1      -1.735  -2.090  -0.740  0.00  0.00    +0.008 A 
ATOM     25  C   UNL     1      -1.114  -2.791   0.299  0.00  0.00    -0.025 A 
ATOM     26  C   UNL     1      -0.505  -2.086   1.342  0.00  0.00    +0.008 A 
ATOM     27  C   UNL     1      -0.517  -0.707   1.337  0.00  0.00    +0.004 A 
ENDBRANCH  19  25
ENDBRANCH  15  20
ENDBRANCH   1  17
TORSDOF 3
