REMARK  Name = ZINC39676192
REMARK  5 active torsions:
REMARK  status: ('A' for Active; 'I' for Inactive)
REMARK    1  A    between atoms: C_11  and  C_13
REMARK    2  A    between atoms: C_13  and  N_14
REMARK    3  A    between atoms: C_15  and  C_17
REMARK    4  A    between atoms: C_28  and  C_30
REMARK    5  A    between atoms: C_35  and  C_36
REMARK                            x       y       z     vdW  Elec       q    Type
REMARK                         _______ _______ _______ _____ _____    ______ ____
ROOT
ATOM      1  C   UNL     1       8.762  -0.547   0.436  0.00  0.00    +0.100 C 
ATOM      2  C   UNL     1       8.557   0.064  -0.968  0.00  0.00    +0.121 C 
ATOM      3  N   UNL     1       9.927   0.214  -1.514  0.00  0.00    -0.296 N 
ATOM      4  C   UNL     1      10.637  -1.008  -1.069  0.00  0.00    +0.115 C 
ATOM      5  C   UNL     1      10.128  -1.250   0.366  0.00  0.00    -0.004 C 
ATOM      6  C   UNL     1       9.966  -2.745   0.622  0.00  0.00    -0.010 C 
ATOM      7  C   UNL     1      11.343  -3.414   0.605  0.00  0.00    -0.082 C 
ATOM      8  N   UNL     1      12.195  -2.810   1.636  0.00  0.00    +0.379 N 
ATOM      9  C   UNL     1      12.422  -1.392   1.331  0.00  0.00    -0.082 C 
ATOM     10  C   UNL     1      11.090  -0.638   1.379  0.00  0.00    -0.010 C 
ATOM     11  C   UNL     1      10.416   1.233  -2.249  0.00  0.00    +0.247 C 
ATOM     12  O   UNL     1      11.538   1.164  -2.712  0.00  0.00    -0.270 OA
ATOM     13  H   UNL     1      11.743  -2.890   2.534  0.00  0.00    -0.086 HD
ATOM     14  H   UNL     1      13.081  -3.292   1.664  0.00  0.00    -0.086 HD
ENDROOT
BRANCH  11  15
ATOM     15  C   UNL     1       9.588   2.433  -2.494  0.00  0.00    +0.049 A 
ATOM     16  C   UNL     1       8.212   2.306  -2.693  0.00  0.00    +0.013 A 
ATOM     17  C   UNL     1       7.445   3.430  -2.920  0.00  0.00    +0.001 A 
ATOM     18  C   UNL     1       8.036   4.681  -2.950  0.00  0.00    +0.001 A 
ATOM     19  C   UNL     1       9.399   4.813  -2.754  0.00  0.00    +0.013 A 
ATOM     20  C   UNL     1      10.177   3.698  -2.520  0.00  0.00    +0.067 A 
BRANCH  20  21
ATOM     21  C   UNL     1      11.661   3.844  -2.300  0.00  0.00    +0.418 C 
ATOM     22  F   UNL     1      12.011   5.197  -2.373  0.00  0.00    -0.166 F 
ATOM     23  F   UNL     1      11.997   3.342  -1.039  0.00  0.00    -0.166 F 
ATOM     24  F   UNL     1      12.351   3.130  -3.286  0.00  0.00    -0.166 F 
ENDBRANCH  20  21
ENDBRANCH  11  15
BRANCH   1  26
ATOM     25  N   UNL     1       7.286  -1.754   2.012  0.00  0.00    -0.308 N 
ATOM     26  C   UNL     1       7.673  -1.544   0.738  0.00  0.00    +0.219 C 
ATOM     27  O   UNL     1       7.145  -2.157  -0.165  0.00  0.00    -0.275 OA
ATOM     28  H   UNL     1       7.709  -1.263   2.735  0.00  0.00    +0.149 HD
BRANCH  25  29
ATOM     29  C   UNL     1       6.228  -2.723   2.306  0.00  0.00    +0.178 C 
BRANCH  29  40
ATOM     30  C   UNL     1       6.154  -2.007   8.656  0.00  0.00    +0.001 A 
ATOM     31  C   UNL     1       7.107  -1.173   8.087  0.00  0.00    +0.002 A 
ATOM     32  C   UNL     1       7.305  -1.154   6.725  0.00  0.00    +0.028 A 
ATOM     33  C   UNL     1       6.539  -1.984   5.903  0.00  0.00    +0.078 A 
ATOM     34  C   UNL     1       5.571  -2.831   6.486  0.00  0.00    +0.065 A 
ATOM     35  C   UNL     1       5.386  -2.834   7.867  0.00  0.00    +0.015 A 
ATOM     36  C   UNL     1       4.780  -3.692   5.593  0.00  0.00    +0.259 A 
ATOM     37  O   UNL     1       3.929  -4.445   6.031  0.00  0.00    -0.267 OA
ATOM     38  N   UNL     1       5.035  -3.614   4.266  0.00  0.00    -0.309 N 
ATOM     39  H   UNL     1       4.533  -4.167   3.647  0.00  0.00    +0.170 HD
ATOM     40  C   UNL     1       5.987  -2.768   3.793  0.00  0.00    +0.128 A 
ATOM     41  N   UNL     1       6.700  -1.997   4.556  0.00  0.00    -0.232 NA
ENDBRANCH  29  40
ENDBRANCH  25  29
ENDBRANCH   1  26
TORSDOF 5
