REMARK  Name = ZINC00781115
REMARK  2 active torsions:
REMARK  status: ('A' for Active; 'I' for Inactive)
REMARK    1  A    between atoms: C_4  and  C_7
REMARK    2  A    between atoms: C_12  and  C_22
REMARK                            x       y       z     vdW  Elec       q    Type
REMARK                         _______ _______ _______ _____ _____    ______ ____
ROOT
ATOM      1  C   UNL     1       3.215   2.095  -3.805  0.00  0.00    +0.032 C 
ATOM      2  C   UNL     1       2.653   0.744  -3.367  0.00  0.00    +0.059 C 
ATOM      3  C   UNL     1       1.740   0.931  -2.165  0.00  0.00    +0.017 C 
ATOM      4  C   UNL     1       2.004   1.883  -1.257  0.00  0.00    +0.036 C 
ATOM      5  C   UNL     1       1.213   2.152   0.002  0.00  0.00    +0.136 C 
ATOM      6  N   UNL     1      -0.058   1.461   0.064  0.00  0.00    -0.331 N 
ATOM      7  C   UNL     1      -0.119   0.071   0.113  0.00  0.00    +0.049 A 
ATOM      8  C   UNL     1      -0.596  -0.590   1.234  0.00  0.00    +0.025 A 
ATOM      9  C   UNL     1      -0.596  -1.974   1.260  0.00  0.00    +0.002 A 
ATOM     10  C   UNL     1      -0.120  -2.695   0.180  0.00  0.00    +0.002 A 
ATOM     11  C   UNL     1       0.341  -2.038  -0.948  0.00  0.00    +0.025 A 
ATOM     12  C   UNL     1       0.319  -0.656  -0.984  0.00  0.00    +0.052 A 
ATOM     13  N   UNL     1       0.694   0.066  -2.112  0.00  0.00    -0.316 N 
ATOM     14  C   UNL     1       3.107   2.751  -1.433  0.00  0.00    +0.163 C 
ATOM     15  O   UNL     1       3.333   3.591  -0.583  0.00  0.00    -0.292 OA
ATOM     16  C   UNL     1       4.009   2.674  -2.628  0.00  0.00    +0.088 C 
ATOM     17  H   UNL     1      -0.881   1.975   0.068  0.00  0.00    +0.147 HD
ATOM     18  H   UNL     1       0.171  -0.057  -2.920  0.00  0.00    +0.152 HD
ENDROOT
BRANCH   5  19
ATOM     19  C   UNL     1       2.043   1.734   1.188  0.00  0.00    -0.020 A 
ATOM     20  C   UNL     1       2.364   0.402   1.371  0.00  0.00    +0.009 A 
ATOM     21  C   UNL     1       3.126   0.016   2.458  0.00  0.00    +0.041 A 
ATOM     22  C   UNL     1       3.569   0.964   3.364  0.00  0.00    +0.158 A 
ATOM     23  C   UNL     1       3.247   2.300   3.180  0.00  0.00    +0.159 A 
ATOM     24  C   UNL     1       2.489   2.684   2.088  0.00  0.00    +0.047 A 
ATOM     25  F   UNL     1       3.679   3.227   4.063  0.00  0.00    -0.202 F 
ATOM     26  F   UNL     1       4.314   0.588   4.427  0.00  0.00    -0.202 F 
ENDBRANCH   5  19
BRANCH   1  30
ATOM     27  C   UNL     1       5.793   1.570  -7.171  0.00  0.00    +0.000 A 
ATOM     28  C   UNL     1       4.693   2.402  -7.266  0.00  0.00    +0.000 A 
ATOM     29  C   UNL     1       3.859   2.571  -6.177  0.00  0.00    +0.004 A 
ATOM     30  C   UNL     1       4.125   1.910  -4.992  0.00  0.00    -0.044 A 
ATOM     31  C   UNL     1       5.228   1.082  -4.896  0.00  0.00    +0.004 A 
ATOM     32  C   UNL     1       6.059   0.908  -5.986  0.00  0.00    +0.000 A 
ENDBRANCH   1  30
TORSDOF 2
