REMARK  Name = ZINC36027623
REMARK  14 active torsions:
REMARK  status: ('A' for Active; 'I' for Inactive)
REMARK    1  A    between atoms: C_1  and  C_2
REMARK    2  A    between atoms: C_2  and  O_3
REMARK    3  A    between atoms: O_3  and  C_4
REMARK    4  A    between atoms: C_4  and  C_6
REMARK    5  A    between atoms: C_7  and  C_24
REMARK    6  A    between atoms: N_8  and  C_21
REMARK    7  A    between atoms: C_12  and  C_14
REMARK    8  A    between atoms: C_19  and  C_20
REMARK    9  A    between atoms: C_21  and  C_22
REMARK   10  A    between atoms: C_24  and  N_25
REMARK   11  A    between atoms: N_33  and  C_34
REMARK   12  A    between atoms: C_34  and  C_35
REMARK   13  A    between atoms: C_34  and  C_36
REMARK   14  A    between atoms: C_34  and  C_37
REMARK                            x       y       z     vdW  Elec       q    Type
REMARK                         _______ _______ _______ _____ _____    ______ ____
ROOT
ATOM      1  C   UNL     1      -3.133  -3.271  -0.333  0.00  0.00    +0.080 C 
ATOM      2  C   UNL     1      -3.571  -4.547  -0.266  0.00  0.00    +0.041 C 
ATOM      3  N   UNL     1      -4.872  -4.830   0.038  0.00  0.00    -0.254 N 
ATOM      4  C   UNL     1      -5.797  -3.894   0.288  0.00  0.00    +0.307 C 
ATOM      5  O   UNL     1      -6.931  -4.244   0.550  0.00  0.00    -0.252 OA
ATOM      6  N   UNL     1      -5.511  -2.578   0.259  0.00  0.00    -0.288 N 
ATOM      7  C   UNL     1      -4.132  -2.167  -0.053  0.00  0.00    +0.144 C 
ATOM      8  H   UNL     1      -6.197  -1.917   0.443  0.00  0.00    +0.151 HD
ENDROOT
BRANCH   7   9
ATOM      9  C   UNL     1      -4.183  -1.269  -1.263  0.00  0.00    -0.020 A 
ATOM     10  C   UNL     1      -5.114  -1.501  -2.258  0.00  0.00    +0.006 A 
ATOM     11  C   UNL     1      -5.160  -0.678  -3.367  0.00  0.00    +0.000 A 
ATOM     12  C   UNL     1      -4.276   0.378  -3.482  0.00  0.00    +0.000 A 
ATOM     13  C   UNL     1      -3.345   0.611  -2.487  0.00  0.00    +0.004 A 
ATOM     14  C   UNL     1      -3.301  -0.210  -1.375  0.00  0.00    -0.045 A 
ATOM     15  C   UNL     1      -2.290   0.047  -0.288  0.00  0.00    +0.044 C 
ENDBRANCH   7   9
BRANCH   1  16
ATOM     16  C   UNL     1      -1.786  -2.976  -0.647  0.00  0.00    +0.339 C 
ATOM     17  O   UNL     1      -0.988  -2.750   0.244  0.00  0.00    -0.245 OA
BRANCH  16  18
ATOM     18  O   UNL     1      -1.385  -2.946  -1.935  0.00  0.00    -0.462 OA
BRANCH  18  20
ATOM     19  C   UNL     1       0.290  -2.851  -3.675  0.00  0.00    +0.048 C 
ATOM     20  C   UNL     1       0.007  -2.730  -2.176  0.00  0.00    +0.229 C 
ENDBRANCH  18  20
ENDBRANCH  16  18
ENDBRANCH   1  16
BRANCH   3  21
ATOM     21  C   UNL     1      -5.279  -6.236   0.093  0.00  0.00    +0.141 C 
BRANCH  21  22
ATOM     22  C   UNL     1      -5.087  -6.760   1.493  0.00  0.00    -0.015 C 
ATOM     23  C   UNL     1      -6.090  -7.312   2.129  0.00  0.00    +0.005 C 
ENDBRANCH  21  22
ENDBRANCH   3  21
BRANCH   2  24
ATOM     24  C   UNL     1      -2.610  -5.676  -0.532  0.00  0.00    +0.136 C 
BRANCH  24  25
ATOM     25  N   UNL     1      -2.403  -6.444   0.703  0.00  0.00    -0.294 NA
ATOM     26  C   UNL     1      -1.725  -5.631   1.722  0.00  0.00    +0.104 C 
ATOM     27  C   UNL     1      -1.691  -6.402   3.046  0.00  0.00    +0.124 C 
ATOM     28  N   UNL     1      -1.090  -7.721   2.803  0.00  0.00    -0.283 N 
ATOM     29  C   UNL     1      -1.627  -8.540   1.705  0.00  0.00    +0.124 C 
ATOM     30  C   UNL     1      -1.664  -7.685   0.434  0.00  0.00    +0.104 C 
ATOM     31  C   UNL     1      -0.073  -8.170   3.566  0.00  0.00    +0.303 C 
ATOM     32  O   UNL     1       0.300  -7.520   4.523  0.00  0.00    -0.253 OA
ATOM     33  N   UNL     1       0.529  -9.338   3.267  0.00  0.00    -0.294 N 
ATOM     34  H   UNL     1       0.281  -9.820   2.463  0.00  0.00    +0.151 HD
BRANCH  33  35
ATOM     35  C   UNL     1       1.560  -9.879   4.157  0.00  0.00    +0.028 C 
ATOM     36  C   UNL     1       0.962 -10.116   5.545  0.00  0.00    +0.031 C 
ATOM     37  C   UNL     1       2.077 -11.203   3.592  0.00  0.00    +0.031 C 
ATOM     38  C   UNL     1       2.716  -8.883   4.263  0.00  0.00    +0.031 C 
ENDBRANCH  33  35
ENDBRANCH  24  25
ENDBRANCH   2  24
TORSDOF 9
