REMARK  Name = ZINC05274695
REMARK  5 active torsions:
REMARK  status: ('A' for Active; 'I' for Inactive)
REMARK    1  A    between atoms: C_1  and  C_2
REMARK    2  A    between atoms: C_2  and  C_10
REMARK    3  A    between atoms: C_3  and  C_4
REMARK    4  A    between atoms: C_21  and  N_45
REMARK    5  A    between atoms: C_22  and  O_24
REMARK                            x       y       z     vdW  Elec       q    Type
REMARK                         _______ _______ _______ _____ _____    ______ ____
ROOT
ATOM      1  C   UNL     1       1.422  -0.716  -0.105  0.00  0.00    +0.220 C 
ATOM      2  N   UNL     1       2.613   0.136   0.070  0.00  0.00    -0.313 N 
ATOM      3  C   UNL     1       2.453   1.472  -0.208  0.00  0.00    +0.080 A 
ATOM      4  C   UNL     1       1.206   2.108  -0.143  0.00  0.00    +0.067 A 
ATOM      5  C   UNL     1       1.203   3.525  -0.454  0.00  0.00    -0.027 A 
ATOM      6  C   UNL     1       2.406   4.058  -0.777  0.00  0.00    -0.021 A 
ATOM      7  S   UNL     1       3.546   2.705  -0.670  0.00  0.00    -0.080 S 
ATOM      8  C   UNL     1       2.679   5.483  -1.141  0.00  0.00    -0.036 C 
ATOM      9  C   UNL     1       0.415   5.870  -0.370  0.00  0.00    -0.074 C 
ATOM     10  C   UNL     1      -0.039   4.409  -0.430  0.00  0.00    +0.018 C 
ATOM     11  C   UNL     1       1.570   7.585  -1.632  0.00  0.00    -0.096 C 
ATOM     12  C   UNL     1       0.035   1.274   0.230  0.00  0.00    +0.220 C 
ATOM     13  N   UNL     1       0.200  -0.019   0.278  0.00  0.00    -0.223 NA
ATOM     14  H   UNL     1       3.463  -0.227   0.364  0.00  0.00    +0.149 HD
ATOM     15  N   UNL     1       1.382   6.128  -1.457  0.00  0.00    +0.381 N 
ATOM     16  H   UNL     1       1.015   5.732  -2.331  0.00  0.00    -0.082 HD
ENDROOT
BRANCH   1  18
ATOM     17  C   UNL     1       1.138  -0.084  -2.621  0.00  0.00    +0.043 C 
ATOM     18  C   UNL     1       1.321  -1.129  -1.550  0.00  0.00    -0.030 C 
ATOM     19  C   UNL     1       1.392  -2.411  -1.880  0.00  0.00    +0.010 C 
BRANCH  19  20
ATOM     20  C   UNL     1       1.458  -2.805  -3.303  0.00  0.00    -0.025 A 
ATOM     21  C   UNL     1       0.743  -3.914  -3.757  0.00  0.00    +0.008 A 
ATOM     22  C   UNL     1       0.805  -4.273  -5.088  0.00  0.00    +0.001 A 
ATOM     23  C   UNL     1       1.584  -3.544  -5.969  0.00  0.00    +0.000 A 
ATOM     24  C   UNL     1       2.300  -2.447  -5.524  0.00  0.00    +0.001 A 
ATOM     25  C   UNL     1       2.241  -2.074  -4.197  0.00  0.00    +0.008 A 
ENDBRANCH  19  20
ENDBRANCH   1  18
BRANCH  12  26
ATOM     26  O   UNL     1      -1.165   1.835   0.506  0.00  0.00    -0.492 OA
ATOM     27  H   UNL     1      -1.855   1.198   0.733  0.00  0.00    +0.294 HD
ENDBRANCH  12  26
TORSDOF 3
