REMARK  Name = ZINC14625177
REMARK  11 active torsions:
REMARK  status: ('A' for Active; 'I' for Inactive)
REMARK    1  A    between atoms: C_1  and  C_2
REMARK    2  A    between atoms: C_2  and  C_3
REMARK    3  A    between atoms: C_3  and  C_4
REMARK    4  A    between atoms: C_4  and  N_5
REMARK    5  A    between atoms: C_6  and  N_35
REMARK    6  A    between atoms: C_7  and  N_14
REMARK    7  A    between atoms: N_14  and  C_15
REMARK    8  A    between atoms: C_15  and  C_16
REMARK    9  A    between atoms: C_22  and  C_24
REMARK   10  A    between atoms: C_24  and  C_25
REMARK   11  A    between atoms: C_32  and  C_34
REMARK                            x       y       z     vdW  Elec       q    Type
REMARK                         _______ _______ _______ _____ _____    ______ ____
ROOT
ATOM      1  N   UNL     1       4.231  -0.880  -1.407  0.00  0.00    -0.260 N 
ATOM      2  C   UNL     1       4.809   0.239  -1.891  0.00  0.00    +0.225 C 
ATOM      3  O   UNL     1       4.952   0.379  -3.087  0.00  0.00    -0.275 OA
ENDROOT
BRANCH   1   6
ATOM      4  N   UNL     1       2.258  -3.293  -3.353  0.00  0.00    -0.280 N 
ATOM      5  C   UNL     1       2.563  -2.263  -2.493  0.00  0.00    +0.127 A 
ATOM      6  C   UNL     1       3.886  -1.931  -2.282  0.00  0.00    +0.140 A 
ATOM      7  C   UNL     1       4.885  -2.655  -2.960  0.00  0.00    +0.277 A 
ATOM      8  O   UNL     1       6.061  -2.380  -2.796  0.00  0.00    -0.266 OA
ATOM      9  N   UNL     1       4.532  -3.659  -3.787  0.00  0.00    -0.273 N 
ATOM     10  H   UNL     1       5.241  -4.179  -4.263  0.00  0.00    +0.173 HD
ATOM     11  C   UNL     1       3.238  -3.968  -3.981  0.00  0.00    +0.331 A 
ATOM     12  O   UNL     1       2.948  -4.875  -4.737  0.00  0.00    -0.246 OA
BRANCH   5  13
ATOM     13  N   UNL     1       1.563  -1.573  -1.852  0.00  0.00    -0.343 N 
ATOM     14  H   UNL     1       1.777  -0.790  -1.320  0.00  0.00    +0.144 HD
ATOM     15  H   UNL     1       0.642  -1.869  -1.931  0.00  0.00    +0.144 HD
ENDBRANCH   5  13
BRANCH   4  16
ATOM     16  C   UNL     1       0.858  -3.656  -3.586  0.00  0.00    +0.128 C 
BRANCH  16  17
ATOM     17  C   UNL     1       0.312  -2.848  -4.765  0.00  0.00    +0.021 C 
BRANCH  17  19
ATOM     18  C   UNL     1      -1.697  -2.420  -6.188  0.00  0.00    +0.004 C 
ATOM     19  C   UNL     1      -1.150  -3.227  -5.009  0.00  0.00    -0.002 C 
ENDBRANCH  17  19
ENDBRANCH  16  17
ENDBRANCH   4  16
ENDBRANCH   1   6
BRANCH   1  20
ATOM     20  C   UNL     1       3.962  -1.003   0.028  0.00  0.00    +0.149 C 
BRANCH  20  21
ATOM     21  C   UNL     1       5.092  -1.751   0.689  0.00  0.00    -0.030 A 
ATOM     22  C   UNL     1       6.127  -1.054   1.283  0.00  0.00    +0.005 A 
ATOM     23  C   UNL     1       7.164  -1.740   1.888  0.00  0.00    +0.000 A 
ATOM     24  C   UNL     1       7.165  -3.122   1.899  0.00  0.00    +0.000 A 
ATOM     25  C   UNL     1       6.129  -3.819   1.305  0.00  0.00    +0.000 A 
ATOM     26  C   UNL     1       5.093  -3.133   0.699  0.00  0.00    +0.005 A 
ENDBRANCH  20  21
ENDBRANCH   1  20
BRANCH   2  27
ATOM     27  C   UNL     1       5.277   1.315  -0.945  0.00  0.00    +0.135 C 
BRANCH  27  28
ATOM     28  C   UNL     1       5.834   2.471  -1.735  0.00  0.00    +0.007 A 
ATOM     29  C   UNL     1       7.119   2.687  -2.049  0.00  0.00    +0.200 A 
ATOM     30  O   UNL     1       7.237   3.820  -2.763  0.00  0.00    -0.463 OA
ATOM     31  C   UNL     1       6.034   4.399  -2.950  0.00  0.00    +0.135 A 
ATOM     32  C   UNL     1       5.077   3.584  -2.322  0.00  0.00    +0.024 A 
ATOM     33  C   UNL     1       3.728   3.934  -2.356  0.00  0.00    +0.012 A 
ATOM     34  C   UNL     1       3.339   5.080  -3.014  0.00  0.00    +0.004 A 
ATOM     35  C   UNL     1       4.283   5.883  -3.637  0.00  0.00    -0.047 A 
ATOM     36  C   UNL     1       5.621   5.553  -3.603  0.00  0.00    +0.050 A 
ATOM     37  C   UNL     1       3.842   7.135  -4.352  0.00  0.00    +0.044 C 
ENDBRANCH  27  28
ENDBRANCH   2  27
TORSDOF 9
