REMARK  Name = ZINC20688072
REMARK  7 active torsions:
REMARK  status: ('A' for Active; 'I' for Inactive)
REMARK    1  A    between atoms: C_1  and  C_2
REMARK    2  A    between atoms: C_6  and  C_34
REMARK    3  A    between atoms: C_7  and  N_8
REMARK    4  A    between atoms: N_8  and  S_9
REMARK    5  A    between atoms: S_9  and  C_12
REMARK    6  A    between atoms: C_25  and  C_28
REMARK    7  A    between atoms: C_29  and  C_33
REMARK                            x       y       z     vdW  Elec       q    Type
REMARK                         _______ _______ _______ _____ _____    ______ ____
ROOT
ATOM      1  C   UNL     1       1.773  -0.099  -0.176  0.00  0.00    +0.109 A 
ATOM      2  C   UNL     1       0.635   0.687  -0.184  0.00  0.00    +0.030 A 
ATOM      3  C   UNL     1       0.731   2.043  -0.421  0.00  0.00    +0.025 A 
ATOM      4  C   UNL     1       1.970   2.629  -0.653  0.00  0.00    +0.031 A 
ATOM      5  C   UNL     1       3.118   1.830  -0.628  0.00  0.00    -0.018 A 
ATOM      6  C   UNL     1       3.011   0.475  -0.398  0.00  0.00    +0.034 A 
ATOM      7  C   UNL     1       4.420   2.500  -0.837  0.00  0.00    +0.049 C 
ATOM      8  C   UNL     1       5.601   1.776  -1.372  0.00  0.00    -0.023 C 
ATOM      9  C   UNL     1       6.343   2.630  -2.067  0.00  0.00    -0.030 C 
ATOM     10  C   UNL     1       5.676   4.022  -2.100  0.00  0.00    +0.033 C 
ATOM     11  C   UNL     1       4.206   3.648  -1.869  0.00  0.00    +0.029 C 
ATOM     12  C   UNL     1       3.336   4.671  -1.161  0.00  0.00    +0.112 C 
ATOM     13  N   UNL     1       2.039   4.000  -0.927  0.00  0.00    -0.336 N 
ATOM     14  H   UNL     1       1.105   4.580  -0.966  0.00  0.00    +0.147 HD
ENDROOT
BRANCH  12  15
ATOM     15  C   UNL     1       3.144   5.884  -2.035  0.00  0.00    +0.013 A 
ATOM     16  C   UNL     1       3.653   7.131  -1.889  0.00  0.00    -0.038 A 
ATOM     17  C   UNL     1       3.341   8.098  -2.827  0.00  0.00    +0.011 A 
ATOM     18  C   UNL     1       2.526   7.772  -3.860  0.00  0.00    +0.046 A 
ATOM     19  S   UNL     1       2.179   6.052  -3.528  0.00  0.00    -0.099 S 
ATOM     20  C   UNL     1       4.550   7.459  -0.722  0.00  0.00    +0.044 C 
ENDBRANCH  12  15
BRANCH   1  21
ATOM     21  S   UNL     1       1.645  -1.831   0.117  0.00  0.00    +0.072 S 
ATOM     22  O   UNL     1       2.940  -2.276   0.497  0.00  0.00    -0.150 OA
ATOM     23  O   UNL     1       0.502  -2.021   0.940  0.00  0.00    -0.150 OA
BRANCH  21  24
ATOM     24  N   UNL     1       1.306  -2.550  -1.336  0.00  0.00    -0.216 N 
ATOM     25  H   UNL     1       0.337  -3.047  -1.491  0.00  0.00    +0.174 HD
BRANCH  24  32
ATOM     26  C   UNL     1       0.886  -0.750  -3.499  0.00  0.00    +0.046 C 
ATOM     27  C   UNL     1       2.085  -1.662  -3.441  0.00  0.00    -0.028 A 
ATOM     28  C   UNL     1       3.023  -1.636  -4.454  0.00  0.00    +0.005 A 
ATOM     29  C   UNL     1       4.120  -2.476  -4.404  0.00  0.00    +0.001 A 
ATOM     30  C   UNL     1       4.285  -3.340  -3.337  0.00  0.00    +0.005 A 
ATOM     31  C   UNL     1       3.353  -3.367  -2.318  0.00  0.00    -0.028 A 
ATOM     32  C   UNL     1       2.250  -2.525  -2.365  0.00  0.00    +0.054 A 
ATOM     33  C   UNL     1       3.534  -4.310  -1.156  0.00  0.00    +0.046 C 
ENDBRANCH  24  32
ENDBRANCH  21  24
ENDBRANCH   1  21
TORSDOF 4
