REMARK  Name = ZINC58884508
REMARK  11 active torsions:
REMARK  status: ('A' for Active; 'I' for Inactive)
REMARK    1  A    between atoms: C_1  and  C_2
REMARK    2  A    between atoms: C_2  and  O_3
REMARK    3  A    between atoms: O_3  and  C_4
REMARK    4  A    between atoms: C_4  and  C_6
REMARK    5  A    between atoms: C_9  and  N_12
REMARK    6  A    between atoms: C_13  and  C_15
REMARK    7  A    between atoms: N_17  and  N_18
REMARK    8  A    between atoms: C_19  and  C_20
REMARK    9  A    between atoms: C_22  and  C_33
REMARK   10  A    between atoms: N_23  and  C_26
REMARK   11  A    between atoms: C_24  and  C_25
REMARK                            x       y       z     vdW  Elec       q    Type
REMARK                         _______ _______ _______ _____ _____    ______ ____
ROOT
ATOM      1  C   UNL     1       4.339  -5.768  -7.144  0.00  0.00    +0.318 C 
ATOM      2  O   UNL     1       4.806  -5.014  -7.974  0.00  0.00    -0.263 OA
ATOM      3  N   UNL     1       4.529  -7.098  -7.259  0.00  0.00    -0.199 N 
ATOM      4  H   UNL     1       4.157  -7.700  -6.596  0.00  0.00    +0.178 HD
ENDROOT
BRANCH   1   6
ATOM      5  N   UNL     1       3.368  -3.894  -5.883  0.00  0.00    -0.278 N 
ATOM      6  C   UNL     1       3.558  -5.223  -5.998  0.00  0.00    +0.305 C 
ATOM      7  O   UNL     1       3.091  -5.977  -5.168  0.00  0.00    -0.265 OA
ATOM      8  H   UNL     1       3.673  -3.298  -6.585  0.00  0.00    +0.155 HD
BRANCH   5  12
ATOM      9  C   UNL     1       1.471  -2.345  -2.516  0.00  0.00    +0.059 A 
ATOM     10  C   UNL     1       2.280  -3.479  -2.404  0.00  0.00    +0.017 A 
ATOM     11  C   UNL     1       2.906  -3.989  -3.519  0.00  0.00    +0.024 A 
ATOM     12  C   UNL     1       2.733  -3.376  -4.757  0.00  0.00    +0.034 A 
ATOM     13  C   UNL     1       1.928  -2.246  -4.872  0.00  0.00    +0.024 A 
ATOM     14  C   UNL     1       1.295  -1.735  -3.761  0.00  0.00    +0.017 A 
BRANCH   9  15
ATOM     15  C   UNL     1       0.798  -1.796  -1.323  0.00  0.00    +0.339 C 
ATOM     16  O   UNL     1       0.091  -0.813  -1.423  0.00  0.00    -0.245 OA
BRANCH  15  17
ATOM     17  O   UNL     1       0.969  -2.385  -0.123  0.00  0.00    -0.461 OA
BRANCH  17  19
ATOM     18  C   UNL     1       0.600  -2.600   2.256  0.00  0.00    +0.048 C 
ATOM     19  C   UNL     1       0.288  -1.800   0.989  0.00  0.00    +0.229 C 
ENDBRANCH  17  19
ENDBRANCH  15  17
ENDBRANCH   9  15
ENDBRANCH   5  12
ENDBRANCH   1   6
BRANCH   3  20
ATOM     20  N   UNL     1       5.264  -7.610  -8.336  0.00  0.00    -0.187 NA
ATOM     21  C   UNL     1       5.447  -8.892  -8.447  0.00  0.00    +0.140 C 
BRANCH  21  22
ATOM     22  C   UNL     1       6.220  -9.430  -9.579  0.00  0.00    +0.016 A 
ATOM     23  C   UNL     1       6.511 -10.841  -9.854  0.00  0.00    +0.032 A 
ATOM     24  C   UNL     1       7.240 -10.869 -10.984  0.00  0.00    +0.022 A 
ATOM     25  N   UNL     1       7.420  -9.589 -11.427  0.00  0.00    -0.317 N 
ATOM     26  C   UNL     1       6.804  -8.715 -10.587  0.00  0.00    +0.030 A 
ATOM     27  C   UNL     1       6.772  -7.216 -10.741  0.00  0.00    +0.064 C 
ATOM     28  C   UNL     1       7.772 -12.110 -11.653  0.00  0.00    +0.064 C 
BRANCH  25  29
ATOM     29  C   UNL     1       8.133  -9.230 -12.579  0.00  0.00    +0.047 A 
ATOM     30  C   UNL     1       9.304  -8.493 -12.471  0.00  0.00    +0.027 A 
ATOM     31  C   UNL     1      10.005  -8.140 -13.608  0.00  0.00    +0.022 A 
ATOM     32  C   UNL     1       9.540  -8.521 -14.854  0.00  0.00    +0.041 A 
ATOM     33  C   UNL     1       8.372  -9.256 -14.965  0.00  0.00    +0.022 A 
ATOM     34  C   UNL     1       7.671  -9.616 -13.831  0.00  0.00    +0.027 A 
ATOM     35 CL   UNL     1      10.422  -8.076 -16.282  0.00  0.00    -0.084 Cl
ENDBRANCH  25  29
ENDBRANCH  21  22
ENDBRANCH   3  20
TORSDOF 8
