REMARK  Name = ZINC16999881
REMARK  9 active torsions:
REMARK  status: ('A' for Active; 'I' for Inactive)
REMARK    1  A    between atoms: C_4  and  C_7
REMARK    2  A    between atoms: C_8  and  C_9
REMARK    3  A    between atoms: C_9  and  O_11
REMARK    4  A    between atoms: O_11  and  C_12
REMARK    5  A    between atoms: C_12  and  C_27
REMARK    6  A    between atoms: C_17  and  C_18
REMARK    7  A    between atoms: C_17  and  N_62
REMARK    8  A    between atoms: C_18  and  C_19
REMARK    9  A    between atoms: C_19  and  C_21
REMARK                            x       y       z     vdW  Elec       q    Type
REMARK                         _______ _______ _______ _____ _____    ______ ____
ROOT
ATOM      1  C   UNL     1       2.846  -1.491  -2.546  0.00  0.00    +0.135 C 
ATOM      2  C   UNL     1       1.525  -2.265  -2.563  0.00  0.00    +0.034 C 
ATOM      3  C   UNL     1       0.908  -2.243  -1.163  0.00  0.00    -0.075 C 
ATOM      4  C   UNL     1       1.936  -0.102  -0.682  0.00  0.00    -0.075 C 
ATOM      5  C   UNL     1       2.584  -0.060  -2.068  0.00  0.00    +0.034 C 
ATOM      6  N   UNL     1       0.658  -0.840  -0.772  0.00  0.00    +0.380 N 
ATOM      7  H   UNL     1       0.066  -0.396  -1.484  0.00  0.00    -0.082 HD
ENDROOT
BRANCH   1   8
ATOM      8  C   UNL     1       3.429  -1.459  -3.936  0.00  0.00    -0.004 A 
ATOM      9  C   UNL     1       2.917  -0.589  -4.880  0.00  0.00    +0.007 A 
ATOM     10  C   UNL     1       3.454  -0.555  -6.153  0.00  0.00    +0.000 A 
ATOM     11  C   UNL     1       4.497  -1.400  -6.485  0.00  0.00    +0.000 A 
ATOM     12  C   UNL     1       5.006  -2.273  -5.542  0.00  0.00    +0.000 A 
ATOM     13  C   UNL     1       4.472  -2.303  -4.268  0.00  0.00    +0.007 A 
ENDBRANCH   1   8
BRANCH   1  14
ATOM     14  O   UNL     1       3.764  -2.132  -1.659  0.00  0.00    -0.450 OA
BRANCH  14  15
ATOM     15  C   UNL     1       4.978  -1.561  -1.516  0.00  0.00    +0.333 C 
ATOM     16  O   UNL     1       5.284  -0.604  -2.201  0.00  0.00    -0.246 OA
BRANCH  15  18
ATOM     17  C   UNL     1       7.141  -1.523  -0.397  0.00  0.00    +0.015 C 
ATOM     18  C   UNL     1       5.926  -2.094  -0.539  0.00  0.00    +0.092 C 
BRANCH  17  22
ATOM     19  C   UNL     1       9.891  -3.068   2.439  0.00  0.00    +0.000 A 
ATOM     20  C   UNL     1      10.243  -1.979   1.662  0.00  0.00    +0.001 A 
ATOM     21  C   UNL     1       9.355  -1.471   0.738  0.00  0.00    +0.008 A 
ATOM     22  C   UNL     1       8.095  -2.059   0.587  0.00  0.00    -0.025 A 
ATOM     23  C   UNL     1       7.745  -3.156   1.381  0.00  0.00    +0.008 A 
ATOM     24  C   UNL     1       8.646  -3.656   2.296  0.00  0.00    +0.001 A 
ENDBRANCH  17  22
ENDBRANCH  15  18
ENDBRANCH  14  15
ENDBRANCH   1  14
BRANCH   6  25
ATOM     25  C   UNL     1      -0.042  -0.795   0.529  0.00  0.00    -0.071 C 
BRANCH  25  26
ATOM     26  C   UNL     1      -0.047   0.644   1.047  0.00  0.00    +0.061 C 
BRANCH  26  27
ATOM     27  C   UNL     1      -0.784   0.703   2.360  0.00  0.00    +0.161 C 
ATOM     28  O   UNL     1      -1.258  -0.307   2.835  0.00  0.00    -0.292 OA
BRANCH  27  29
ATOM     29  C   UNL     1      -0.928   1.986   3.067  0.00  0.00    +0.017 A 
ATOM     30  C   UNL     1      -0.377   3.152   2.525  0.00  0.00    +0.011 A 
ATOM     31  C   UNL     1      -0.522   4.351   3.190  0.00  0.00    +0.001 A 
ATOM     32  C   UNL     1      -1.199   4.401   4.396  0.00  0.00    +0.000 A 
ATOM     33  C   UNL     1      -1.741   3.250   4.941  0.00  0.00    +0.001 A 
ATOM     34  C   UNL     1      -1.611   2.044   4.286  0.00  0.00    +0.011 A 
ENDBRANCH  27  29
ENDBRANCH  26  27
ENDBRANCH  25  26
ENDBRANCH   6  25
TORSDOF 9
