REMARK  Name = ZINC35189296
REMARK  5 active torsions:
REMARK  status: ('A' for Active; 'I' for Inactive)
REMARK    1  A    between atoms: C_1  and  C_2
REMARK    2  A    between atoms: C_5  and  C_8
REMARK    3  A    between atoms: C_11  and  C_14
REMARK    4  A    between atoms: C_16  and  N_21
REMARK    5  A    between atoms: C_19  and  O_20
REMARK                            x       y       z     vdW  Elec       q    Type
REMARK                         _______ _______ _______ _____ _____    ______ ____
ROOT
ATOM      1  C   UNL     1       0.061  -4.251  -0.021  0.00  0.00    +0.124 C 
ATOM      2  N   UNL     1       0.072  -5.046  -1.049  0.00  0.00    -0.178 NA
ATOM      3  N   UNL     1       0.091  -6.419  -0.941  0.00  0.00    -0.250 N 
ATOM      4  C   UNL     1       0.098  -6.944   0.443  0.00  0.00    +0.186 C 
ATOM      5  S   UNL     1       0.083  -5.359   1.379  0.00  0.00    -0.075 S 
ATOM      6  H   UNL     1       0.099  -7.001  -1.717  0.00  0.00    +0.170 HD
ENDROOT
BRANCH   1  11
ATOM      7  C   UNL     1      -0.018   1.503   0.010  0.00  0.00    +0.044 C 
ATOM      8  C   UNL     1       0.002  -0.004   0.002  0.00  0.00    -0.050 A 
ATOM      9  C   UNL     1       0.006  -0.686  -1.202  0.00  0.00    +0.004 A 
ATOM     10  C   UNL     1       0.025  -2.066  -1.216  0.00  0.00    +0.011 A 
ATOM     11  C   UNL     1       0.041  -2.773  -0.013  0.00  0.00    +0.008 A 
ATOM     12  C   UNL     1       0.037  -2.079   1.198  0.00  0.00    +0.011 A 
ATOM     13  C   UNL     1       0.023  -0.699   1.198  0.00  0.00    +0.004 A 
ENDBRANCH   1  11
BRANCH   4  14
ATOM     14  C   UNL     1       1.352  -7.730   0.725  0.00  0.00    +0.028 A 
ATOM     15  C   UNL     1       2.553  -7.343   0.162  0.00  0.00    +0.042 A 
ATOM     16  C   UNL     1       3.704  -8.064   0.420  0.00  0.00    +0.127 A 
ATOM     17  C   UNL     1       3.656  -9.175   1.242  0.00  0.00    +0.036 A 
ATOM     18  C   UNL     1       2.459  -9.567   1.807  0.00  0.00    +0.048 A 
ATOM     19  C   UNL     1       1.303  -8.841   1.554  0.00  0.00    +0.123 A 
BRANCH  16  20
ATOM     20  N   UNL     1       4.989  -7.647  -0.185  0.00  0.00    +0.056 N 
ATOM     21  O   UNL     1       5.031  -6.676  -0.904  0.00  0.00    -0.126 OA
ATOM     22  O   UNL     1       5.995  -8.277   0.040  0.00  0.00    -0.126 OA
ENDBRANCH  16  20
BRANCH  19  23
ATOM     23  O   UNL     1       0.124  -9.222   2.113  0.00  0.00    -0.506 OA
ATOM     24  H   UNL     1      -0.382  -9.846   1.576  0.00  0.00    +0.292 HD
ENDBRANCH  19  23
ENDBRANCH   4  14
TORSDOF 4
