REMARK  Name = ZINC19761235
REMARK  9 active torsions:
REMARK  status: ('A' for Active; 'I' for Inactive)
REMARK    1  A    between atoms: C_1  and  C_2
REMARK    2  A    between atoms: C_2  and  C_3
REMARK    3  A    between atoms: C_3  and  C_5
REMARK    4  A    between atoms: C_3  and  O_6
REMARK    5  A    between atoms: O_6  and  C_7
REMARK    6  A    between atoms: C_7  and  C_9
REMARK    7  A    between atoms: C_10  and  C_36
REMARK    8  A    between atoms: C_14  and  C_16
REMARK    9  A    between atoms: C_26  and  C_29
REMARK                            x       y       z     vdW  Elec       q    Type
REMARK                         _______ _______ _______ _____ _____    ______ ____
ROOT
ATOM      1  C   UNL     1      -2.509   1.229  -2.715  0.00  0.00    +0.065 C 
ATOM      2  C   UNL     1      -3.306   0.340  -3.332  0.00  0.00    +0.016 C 
ATOM      3  N   UNL     1      -3.908   0.655  -4.518  0.00  0.00    -0.321 N 
ATOM      4  C   UNL     1      -3.428   1.676  -5.294  0.00  0.00    +0.016 C 
ATOM      5  C   UNL     1      -2.634   2.628  -4.760  0.00  0.00    +0.024 C 
ATOM      6  C   UNL     1      -2.268   2.592  -3.295  0.00  0.00    +0.092 C 
ATOM      7  C   UNL     1      -2.135   3.681  -5.545  0.00  0.00    +0.162 C 
ATOM      8  O   UNL     1      -1.409   4.512  -5.037  0.00  0.00    -0.292 OA
ATOM      9  C   UNL     1      -2.485   3.799  -7.004  0.00  0.00    +0.088 C 
ATOM     10  C   UNL     1      -3.856   3.157  -7.240  0.00  0.00    +0.032 C 
ATOM     11  C   UNL     1      -3.804   1.707  -6.755  0.00  0.00    +0.059 C 
ATOM     12  C   UNL     1      -3.537  -1.014  -2.712  0.00  0.00    +0.061 C 
ATOM     13  H   UNL     1      -4.787   0.087  -4.856  0.00  0.00    +0.152 HD
ENDROOT
BRANCH   6  14
ATOM     14  C   UNL     1      -3.098   3.603  -2.547  0.00  0.00    -0.035 A 
ATOM     15  C   UNL     1      -4.476   3.487  -2.528  0.00  0.00    +0.006 A 
ATOM     16  C   UNL     1      -5.237   4.410  -1.837  0.00  0.00    +0.020 A 
ATOM     17  C   UNL     1      -4.622   5.457  -1.173  0.00  0.00    +0.041 A 
ATOM     18  C   UNL     1      -3.243   5.575  -1.198  0.00  0.00    +0.020 A 
ATOM     19  C   UNL     1      -2.482   4.648  -1.884  0.00  0.00    +0.006 A 
ATOM     20 CL   UNL     1      -5.578   6.621  -0.311  0.00  0.00    -0.084 Cl
ENDBRANCH   6  14
BRANCH  10  21
ATOM     21  C   UNL     1      -4.182   3.187  -8.711  0.00  0.00    -0.043 A 
ATOM     22  C   UNL     1      -3.353   2.551  -9.616  0.00  0.00    +0.005 A 
ATOM     23  C   UNL     1      -3.654   2.573 -10.965  0.00  0.00    +0.020 A 
ATOM     24  C   UNL     1      -4.780   3.242 -11.411  0.00  0.00    +0.041 A 
ATOM     25  C   UNL     1      -5.607   3.883 -10.505  0.00  0.00    +0.020 A 
ATOM     26  C   UNL     1      -5.308   3.856  -9.156  0.00  0.00    +0.005 A 
ATOM     27 CL   UNL     1      -5.155   3.277 -13.105  0.00  0.00    -0.084 Cl
ENDBRANCH  10  21
BRANCH   1  28
ATOM     28  C   UNL     1      -1.891   0.876  -1.493  0.00  0.00    +0.338 C 
ATOM     29  O   UNL     1      -0.702   0.619  -1.465  0.00  0.00    -0.245 OA
BRANCH  28  30
ATOM     30  O   UNL     1      -2.619   0.825  -0.358  0.00  0.00    -0.458 OA
BRANCH  30  31
ATOM     31  C   UNL     1      -1.930   0.461   0.840  0.00  0.00    +0.173 C 
ATOM     32  C   UNL     1      -1.979  -1.058   1.015  0.00  0.00    +0.052 C 
BRANCH  31  34
ATOM     33  C   UNL     1      -2.441   2.653   1.925  0.00  0.00    +0.007 C 
ATOM     34  C   UNL     1      -2.600   1.135   2.038  0.00  0.00    +0.041 C 
ENDBRANCH  31  34
ENDBRANCH  30  31
ENDBRANCH  28  30
ENDBRANCH   1  28
TORSDOF 6
