REMARK  Name = ZINC20756406
REMARK  3 active torsions:
REMARK  status: ('A' for Active; 'I' for Inactive)
REMARK    1  A    between atoms: C_5  and  O_7
REMARK    2  A    between atoms: C_9  and  C_18
REMARK    3  A    between atoms: C_21  and  N_24
REMARK                            x       y       z     vdW  Elec       q    Type
REMARK                         _______ _______ _______ _____ _____    ______ ____
ROOT
ATOM      1  C   UNL     1       4.588   2.561  -0.550  0.00  0.00    +0.004 A 
ATOM      2  C   UNL     1       4.835   2.746   0.797  0.00  0.00    +0.006 A 
ATOM      3  C   UNL     1       3.869   2.445   1.736  0.00  0.00    -0.016 A 
ATOM      4  C   UNL     1       2.628   1.945   1.339  0.00  0.00    +0.073 A 
ATOM      5  C   UNL     1       2.389   1.766  -0.029  0.00  0.00    +0.138 A 
ATOM      6  C   UNL     1       3.361   2.073  -0.961  0.00  0.00    +0.047 A 
ATOM      7  N   UNL     1       1.616   1.570   2.226  0.00  0.00    -0.334 N 
ATOM      8  C   UNL     1       1.853   1.844   3.652  0.00  0.00    +0.105 C 
ATOM      9  C   UNL     1       3.309   1.534   3.929  0.00  0.00    +0.029 C 
ATOM     10  C   UNL     1       4.099   2.654   3.182  0.00  0.00    +0.049 C 
ATOM     11  C   UNL     1       5.448   2.579   3.796  0.00  0.00    -0.023 C 
ATOM     12  C   UNL     1       5.322   2.123   5.037  0.00  0.00    -0.030 C 
ATOM     13  C   UNL     1       3.852   1.817   5.334  0.00  0.00    +0.033 C 
ATOM     14  H   UNL     1       0.678   1.094   1.905  0.00  0.00    +0.147 HD
ENDROOT
BRANCH   8  15
ATOM     15  C   UNL     1       1.571   3.294   3.951  0.00  0.00    -0.027 A 
ATOM     16  C   UNL     1       1.240   3.683   5.236  0.00  0.00    +0.008 A 
ATOM     17  C   UNL     1       0.985   5.013   5.511  0.00  0.00    +0.033 A 
ATOM     18  C   UNL     1       1.052   5.953   4.500  0.00  0.00    +0.126 A 
ATOM     19  C   UNL     1       1.377   5.564   3.215  0.00  0.00    +0.033 A 
ATOM     20  C   UNL     1       1.636   4.234   2.940  0.00  0.00    +0.008 A 
BRANCH  18  21
ATOM     21  N   UNL     1       0.774   7.377   4.794  0.00  0.00    +0.056 N 
ATOM     22  O   UNL     1       0.833   8.206   3.903  0.00  0.00    -0.126 OA
ATOM     23  O   UNL     1       0.487   7.721   5.927  0.00  0.00    -0.126 OA
ENDBRANCH  18  21
ENDBRANCH   8  15
BRANCH   5  24
ATOM     24  O   UNL     1       1.185   1.289  -0.444  0.00  0.00    -0.505 OA
ATOM     25  H   UNL     1       0.991   1.146  -1.518  0.00  0.00    +0.292 HD
ENDBRANCH   5  24
TORSDOF 3
