REMARK  Name = ZINC03528054
REMARK  5 active torsions:
REMARK  status: ('A' for Active; 'I' for Inactive)
REMARK    1  A    between atoms: C_1  and  C_2
REMARK    2  A    between atoms: C_2  and  C_3
REMARK    3  A    between atoms: C_3  and  C_22
REMARK    4  A    between atoms: N_6  and  N_10
REMARK    5  A    between atoms: C_11  and  C_12
REMARK                            x       y       z     vdW  Elec       q    Type
REMARK                         _______ _______ _______ _____ _____    ______ ____
ROOT
ATOM      1  N   UNL     1      -1.186   2.115   0.011  0.00  0.00    -0.176 NA
ATOM      2  C   UNL     1      -1.111   3.407   0.124  0.00  0.00    +0.139 C 
ENDROOT
BRANCH   2   3
ATOM      3  C   UNL     1      -2.339   4.208   0.245  0.00  0.00    +0.002 A 
ATOM      4  C   UNL     1      -2.283   5.596   0.254  0.00  0.00    +0.010 A 
ATOM      5  C   UNL     1      -3.443   6.349   0.368  0.00  0.00    +0.001 A 
ATOM      6  C   UNL     1      -4.669   5.768   0.475  0.00  0.00    +0.008 A 
ATOM      7  C   UNL     1      -4.801   4.369   0.473  0.00  0.00    -0.017 A 
ATOM      8  C   UNL     1      -3.644   3.560   0.353  0.00  0.00    -0.009 A 
ATOM      9  C   UNL     1      -3.772   2.166   0.358  0.00  0.00    +0.009 A 
ATOM     10  C   UNL     1      -5.008   1.603   0.466  0.00  0.00    +0.001 A 
ATOM     11  C   UNL     1      -6.148   2.395   0.579  0.00  0.00    +0.001 A 
ATOM     12  C   UNL     1      -6.060   3.753   0.584  0.00  0.00    +0.008 A 
ENDBRANCH   2   3
BRANCH   1  16
ATOM     13  C   UNL     1       2.164   0.663  -0.003  0.00  0.00    +0.111 C 
ATOM     14  C   UNL     1       1.229   1.857   0.002  0.00  0.00    +0.266 C 
ATOM     15  O   UNL     1       1.538   3.029   0.006  0.00  0.00    -0.271 OA
ATOM     16  N   UNL     1      -0.017   1.343   0.002  0.00  0.00    -0.109 N 
ATOM     17  C   UNL     1       0.000   0.006  -0.004  0.00  0.00    +0.330 C 
ATOM     18  O   UNL     1      -1.001  -0.683  -0.005  0.00  0.00    -0.250 OA
ATOM     19  N   UNL     1       1.250  -0.492  -0.006  0.00  0.00    -0.284 N 
ATOM     20  C   UNL     1       3.036   0.668  -1.260  0.00  0.00    +0.041 C 
ATOM     21  H   UNL     1       1.501  -1.429  -0.011  0.00  0.00    +0.151 HD
BRANCH  13  23
ATOM     22  C   UNL     1       3.967  -0.556   1.223  0.00  0.00    +0.006 C 
ATOM     23  C   UNL     1       3.035   0.657   1.254  0.00  0.00    +0.032 C 
ENDBRANCH  13  23
ENDBRANCH   1  16
TORSDOF 3
