REMARK  Name = ZINC64793830
REMARK  6 active torsions:
REMARK  status: ('A' for Active; 'I' for Inactive)
REMARK    1  A    between atoms: C_1  and  N_2
REMARK    2  A    between atoms: C_3  and  C_17
REMARK    3  A    between atoms: C_6  and  S_7
REMARK    4  A    between atoms: S_7  and  C_8
REMARK    5  A    between atoms: C_8  and  C_9
REMARK    6  A    between atoms: C_18  and  N_26
REMARK                            x       y       z     vdW  Elec       q    Type
REMARK                         _______ _______ _______ _____ _____    ______ ____
ROOT
ATOM      1  C   UNL     1      -0.018   1.461   0.010  0.00  0.00    +0.153 C 
ATOM      2  N   UNL     1       0.002  -0.004   0.002  0.00  0.00    -0.305 N 
ATOM      3  C   UNL     1       0.009  -0.831  -1.100  0.00  0.00    +0.173 A 
ATOM      4  N   UNL     1       0.027  -2.068  -0.652  0.00  0.00    -0.128 NA
ATOM      5  N   UNL     1       0.033  -2.069   0.633  0.00  0.00    -0.122 NA
ATOM      6  C   UNL     1       0.024  -0.837   1.087  0.00  0.00    +0.192 A 
ENDROOT
BRANCH   3   7
ATOM      7  C   UNL     1      -0.003  -0.411  -2.508  0.00  0.00    +0.080 A 
ATOM      8  C   UNL     1      -0.003  -1.195  -3.622  0.00  0.00    +0.052 A 
ATOM      9  C   UNL     1      -0.017  -0.555  -4.927  0.00  0.00    +0.029 A 
ATOM     10  C   UNL     1      -0.019  -1.155  -6.210  0.00  0.00    +0.014 A 
ATOM     11  C   UNL     1      -0.033  -0.348  -7.324  0.00  0.00    +0.020 A 
ATOM     12  C   UNL     1      -0.045   1.032  -7.190  0.00  0.00    +0.112 A 
ATOM     13  N   UNL     1      -0.043   1.588  -5.993  0.00  0.00    -0.248 NA
ATOM     14  C   UNL     1      -0.030   0.859  -4.899  0.00  0.00    +0.111 A 
ATOM     15  S   UNL     1      -0.029   1.245  -3.166  0.00  0.00    -0.064 S 
BRANCH   8  16
ATOM     16  N   UNL     1       0.011  -2.592  -3.511  0.00  0.00    -0.356 N 
ATOM     17  H   UNL     1       0.020  -3.009  -2.636  0.00  0.00    +0.142 HD
ATOM     18  H   UNL     1       0.011  -3.141  -4.311  0.00  0.00    +0.142 HD
ENDBRANCH   8  16
ENDBRANCH   3   7
BRANCH   6  19
ATOM     19  S   UNL     1       0.034  -0.348   2.780  0.00  0.00    -0.081 S 
BRANCH  19  20
ATOM     20  C   UNL     1       0.065  -1.916   3.690  0.00  0.00    +0.112 C 
BRANCH  20  21
ATOM     21  C   UNL     1       0.075  -1.637   5.171  0.00  0.00    -0.034 A 
ATOM     22  C   UNL     1       1.278  -1.488   5.837  0.00  0.00    +0.007 A 
ATOM     23  C   UNL     1       1.290  -1.232   7.195  0.00  0.00    +0.041 A 
ATOM     24  C   UNL     1       0.098  -1.125   7.890  0.00  0.00    +0.158 A 
ATOM     25  C   UNL     1      -1.107  -1.275   7.223  0.00  0.00    +0.159 A 
ATOM     26  C   UNL     1      -1.117  -1.526   5.861  0.00  0.00    +0.045 A 
ATOM     27  F   UNL     1      -2.272  -1.171   7.899  0.00  0.00    -0.202 F 
ATOM     28  F   UNL     1       0.110  -0.876   9.218  0.00  0.00    -0.202 F 
ENDBRANCH  20  21
ENDBRANCH  19  20
ENDBRANCH   6  19
TORSDOF 5
