REMARK  Name = ZINC15955527
REMARK  16 active torsions:
REMARK  status: ('A' for Active; 'I' for Inactive)
REMARK    1  A    between atoms: C_1  and  C_2
REMARK    2  A    between atoms: C_2  and  C_3
REMARK    3  A    between atoms: C_3  and  C_4
REMARK    4  A    between atoms: C_4  and  N_74
REMARK    5  A    between atoms: C_5  and  C_6
REMARK    6  A    between atoms: C_5  and  N_74
REMARK    7  A    between atoms: C_6  and  C_7
REMARK    8  A    between atoms: C_7  and  C_8
REMARK    9  A    between atoms: C_9  and  C_10
REMARK   10  A    between atoms: C_9  and  N_74
REMARK   11  A    between atoms: C_10  and  C_11
REMARK   12  A    between atoms: C_11  and  N_76
REMARK   13  A    between atoms: C_12  and  C_13
REMARK   14  A    between atoms: C_12  and  N_76
REMARK   15  A    between atoms: C_19  and  C_31
REMARK   16  A    between atoms: C_23  and  C_30
REMARK                            x       y       z     vdW  Elec       q    Type
REMARK                         _______ _______ _______ _____ _____    ______ ____
ROOT
ATOM      1  C   UNL     1      -3.537   2.063  -0.494  0.00  0.00    -0.068 C 
ENDROOT
BRANCH   1   2
ATOM      2  C   UNL     1      -3.323   2.369   0.990  0.00  0.00    +0.088 C 
ATOM      3  C   UNL     1      -3.057   3.891   1.204  0.00  0.00    +0.046 C 
ATOM      4  C   UNL     1      -2.516   4.387  -0.122  0.00  0.00    +0.039 C 
ATOM      5  C   UNL     1      -1.676   5.627   0.106  0.00  0.00    -0.064 C 
ATOM      6  C   UNL     1      -1.974   6.701  -0.544  0.00  0.00    -0.073 C 
ATOM      7  C   UNL     1      -1.223   7.990  -0.352  0.00  0.00    +0.030 C 
ATOM      8  C   UNL     1      -0.658   8.016   1.073  0.00  0.00    +0.005 C 
ATOM      9  C   UNL     1       0.237   6.792   1.257  0.00  0.00    +0.011 C 
ATOM     10  C   UNL     1      -0.551   5.506   1.096  0.00  0.00    -0.007 C 
ATOM     11  C   UNL     1      -1.153   5.071   2.433  0.00  0.00    +0.056 C 
ATOM     12  C   UNL     1      -1.964   3.809   2.284  0.00  0.00    +0.181 C 
ATOM     13  O   UNL     1      -1.181   2.647   1.893  0.00  0.00    -0.461 OA
ATOM     14  C   UNL     1      -2.059   1.698   1.494  0.00  0.00    +0.309 C 
ATOM     15  O   UNL     1      -1.865   0.506   1.528  0.00  0.00    -0.251 OA
ATOM     16  C   UNL     1       0.402   4.410   0.615  0.00  0.00    +0.016 C 
ATOM     17  C   UNL     1      -3.116   6.667  -1.526  0.00  0.00    +0.039 C 
ENDBRANCH   1   2
BRANCH   1  18
ATOM     18  N   UNL     1      -3.814   0.623  -0.656  0.00  0.00    +0.380 N 
ATOM     19  H   UNL     1      -3.017   0.083  -0.300  0.00  0.00    -0.086 HD
ATOM     20  H   UNL     1      -4.658   0.379  -0.125  0.00  0.00    -0.086 HD
BRANCH  18  21
ATOM     21  C   UNL     1      -4.024   0.299  -2.079  0.00  0.00    -0.084 C 
BRANCH  21  22
ATOM     22  C   UNL     1      -4.309  -1.198  -2.216  0.00  0.00    -0.038 C 
BRANCH  22  23
ATOM     23  C   UNL     1      -4.529  -1.543  -3.690  0.00  0.00    -0.081 C 
BRANCH  23  24
ATOM     24  N   UNL     1      -4.782  -2.995  -3.808  0.00  0.00    +0.380 N 
ATOM     25  H   UNL     1      -4.035  -3.504  -3.320  0.00  0.00    -0.082 HD
BRANCH  24  26
ATOM     26  C   UNL     1      -6.079  -3.334  -3.186  0.00  0.00    -0.079 C 
BRANCH  26  27
ATOM     27  C   UNL     1      -7.204  -2.503  -3.805  0.00  0.00    -0.019 C 
BRANCH  27  29
ATOM     28  C   UNL     1      -9.659  -2.038  -3.763  0.00  0.00    +0.004 C 
ATOM     29  C   UNL     1      -8.534  -2.869  -3.143  0.00  0.00    -0.005 C 
ENDBRANCH  27  29
ENDBRANCH  26  27
ENDBRANCH  24  26
BRANCH  24  30
ATOM     30  C   UNL     1      -4.784  -3.394  -5.231  0.00  0.00    -0.079 C 
BRANCH  30  31
ATOM     31  C   UNL     1      -4.735  -4.921  -5.314  0.00  0.00    -0.019 C 
BRANCH  31  32
ATOM     32  C   UNL     1      -4.601  -5.348  -6.777  0.00  0.00    -0.005 C 
ATOM     33  C   UNL     1      -4.552  -6.875  -6.861  0.00  0.00    +0.004 C 
ENDBRANCH  31  32
ENDBRANCH  30  31
ENDBRANCH  24  30
ENDBRANCH  23  24
ENDBRANCH  22  23
ENDBRANCH  21  22
ENDBRANCH  18  21
ENDBRANCH   1  18
TORSDOF 12
