REMARK  Name = ZINC08735729
REMARK  8 active torsions:
REMARK  status: ('A' for Active; 'I' for Inactive)
REMARK    1  A    between atoms: C_1  and  C_2
REMARK    2  A    between atoms: C_3  and  C_13
REMARK    3  A    between atoms: C_4  and  C_12
REMARK    4  A    between atoms: C_9  and  C_10
REMARK    5  A    between atoms: C_13  and  C_14
REMARK    6  A    between atoms: C_14  and  C_15
REMARK    7  A    between atoms: N_17  and  C_18
REMARK    8  A    between atoms: C_24  and  C_26
REMARK                            x       y       z     vdW  Elec       q    Type
REMARK                         _______ _______ _______ _____ _____    ______ ____
ROOT
ATOM      1  C   UNL     1      -2.511  -0.004   0.038  0.00  0.00    +0.046 C 
ENDROOT
BRANCH   1   4
ATOM      2  C   UNL     1      -0.018   1.503   0.010  0.00  0.00    +0.045 C 
ATOM      3  C   UNL     1       0.002  -0.004   0.002  0.00  0.00    -0.023 A 
ATOM      4  C   UNL     1      -1.190  -0.729   0.015  0.00  0.00    -0.024 A 
ATOM      5  C   UNL     1      -1.163  -2.086   0.002  0.00  0.00    +0.019 A 
ATOM      6  N   UNL     1       0.010  -2.764  -0.013  0.00  0.00    -0.325 N 
ATOM      7  H   UNL     1      -0.000  -3.734  -0.018  0.00  0.00    +0.169 HD
ATOM      8  C   UNL     1       1.189  -2.114  -0.021  0.00  0.00    +0.267 A 
ATOM      9  O   UNL     1       2.233  -2.742  -0.034  0.00  0.00    -0.266 OA
ATOM     10  C   UNL     1       1.211  -0.695  -0.013  0.00  0.00    +0.119 A 
ATOM     11  C   UNL     1      -2.461  -2.851   0.010  0.00  0.00    +0.063 C 
BRANCH  10  12
ATOM     12  C   UNL     1       2.455   0.014  -0.021  0.00  0.00    +0.105 C 
ATOM     13  N   UNL     1       3.442   0.577  -0.027  0.00  0.00    -0.191 NA
ENDBRANCH  10  12
ENDBRANCH   1   4
BRANCH   1  14
ATOM     14  C   UNL     1      -2.877   0.344   1.482  0.00  0.00    +0.100 C 
BRANCH  14  15
ATOM     15  C   UNL     1      -4.198   1.070   1.505  0.00  0.00    +0.214 C 
ATOM     16  O   UNL     1      -4.788   1.287   0.469  0.00  0.00    -0.276 OA
ATOM     17  N   UNL     1      -4.723   1.477   2.678  0.00  0.00    -0.312 N 
ATOM     18  H   UNL     1      -4.250   1.303   3.507  0.00  0.00    +0.149 HD
BRANCH  17  19
ATOM     19  C   UNL     1      -6.006   2.182   2.700  0.00  0.00    +0.076 C 
ATOM     20  C   UNL     1      -7.148   1.163   2.711  0.00  0.00    +0.022 C 
ATOM     21  C   UNL     1      -8.489   1.899   2.734  0.00  0.00    +0.002 C 
ATOM     22  C   UNL     1      -8.571   2.771   3.990  0.00  0.00    +0.000 C 
ATOM     23  C   UNL     1      -7.429   3.789   3.979  0.00  0.00    +0.005 C 
ATOM     24  C   UNL     1      -6.088   3.053   3.955  0.00  0.00    +0.006 C 
ATOM     25  C   UNL     1      -4.947   4.072   3.944  0.00  0.00    +0.009 C 
ENDBRANCH  17  19
ENDBRANCH  14  15
ENDBRANCH   1  14
TORSDOF 5
