REMARK  Name = ZINC00906421
REMARK  8 active torsions:
REMARK  status: ('A' for Active; 'I' for Inactive)
REMARK    1  A    between atoms: C_4  and  C_7
REMARK    2  A    between atoms: C_7  and  N_8
REMARK    3  A    between atoms: C_9  and  C_11
REMARK    4  A    between atoms: C_11  and  C_13
REMARK    5  A    between atoms: C_11  and  N_23
REMARK    6  A    between atoms: N_23  and  C_24
REMARK    7  A    between atoms: C_31  and  C_33
REMARK    8  A    between atoms: C_33  and  N_34
REMARK                            x       y       z     vdW  Elec       q    Type
REMARK                         _______ _______ _______ _____ _____    ______ ____
ROOT
ATOM      1  C   UNL     1       5.811  -2.279   3.464  0.00  0.00    +0.199 C 
ENDROOT
BRANCH   1   2
ATOM      2  C   UNL     1       4.929  -3.500   3.523  0.00  0.00    +0.007 A 
ATOM      3  C   UNL     1       4.965  -4.551   2.689  0.00  0.00    +0.089 A 
ATOM      4  N   UNL     1       4.016  -5.468   3.053  0.00  0.00    -0.360 N 
ATOM      5  H   UNL     1       3.852  -6.310   2.600  0.00  0.00    +0.165 HD
ATOM      6  C   UNL     1       3.329  -5.016   4.157  0.00  0.00    +0.047 A 
ATOM      7  C   UNL     1       3.875  -3.767   4.504  0.00  0.00    +0.005 A 
ATOM      8  C   UNL     1       3.372  -3.068   5.602  0.00  0.00    +0.010 A 
ATOM      9  C   UNL     1       2.352  -3.603   6.339  0.00  0.00    +0.001 A 
ATOM     10  C   UNL     1       1.813  -4.837   6.003  0.00  0.00    +0.002 A 
ATOM     11  C   UNL     1       2.288  -5.540   4.918  0.00  0.00    +0.026 A 
ENDBRANCH   1   2
BRANCH   1  13
ATOM     12  N   UNL     1       3.926  -0.690   3.667  0.00  0.00    -0.309 N 
ATOM     13  C   UNL     1       5.007  -1.102   2.975  0.00  0.00    +0.239 C 
ATOM     14  O   UNL     1       5.332  -0.525   1.960  0.00  0.00    -0.273 OA
ATOM     15  H   UNL     1       3.665  -1.151   4.480  0.00  0.00    +0.149 HD
BRANCH  12  16
ATOM     16  C   UNL     1       3.144   0.454   3.192  0.00  0.00    +0.139 C 
BRANCH  16  20
ATOM     17  C   UNL     1      -0.105   1.173   5.871  0.00  0.00    +0.000 A 
ATOM     18  C   UNL     1       1.112   1.794   6.079  0.00  0.00    +0.000 A 
ATOM     19  C   UNL     1       2.164   1.561   5.212  0.00  0.00    +0.005 A 
ATOM     20  C   UNL     1       1.998   0.707   4.138  0.00  0.00    -0.030 A 
ATOM     21  C   UNL     1       0.781   0.085   3.930  0.00  0.00    +0.005 A 
ATOM     22  C   UNL     1      -0.271   0.319   4.796  0.00  0.00    +0.000 A 
ENDBRANCH  16  20
ENDBRANCH  12  16
ENDBRANCH   1  13
BRANCH   1  23
ATOM     23  N   UNL     1       6.925  -2.525   2.545  0.00  0.00    -0.254 N 
ATOM     24  C   UNL     1       8.165  -2.102   2.861  0.00  0.00    +0.242 C 
ATOM     25  O   UNL     1       8.318  -1.261   3.722  0.00  0.00    -0.273 OA
BRANCH  23  26
ATOM     26  C   UNL     1       6.701  -3.199   1.338  0.00  0.00    +0.038 A 
ATOM     27  C   UNL     1       5.474  -3.088   0.697  0.00  0.00    +0.026 A 
ATOM     28  C   UNL     1       5.256  -3.753  -0.493  0.00  0.00    +0.040 A 
ATOM     29  C   UNL     1       6.259  -4.531  -1.047  0.00  0.00    +0.124 A 
ATOM     30  C   UNL     1       7.483  -4.643  -0.409  0.00  0.00    +0.040 A 
ATOM     31  C   UNL     1       7.708  -3.974   0.778  0.00  0.00    +0.026 A 
ATOM     32  F   UNL     1       6.043  -5.182  -2.211  0.00  0.00    -0.205 F 
ENDBRANCH  23  26
BRANCH  24  33
ATOM     33  C   UNL     1       9.361  -2.674   2.145  0.00  0.00    +0.242 C 
BRANCH  33  34
ATOM     34  N   UNL     1      10.565  -1.940   2.543  0.00  0.00    -0.235 N 
ATOM     35  C   UNL     1      11.081  -0.817   1.941  0.00  0.00    +0.090 A 
ATOM     36  C   UNL     1      10.697  -0.043   0.851  0.00  0.00    +0.029 A 
ATOM     37  C   UNL     1      11.445   1.044   0.494  0.00  0.00    +0.002 A 
ATOM     38  C   UNL     1      12.586   1.384   1.210  0.00  0.00    +0.002 A 
ATOM     39  C   UNL     1      12.983   0.640   2.283  0.00  0.00    +0.032 A 
ATOM     40  C   UNL     1      12.234  -0.479   2.670  0.00  0.00    +0.113 A 
ATOM     41  N   UNL     1      12.373  -1.383   3.660  0.00  0.00    -0.129 NA
ATOM     42  N   UNL     1      11.416  -2.242   3.617  0.00  0.00    -0.064 NA
ENDBRANCH  33  34
ENDBRANCH  24  33
ENDBRANCH   1  23
TORSDOF 8
