REMARK  Name = ZINC38683672
REMARK  15 active torsions:
REMARK  status: ('A' for Active; 'I' for Inactive)
REMARK    1  A    between atoms: C_1  and  C_2
REMARK    2  A    between atoms: C_2  and  C_4
REMARK    3  A    between atoms: C_2  and  O_31
REMARK    4  A    between atoms: C_4  and  O_6
REMARK    5  A    between atoms: O_6  and  C_7
REMARK    6  A    between atoms: C_14  and  N_30
REMARK    7  A    between atoms: C_15  and  C_28
REMARK    8  A    between atoms: C_16  and  C_18
REMARK    9  A    between atoms: C_21  and  C_24
REMARK   10  A    between atoms: C_24  and  O_26
REMARK   11  A    between atoms: O_26  and  C_27
REMARK   12  A    between atoms: O_31  and  C_32
REMARK   13  A    between atoms: C_35  and  C_38
REMARK   14  A    between atoms: C_38  and  C_39
REMARK   15  A    between atoms: C_38  and  C_40
REMARK                            x       y       z     vdW  Elec       q    Type
REMARK                         _______ _______ _______ _____ _____    ______ ____
ROOT
ATOM      1  C   UNL     1      -3.663  -0.572   0.867  0.00  0.00    +0.135 A 
ATOM      2  C   UNL     1      -4.013  -1.396  -0.194  0.00  0.00    +0.047 A 
ATOM      3  C   UNL     1      -5.303  -1.878  -0.296  0.00  0.00    +0.012 A 
ATOM      4  C   UNL     1      -6.250  -1.543   0.655  0.00  0.00    +0.008 A 
ATOM      5  C   UNL     1      -5.906  -0.721   1.716  0.00  0.00    +0.138 A 
ATOM      6  C   UNL     1      -4.607  -0.239   1.824  0.00  0.00    +0.093 A 
ATOM      7  O   UNL     1      -6.820  -0.381   2.658  0.00  0.00    -0.441 OA
ATOM      8  C   UNL     1      -7.935  -1.116   2.805  0.00  0.00    +0.199 C 
ATOM      9  C   UNL     1      -8.383  -1.942   1.830  0.00  0.00    +0.098 C 
ATOM     10  C   UNL     1      -7.651  -2.079   0.525  0.00  0.00    +0.098 C 
ENDROOT
BRANCH  10  11
ATOM     11  C   UNL     1      -8.384  -1.307  -0.542  0.00  0.00    -0.035 A 
ATOM     12  C   UNL     1      -8.551   0.060  -0.410  0.00  0.00    +0.005 A 
ATOM     13  C   UNL     1      -9.220   0.774  -1.383  0.00  0.00    +0.015 A 
ATOM     14  C   UNL     1      -9.730   0.113  -2.502  0.00  0.00    +0.059 A 
ATOM     15  C   UNL     1      -9.558  -1.268  -2.629  0.00  0.00    +0.015 A 
ATOM     16  C   UNL     1      -8.882  -1.967  -1.651  0.00  0.00    +0.005 A 
BRANCH  14  17
ATOM     17  C   UNL     1     -10.449   0.869  -3.548  0.00  0.00    +0.339 C 
ATOM     18  O   UNL     1     -10.597   2.070  -3.435  0.00  0.00    -0.245 OA
BRANCH  17  19
ATOM     19  O   UNL     1     -10.940   0.229  -4.626  0.00  0.00    -0.464 OA
ATOM     20  C   UNL     1     -11.623   1.023  -5.597  0.00  0.00    +0.280 C 
ENDBRANCH  17  19
ENDBRANCH  14  17
ENDBRANCH  10  11
BRANCH   8  21
ATOM     21  N   UNL     1      -8.641  -1.027   3.979  0.00  0.00    -0.328 N 
ATOM     22  H   UNL     1      -8.333  -0.440   4.687  0.00  0.00    +0.145 HD
ATOM     23  H   UNL     1      -9.448  -1.551   4.100  0.00  0.00    +0.145 HD
ENDBRANCH   8  21
BRANCH   9  24
ATOM     24  C   UNL     1      -9.578  -2.701   2.047  0.00  0.00    +0.101 C 
ATOM     25  N   UNL     1     -10.526  -3.302   2.220  0.00  0.00    -0.191 NA
ENDBRANCH   9  24
BRANCH   1  26
ATOM     26  O   UNL     1      -2.394  -0.096   0.969  0.00  0.00    -0.423 OA
BRANCH  26  27
ATOM     27  C   UNL     1      -2.027   0.902   0.149  0.00  0.00    +0.353 C 
ATOM     28  O   UNL     1      -2.841   1.412  -0.584  0.00  0.00    -0.246 OA
BRANCH  27  30
ATOM     29  C   UNL     1      -0.267   2.011   1.499  0.00  0.00    +0.064 C 
ATOM     30  C   UNL     1      -0.600   1.386   0.142  0.00  0.00    +0.279 C 
BRANCH  30  31
ATOM     31  O   UNL     1      -0.433   2.364  -0.886  0.00  0.00    -0.478 OA
BRANCH  31  32
ATOM     32  C   UNL     1       0.820   2.526  -1.386  0.00  0.00    +0.122 A 
ATOM     33  C   UNL     1       1.887   1.838  -0.825  0.00  0.00    +0.046 A 
ATOM     34  C   UNL     1       3.159   2.004  -1.335  0.00  0.00    +0.007 A 
ATOM     35  C   UNL     1       3.372   2.854  -2.404  0.00  0.00    -0.045 A 
ATOM     36  C   UNL     1       2.311   3.541  -2.966  0.00  0.00    +0.007 A 
ATOM     37  C   UNL     1       1.035   3.374  -2.463  0.00  0.00    +0.046 A 
BRANCH  35  38
ATOM     38  C   UNL     1       4.761   3.034  -2.959  0.00  0.00    +0.013 C 
ATOM     39  C   UNL     1       4.783   2.610  -4.429  0.00  0.00    +0.012 C 
ATOM     40  C   UNL     1       5.170   4.504  -2.846  0.00  0.00    +0.012 C 
ENDBRANCH  35  38
ENDBRANCH  31  32
ENDBRANCH  30  31
ENDBRANCH  27  30
ENDBRANCH  26  27
ENDBRANCH   1  26
TORSDOF 11
