REMARK  Name = ZINC60424020
REMARK  8 active torsions:
REMARK  status: ('A' for Active; 'I' for Inactive)
REMARK    1  A    between atoms: C_1  and  C_2
REMARK    2  A    between atoms: C_6  and  C_28
REMARK    3  A    between atoms: C_7  and  N_8
REMARK    4  A    between atoms: C_9  and  C_13
REMARK    5  A    between atoms: C_13  and  S_14
REMARK    6  A    between atoms: S_14  and  C_15
REMARK    7  A    between atoms: C_18  and  C_21
REMARK    8  A    between atoms: N_19  and  N_20
REMARK                            x       y       z     vdW  Elec       q    Type
REMARK                         _______ _______ _______ _____ _____    ______ ____
ROOT
ATOM      1  S   UNL     1       2.006  -2.543   3.898  0.00  0.00    -0.077 S 
ENDROOT
BRANCH   1   2
ATOM      2  C   UNL     1       2.124  -4.271   4.222  0.00  0.00    +0.209 A 
ATOM      3  N   UNL     1       1.124  -5.092   4.452  0.00  0.00    -0.121 NA
ATOM      4  N   UNL     1       1.565  -6.282   4.648  0.00  0.00    -0.127 NA
ATOM      5  C   UNL     1       2.875  -6.296   4.556  0.00  0.00    +0.182 A 
ATOM      6  N   UNL     1       3.273  -5.009   4.275  0.00  0.00    -0.224 N 
BRANCH   5   7
ATOM      7  C   UNL     1       3.755  -7.473   4.718  0.00  0.00    +0.021 A 
ATOM      8  C   UNL     1       5.126  -7.300   4.911  0.00  0.00    +0.014 A 
ATOM      9  C   UNL     1       5.943  -8.401   5.062  0.00  0.00    +0.039 A 
ATOM     10  C   UNL     1       5.404  -9.677   5.023  0.00  0.00    +0.123 A 
ATOM     11  C   UNL     1       4.043  -9.854   4.832  0.00  0.00    +0.039 A 
ATOM     12  C   UNL     1       3.216  -8.760   4.685  0.00  0.00    +0.014 A 
ATOM     13  F   UNL     1       6.208 -10.752   5.171  0.00  0.00    -0.205 F 
ENDBRANCH   5   7
BRANCH   6  14
ATOM     14  N   UNL     1       4.550  -4.563   4.090  0.00  0.00    -0.295 N 
ATOM     15  H   UNL     1       4.960  -4.267   4.963  0.00  0.00    +0.163 HD
ATOM     16  H   UNL     1       5.119  -5.267   3.644  0.00  0.00    +0.163 HD
ENDBRANCH   6  14
ENDBRANCH   1   2
BRANCH   1  17
ATOM     17  C   UNL     1       0.226  -2.204   3.970  0.00  0.00    +0.155 C 
BRANCH  17  19
ATOM     18  N   UNL     1      -0.592  -0.209   2.606  0.00  0.00    -0.196 N 
ATOM     19  C   UNL     1      -0.017  -0.740   3.707  0.00  0.00    +0.167 A 
ATOM     20  N   UNL     1       0.288   0.252   4.502  0.00  0.00    -0.112 NA
ATOM     21  N   UNL     1      -0.054   1.373   3.979  0.00  0.00    -0.023 NA
ATOM     22  N   UNL     1      -0.591   1.180   2.822  0.00  0.00    -0.039 NA
BRANCH  18  29
ATOM     23  C   UNL     1       1.283  -1.498   0.895  0.00  0.00    +0.046 C 
ATOM     24  C   UNL     1      -0.199  -1.538   0.625  0.00  0.00    -0.025 A 
ATOM     25  C   UNL     1      -0.683  -2.219  -0.475  0.00  0.00    +0.005 A 
ATOM     26  C   UNL     1      -2.043  -2.257  -0.724  0.00  0.00    +0.001 A 
ATOM     27  C   UNL     1      -2.922  -1.613   0.127  0.00  0.00    +0.005 A 
ATOM     28  C   UNL     1      -2.444  -0.931   1.229  0.00  0.00    -0.025 A 
ATOM     29  C   UNL     1      -1.080  -0.896   1.485  0.00  0.00    +0.075 A 
ATOM     30  C   UNL     1      -3.403  -0.229   2.156  0.00  0.00    +0.046 C 
ENDBRANCH  18  29
ENDBRANCH  17  19
ENDBRANCH   1  17
TORSDOF 6
