REMARK  Name = ZINC02707256
REMARK  2 active torsions:
REMARK  status: ('A' for Active; 'I' for Inactive)
REMARK    1  A    between atoms: C_9  and  C_12
REMARK    2  A    between atoms: C_19  and  C_27
REMARK                            x       y       z     vdW  Elec       q    Type
REMARK                         _______ _______ _______ _____ _____    ______ ____
ROOT
ATOM      1  C   UNL     1       1.058   6.334   0.890  0.00  0.00    +0.001 A 
ATOM      2  C   UNL     1       1.052   6.147  -0.481  0.00  0.00    +0.004 A 
ATOM      3  C   UNL     1       0.296   5.137  -1.049  0.00  0.00    +0.046 A 
ATOM      4  C   UNL     1      -0.458   4.307  -0.241  0.00  0.00    +0.131 A 
ATOM      5  C   UNL     1      -0.452   4.495   1.147  0.00  0.00    +0.038 A 
ATOM      6  C   UNL     1       0.309   5.512   1.710  0.00  0.00    +0.013 A 
ATOM      7  C   UNL     1      -1.272   3.587   1.984  0.00  0.00    +0.050 C 
ATOM      8  C   UNL     1      -1.706   2.445   1.447  0.00  0.00    +0.026 C 
ATOM      9  C   UNL     1      -1.332   2.113   0.020  0.00  0.00    +0.234 C 
ATOM     10  O   UNL     1      -1.211   3.304  -0.758  0.00  0.00    -0.479 OA
ATOM     11  C   UNL     1      -2.563   1.468   2.212  0.00  0.00    +0.179 C 
ATOM     12  N   UNL     1      -2.546   1.792   3.634  0.00  0.00    -0.221 N 
ATOM     13  C   UNL     1      -2.078   2.963   4.134  0.00  0.00    +0.219 A 
ATOM     14  N   UNL     1      -2.216   2.933   5.431  0.00  0.00    -0.201 NA
ATOM     15  C   UNL     1      -2.759   1.767   5.795  0.00  0.00    +0.247 A 
ATOM     16  N   UNL     1      -2.975   1.040   4.727  0.00  0.00    -0.156 NA
ATOM     17  N   UNL     1      -1.560   3.946   3.306  0.00  0.00    -0.283 N 
ATOM     18  H   UNL     1      -1.405   4.848   3.630  0.00  0.00    +0.155 HD
ENDROOT
BRANCH   9  19
ATOM     19  C   UNL     1      -0.017   1.378   0.010  0.00  0.00    -0.002 A 
ATOM     20  C   UNL     1       1.164   2.070   0.206  0.00  0.00    +0.007 A 
ATOM     21  C   UNL     1       2.371   1.397   0.191  0.00  0.00    +0.002 A 
ATOM     22  C   UNL     1       2.399   0.031  -0.020  0.00  0.00    +0.020 A 
ATOM     23  C   UNL     1       1.218  -0.662  -0.217  0.00  0.00    +0.041 A 
ATOM     24  C   UNL     1       0.010   0.012  -0.202  0.00  0.00    +0.027 A 
ATOM     25 CL   UNL     1       1.252  -2.377  -0.483  0.00  0.00    -0.084 Cl
ENDBRANCH   9  19
BRANCH  11  26
ATOM     26  C   UNL     1      -3.979   1.538   1.701  0.00  0.00    +0.019 A 
ATOM     27  C   UNL     1      -4.733   0.562   1.139  0.00  0.00    +0.013 A 
ATOM     28  C   UNL     1      -6.024   0.857   0.743  0.00  0.00    +0.008 A 
ATOM     29  C   UNL     1      -6.495   2.115   0.919  0.00  0.00    +0.045 A 
ATOM     30  S   UNL     1      -5.096   2.931   1.672  0.00  0.00    -0.099 S 
ENDBRANCH  11  26
TORSDOF 2
