REMARK  Name = ZINC18136373
REMARK  9 active torsions:
REMARK  status: ('A' for Active; 'I' for Inactive)
REMARK    1  A    between atoms: C_1  and  C_2
REMARK    2  A    between atoms: C_3  and  C_32
REMARK    3  A    between atoms: C_4  and  N_31
REMARK    4  A    between atoms: C_9  and  C_10
REMARK    5  A    between atoms: C_13  and  O_17
REMARK    6  A    between atoms: O_17  and  C_18
REMARK    7  A    between atoms: C_18  and  C_19
REMARK    8  A    between atoms: C_26  and  C_30
REMARK    9  A    between atoms: C_27  and  C_28
REMARK                            x       y       z     vdW  Elec       q    Type
REMARK                         _______ _______ _______ _____ _____    ______ ____
ROOT
ATOM      1  C   UNL     1      -9.481   6.762   1.516  0.00  0.00    +0.046 C 
ATOM      2  C   UNL     1      -9.497   6.511   3.001  0.00  0.00    -0.020 A 
ATOM      3  C   UNL     1     -10.678   6.646   3.740  0.00  0.00    +0.095 A 
ATOM      4  C   UNL     1     -10.649   6.403   5.127  0.00  0.00    +0.135 A 
ATOM      5  N   UNL     1      -9.530   6.051   5.733  0.00  0.00    -0.230 NA
ATOM      6  C   UNL     1      -8.387   5.912   5.067  0.00  0.00    +0.092 A 
ATOM      7  C   UNL     1      -8.339   6.145   3.676  0.00  0.00    +0.013 A 
ATOM      8  C   UNL     1      -6.947   5.905   3.244  0.00  0.00    -0.011 C 
ATOM      9  C   UNL     1      -6.463   6.019   1.954  0.00  0.00    +0.016 C 
ATOM     10  C   UNL     1      -6.199   5.544   4.386  0.00  0.00    -0.023 C 
ATOM     11  C   UNL     1      -7.027   5.539   5.490  0.00  0.00    +0.081 C 
ATOM     12  C   UNL     1      -4.728   5.218   4.397  0.00  0.00    +0.046 C 
ENDROOT
BRANCH   9  13
ATOM     13  C   UNL     1      -5.020   6.048   1.714  0.00  0.00    -0.023 A 
ATOM     14  C   UNL     1      -4.188   6.839   2.521  0.00  0.00    +0.011 A 
ATOM     15  C   UNL     1      -2.841   6.863   2.295  0.00  0.00    +0.047 A 
ATOM     16  C   UNL     1      -2.289   6.106   1.267  0.00  0.00    +0.135 A 
ATOM     17  C   UNL     1      -3.105   5.322   0.456  0.00  0.00    +0.060 A 
ATOM     18  C   UNL     1      -4.463   5.284   0.677  0.00  0.00    +0.027 A 
ATOM     19 BR   UNL     1      -2.346   4.302  -0.944  0.00  0.00    -0.046 Br
BRANCH  16  20
ATOM     20  O   UNL     1      -0.950   6.138   1.050  0.00  0.00    -0.486 OA
BRANCH  20  21
ATOM     21  C   UNL     1      -0.172   6.968   1.914  0.00  0.00    +0.264 C 
BRANCH  21  22
ATOM     22  C   UNL     1       1.281   6.875   1.524  0.00  0.00    -0.010 A 
ATOM     23  C   UNL     1       2.092   5.918   2.104  0.00  0.00    +0.010 A 
ATOM     24  C   UNL     1       3.426   5.836   1.751  0.00  0.00    +0.039 A 
ATOM     25  C   UNL     1       3.950   6.714   0.818  0.00  0.00    +0.123 A 
ATOM     26  C   UNL     1       3.137   7.673   0.238  0.00  0.00    +0.039 A 
ATOM     27  C   UNL     1       1.803   7.753   0.592  0.00  0.00    +0.010 A 
ATOM     28  F   UNL     1       5.254   6.634   0.472  0.00  0.00    -0.205 F 
ENDBRANCH  21  22
ENDBRANCH  20  21
ENDBRANCH  16  20
ENDBRANCH   9  13
BRANCH   4  29
ATOM     29  N   UNL     1     -11.812   6.535   5.867  0.00  0.00    -0.342 N 
ATOM     30  H   UNL     1     -11.801   6.369   6.822  0.00  0.00    +0.144 HD
ATOM     31  H   UNL     1     -12.639   6.793   5.429  0.00  0.00    +0.144 HD
ENDBRANCH   4  29
BRANCH  11  32
ATOM     32  C   UNL     1      -6.628   5.222   6.828  0.00  0.00    +0.102 C 
ATOM     33  N   UNL     1      -6.311   4.971   7.890  0.00  0.00    -0.191 NA
ENDBRANCH  11  32
BRANCH   3  34
ATOM     34  C   UNL     1     -11.898   7.027   3.095  0.00  0.00    +0.103 C 
ATOM     35  N   UNL     1     -12.866   7.329   2.583  0.00  0.00    -0.191 NA
ENDBRANCH   3  34
TORSDOF 7
