REMARK  Name = ZINC03214948
REMARK  2 active torsions:
REMARK  status: ('A' for Active; 'I' for Inactive)
REMARK    1  A    between atoms: C_4  and  N_7
REMARK    2  A    between atoms: C_8  and  N_10
REMARK                            x       y       z     vdW  Elec       q    Type
REMARK                         _______ _______ _______ _____ _____    ______ ____
ROOT
ATOM      1  N   UNL     1       4.707  -2.820  -0.100  0.00  0.00    -0.143 NA
ATOM      2  C   UNL     1       4.628  -4.151  -0.166  0.00  0.00    +0.156 C 
ATOM      3  C   UNL     1       3.282  -4.738  -0.089  0.00  0.00    +0.022 A 
ATOM      4  C   UNL     1       2.201  -4.064  -0.667  0.00  0.00    +0.012 A 
ATOM      5  C   UNL     1       0.938  -4.614  -0.616  0.00  0.00    +0.001 A 
ATOM      6  C   UNL     1       0.735  -5.833   0.005  0.00  0.00    +0.000 A 
ATOM      7  C   UNL     1       1.797  -6.502   0.585  0.00  0.00    +0.006 A 
ATOM      8  C   UNL     1       3.067  -5.957   0.547  0.00  0.00    -0.019 A 
ATOM      9  C   UNL     1       4.204  -6.674   1.214  0.00  0.00    +0.147 C 
ATOM     10  N   UNL     1       5.236  -7.039   0.246  0.00  0.00    -0.286 N 
ATOM     11  C   UNL     1       5.463  -8.365   0.028  0.00  0.00    +0.097 C 
ATOM     12  C   UNL     1       6.427  -8.781  -0.826  0.00  0.00    +0.055 C 
ATOM     13  C   UNL     1       7.205  -7.838  -1.508  0.00  0.00    +0.024 C 
ATOM     14  C   UNL     1       6.971  -6.510  -1.308  0.00  0.00    +0.045 C 
ATOM     15  C   UNL     1       5.955  -6.100  -0.419  0.00  0.00    +0.128 C 
ATOM     16  N   UNL     1       5.744  -4.797  -0.298  0.00  0.00    -0.214 NA
ATOM     17 CL   UNL     1       6.699 -10.478  -1.075  0.00  0.00    -0.082 Cl
ENDROOT
BRANCH   1  19
ATOM     18  N   UNL     1       3.178  -2.050   1.472  0.00  0.00    -0.268 N 
ATOM     19  C   UNL     1       3.623  -2.099   0.200  0.00  0.00    +0.329 C 
ATOM     20  O   UNL     1       3.036  -1.487  -0.675  0.00  0.00    -0.250 OA
ATOM     21  H   UNL     1       3.665  -2.509   2.174  0.00  0.00    +0.156 HD
BRANCH  18  25
ATOM     22  C   UNL     1      -0.286   0.074   2.385  0.00  0.00    +0.000 A 
ATOM     23  C   UNL     1       0.002  -1.098   3.060  0.00  0.00    +0.002 A 
ATOM     24  C   UNL     1       1.150  -1.804   2.759  0.00  0.00    +0.023 A 
ATOM     25  C   UNL     1       2.015  -1.337   1.778  0.00  0.00    +0.035 A 
ATOM     26  C   UNL     1       1.722  -0.159   1.102  0.00  0.00    +0.023 A 
ATOM     27  C   UNL     1       0.572   0.542   1.408  0.00  0.00    +0.002 A 
ENDBRANCH  18  25
ENDBRANCH   1  19
TORSDOF 2
