REMARK  Name = ZINC40065931
REMARK  14 active torsions:
REMARK  status: ('A' for Active; 'I' for Inactive)
REMARK    1  A    between atoms: C_1  and  C_2
REMARK    2  A    between atoms: C_2  and  C_3
REMARK    3  A    between atoms: C_3  and  C_4
REMARK    4  A    between atoms: C_4  and  C_5
REMARK    5  A    between atoms: C_5  and  O_6
REMARK    6  A    between atoms: O_6  and  C_7
REMARK    7  A    between atoms: C_10  and  C_16
REMARK    8  A    between atoms: C_12  and  O_13
REMARK    9  A    between atoms: O_13  and  C_14
REMARK   10  A    between atoms: C_14  and  C_15
REMARK   11  A    between atoms: C_24  and  C_40
REMARK   12  A    between atoms: C_25  and  C_39
REMARK   13  A    between atoms: N_31  and  C_32
REMARK   14  A    between atoms: C_32  and  C_33
REMARK                            x       y       z     vdW  Elec       q    Type
REMARK                         _______ _______ _______ _____ _____    ______ ____
ROOT
ATOM      1  C   UNL     1       4.110  -6.520   6.778  0.00  0.00    +0.145 C 
ATOM      2  C   UNL     1       5.591  -6.456   6.600  0.00  0.00    +0.072 A 
ATOM      3  C   UNL     1       6.462  -6.994   5.549  0.00  0.00    +0.199 A 
ATOM      4  O   UNL     1       6.039  -7.468   4.510  0.00  0.00    -0.287 OA
ATOM      5  C   UNL     1       7.908  -6.905   5.873  0.00  0.00    +0.065 A 
ATOM      6  C   UNL     1       8.852  -7.548   5.072  0.00  0.00    +0.015 A 
ATOM      7  C   UNL     1      10.180  -7.460   5.387  0.00  0.00    +0.004 A 
ATOM      8  C   UNL     1      10.589  -6.736   6.498  0.00  0.00    -0.044 A 
ATOM      9  C   UNL     1       9.671  -6.093   7.298  0.00  0.00    -0.005 A 
ATOM     10  C   UNL     1       8.310  -6.165   6.997  0.00  0.00    +0.143 A 
ATOM     11  O   UNL     1       7.427  -5.518   7.791  0.00  0.00    -0.449 OA
ATOM     12  C   UNL     1       6.108  -5.760   7.655  0.00  0.00    +0.199 A 
ATOM     13  C   UNL     1       4.996  -5.365   8.537  0.00  0.00    +0.283 C 
ATOM     14  O   UNL     1       5.117  -4.735   9.569  0.00  0.00    -0.267 OA
ATOM     15  N   UNL     1       3.824  -5.805   8.033  0.00  0.00    -0.279 N 
ATOM     16  C   UNL     1      10.136  -5.312   8.499  0.00  0.00    +0.048 C 
ATOM     17  C   UNL     1      12.056  -6.651   6.832  0.00  0.00    +0.044 C 
ENDROOT
BRANCH   1  21
ATOM     18  C   UNL     1       2.146  -4.591   3.505  0.00  0.00    +0.162 A 
ATOM     19  C   UNL     1       2.722  -3.836   4.514  0.00  0.00    +0.050 A 
ATOM     20  C   UNL     1       3.356  -4.462   5.571  0.00  0.00    +0.009 A 
ATOM     21  C   UNL     1       3.417  -5.842   5.624  0.00  0.00    -0.019 A 
ATOM     22  C   UNL     1       2.845  -6.602   4.621  0.00  0.00    +0.055 A 
ATOM     23  C   UNL     1       2.203  -5.980   3.562  0.00  0.00    +0.162 A 
BRANCH  18  24
ATOM     24  O   UNL     1       1.522  -3.976   2.465  0.00  0.00    -0.488 OA
BRANCH  24  25
ATOM     25  C   UNL     1       1.503  -2.548   2.473  0.00  0.00    +0.229 C 
BRANCH  25  26
ATOM     26  C   UNL     1       0.763  -2.041   1.233  0.00  0.00    +0.041 C 
BRANCH  26  27
ATOM     27  C   UNL     1       0.742  -0.511   1.242  0.00  0.00    +0.003 C 
BRANCH  27  29
ATOM     28  C   UNL     1      -0.019   1.526   0.010  0.00  0.00    +0.004 C 
ATOM     29  C   UNL     1       0.002  -0.004   0.002  0.00  0.00    -0.003 C 
ENDBRANCH  27  29
ENDBRANCH  26  27
ENDBRANCH  25  26
ENDBRANCH  24  25
ENDBRANCH  18  24
BRANCH  23  30
ATOM     30  O   UNL     1       1.635  -6.726   2.577  0.00  0.00    -0.489 OA
BRANCH  30  31
ATOM     31  C   UNL     1       1.732  -8.147   2.701  0.00  0.00    +0.226 C 
ATOM     32  C   UNL     1       1.040  -8.811   1.509  0.00  0.00    +0.048 C 
ENDBRANCH  30  31
ENDBRANCH  23  30
ENDBRANCH   1  21
BRANCH  15  33
ATOM     33  C   UNL     1       2.499  -5.606   8.627  0.00  0.00    +0.144 C 
BRANCH  33  34
ATOM     34  C   UNL     1       2.188  -6.752   9.556  0.00  0.00    -0.030 A 
ATOM     35  C   UNL     1       1.552  -7.880   9.072  0.00  0.00    +0.005 A 
ATOM     36  C   UNL     1       1.267  -8.931   9.924  0.00  0.00    +0.000 A 
ATOM     37  C   UNL     1       1.618  -8.854  11.258  0.00  0.00    +0.000 A 
ATOM     38  C   UNL     1       2.254  -7.726  11.742  0.00  0.00    +0.000 A 
ATOM     39  C   UNL     1       2.544  -6.676  10.889  0.00  0.00    +0.005 A 
ENDBRANCH  33  34
ENDBRANCH  15  33
TORSDOF 10
