REMARK  Name = ZINC64006653
REMARK  11 active torsions:
REMARK  status: ('A' for Active; 'I' for Inactive)
REMARK    1  A    between atoms: C_1  and  C_2
REMARK    2  A    between atoms: C_4  and  C_39
REMARK    3  A    between atoms: C_7  and  C_13
REMARK    4  A    between atoms: C_9  and  C_12
REMARK    5  A    between atoms: N_15  and  C_16
REMARK    6  A    between atoms: C_16  and  C_17
REMARK    7  A    between atoms: C_18  and  C_38
REMARK    8  A    between atoms: C_20  and  C_23
REMARK    9  A    between atoms: C_28  and  N_29
REMARK   10  A    between atoms: C_30  and  C_32
REMARK   11  A    between atoms: C_32  and  C_33
REMARK                            x       y       z     vdW  Elec       q    Type
REMARK                         _______ _______ _______ _____ _____    ______ ____
ROOT
ATOM      1  C   UNL     1       2.369  -7.280   4.688  0.00  0.00    +0.062 C 
ATOM      2  C   UNL     1       3.391  -8.127   5.412  0.00  0.00    +0.164 C 
ATOM      3  O   UNL     1       2.634  -8.848   6.406  0.00  0.00    -0.342 OA
ATOM      4  C   UNL     1       1.501  -7.988   6.638  0.00  0.00    +0.268 C 
ATOM      5  N   UNL     1       1.311  -7.215   5.405  0.00  0.00    -0.253 NA
ATOM      6  C   UNL     1       4.059  -9.103   4.441  0.00  0.00    +0.044 C 
ENDROOT
BRANCH   4   7
ATOM      7  C   UNL     1       0.276  -8.815   6.931  0.00  0.00    +0.024 A 
ATOM      8  C   UNL     1      -0.702  -8.967   5.968  0.00  0.00    +0.010 A 
ATOM      9  C   UNL     1      -1.827  -9.725   6.236  0.00  0.00    +0.001 A 
ATOM     10  C   UNL     1      -1.977 -10.334   7.468  0.00  0.00    +0.002 A 
ATOM     11  C   UNL     1      -1.002 -10.186   8.436  0.00  0.00    +0.024 A 
ATOM     12  C   UNL     1       0.131  -9.429   8.168  0.00  0.00    +0.041 A 
BRANCH  12  13
ATOM     13  N   UNL     1       1.123  -9.282   9.144  0.00  0.00    -0.285 N 
ATOM     14  C   UNL     1       0.781  -9.215  10.446  0.00  0.00    +0.217 C 
ATOM     15  O   UNL     1      -0.375  -9.364  10.779  0.00  0.00    -0.275 OA
ATOM     16  H   UNL     1       2.055  -9.228   8.884  0.00  0.00    +0.155 HD
BRANCH  14  17
ATOM     17  C   UNL     1       1.838  -8.955  11.490  0.00  0.00    +0.099 C 
BRANCH  17  18
ATOM     18  C   UNL     1       1.190  -8.928  12.876  0.00  0.00    -0.002 C 
ATOM     19  C   UNL     1       0.273  -7.694  13.006  0.00  0.00    +0.004 C 
ATOM     20  C   UNL     1       0.464  -7.233  14.472  0.00  0.00    +0.000 C 
ATOM     21  C   UNL     1       1.975  -7.475  14.713  0.00  0.00    +0.000 C 
ATOM     22  C   UNL     1       2.272  -8.789  13.960  0.00  0.00    +0.004 C 
ENDBRANCH  17  18
ENDBRANCH  14  17
ENDBRANCH  12  13
ENDBRANCH   4   7
BRANCH   1  23
ATOM     23  C   UNL     1       2.565  -6.617   3.348  0.00  0.00    +0.157 C 
BRANCH  23  26
ATOM     24  C   UNL     1       1.294  -5.211   1.817  0.00  0.00    +0.240 C 
ATOM     25  O   UNL     1       2.250  -5.210   1.071  0.00  0.00    -0.273 OA
ATOM     26  N   UNL     1       1.349  -5.886   2.982  0.00  0.00    -0.308 N 
ATOM     27  H   UNL     1       0.585  -5.887   3.579  0.00  0.00    +0.149 HD
BRANCH  24  34
ATOM     28  C   UNL     1      -0.071   1.442  -0.054  0.00  0.00    +0.044 C 
ATOM     29  C   UNL     1      -0.043  -0.065  -0.053  0.00  0.00    -0.050 A 
ATOM     30  C   UNL     1      -0.036  -0.748  -1.277  0.00  0.00    +0.008 A 
ATOM     31  C   UNL     1      -0.012  -2.095  -1.361  0.00  0.00    -0.027 A 
ATOM     32  C   UNL     1       0.008  -2.888  -0.180  0.00  0.00    +0.046 A 
ATOM     33  N   UNL     1       0.032  -4.186  -0.001  0.00  0.00    -0.370 N 
ATOM     34  C   UNL     1       0.044  -4.459   1.441  0.00  0.00    +0.193 C 
ATOM     35  C   UNL     1       0.022  -3.108   2.119  0.00  0.00    -0.033 C 
ATOM     36  C   UNL     1       0.002  -2.190   1.126  0.00  0.00    -0.000 A 
ATOM     37  C   UNL     1      -0.019  -0.722   1.128  0.00  0.00    +0.013 A 
ATOM     38  C   UNL     1       0.024  -2.838   3.602  0.00  0.00    +0.042 C 
ATOM     39  C   UNL     1      -0.006  -2.762  -2.712  0.00  0.00    +0.046 C 
ATOM     40  H   UNL     1       0.041  -4.854  -0.704  0.00  0.00    +0.161 HD
ENDBRANCH  24  34
ENDBRANCH  23  26
ENDBRANCH   1  23
TORSDOF 7
