REMARK  Name = ZINC38750779
REMARK  4 active torsions:
REMARK  status: ('A' for Active; 'I' for Inactive)
REMARK    1  A    between atoms: C_6  and  C_7
REMARK    2  A    between atoms: C_9  and  C_12
REMARK    3  A    between atoms: C_12  and  N_13
REMARK    4  A    between atoms: C_14  and  C_16
REMARK                            x       y       z     vdW  Elec       q    Type
REMARK                         _______ _______ _______ _____ _____    ______ ____
ROOT
ATOM      1  C   UNL     1      -1.266  -0.762   0.010  0.00  0.00    +0.168 A 
ATOM      2  C   UNL     1      -2.520  -0.230   0.020  0.00  0.00    +0.077 A 
ATOM      3  C   UNL     1      -3.439  -1.289   0.024  0.00  0.00    +0.101 A 
ATOM      4  N   UNL     1      -2.773  -2.410   0.018  0.00  0.00    -0.081 NA
ATOM      5  O   UNL     1      -1.391  -2.103   0.004  0.00  0.00    -0.354 OA
ENDROOT
BRANCH   1  11
ATOM      6  C   UNL     1      -0.017   1.391   0.010  0.00  0.00    +0.015 A 
ATOM      7  C   UNL     1       1.168   2.097   0.002  0.00  0.00    +0.050 A 
ATOM      8  C   UNL     1       2.381   1.425  -0.013  0.00  0.00    +0.166 A 
ATOM      9  C   UNL     1       2.407   0.030  -0.021  0.00  0.00    +0.167 A 
ATOM     10  C   UNL     1       1.223  -0.682  -0.014  0.00  0.00    +0.061 A 
ATOM     11  C   UNL     1       0.002  -0.004   0.002  0.00  0.00    +0.024 A 
ATOM     12  O   UNL     1       3.708  -0.382  -0.036  0.00  0.00    -0.453 OA
ATOM     13  C   UNL     1       4.470   0.768  -0.450  0.00  0.00    +0.466 C 
ATOM     14  O   UNL     1       3.667   1.883  -0.023  0.00  0.00    -0.453 OA
ENDBRANCH   1  11
BRANCH   3  15
ATOM     15  C   UNL     1      -4.940  -1.154   0.035  0.00  0.00    +0.163 C 
BRANCH  15  16
ATOM     16  N   UNL     1      -5.447  -1.228  -1.338  0.00  0.00    -0.306 N 
ATOM     17  C   UNL     1      -6.770  -1.130  -1.573  0.00  0.00    +0.246 C 
ATOM     18  O   UNL     1      -7.543  -0.981  -0.647  0.00  0.00    -0.270 OA
ATOM     19  H   UNL     1      -4.830  -1.347  -2.077  0.00  0.00    +0.149 HD
BRANCH  17  20
ATOM     20  C   UNL     1      -7.281  -1.204  -2.957  0.00  0.00    +0.055 A 
ATOM     21  C   UNL     1      -6.396  -1.381  -4.023  0.00  0.00    +0.016 A 
ATOM     22  C   UNL     1      -6.879  -1.450  -5.312  0.00  0.00    +0.021 A 
ATOM     23  C   UNL     1      -8.239  -1.343  -5.553  0.00  0.00    +0.042 A 
ATOM     24  C   UNL     1      -9.123  -1.167  -4.502  0.00  0.00    +0.040 A 
ATOM     25  C   UNL     1      -8.653  -1.104  -3.205  0.00  0.00    +0.054 A 
ATOM     26 CL   UNL     1      -9.762  -0.891  -1.887  0.00  0.00    -0.083 Cl
ATOM     27 CL   UNL     1      -8.839  -1.430  -7.180  0.00  0.00    -0.083 Cl
ENDBRANCH  17  20
ENDBRANCH  15  16
ENDBRANCH   3  15
TORSDOF 4
