REMARK  Name = ZINC04236501
REMARK  9 active torsions:
REMARK  status: ('A' for Active; 'I' for Inactive)
REMARK    1  A    between atoms: C_1  and  C_2
REMARK    2  A    between atoms: C_2  and  C_3
REMARK    3  A    between atoms: C_2  and  C_4
REMARK    4  A    between atoms: C_7  and  N_10
REMARK    5  A    between atoms: C_11  and  O_13
REMARK    6  A    between atoms: O_13  and  C_14
REMARK    7  A    between atoms: C_24  and  N_56
REMARK    8  A    between atoms: C_26  and  C_27
REMARK    9  A    between atoms: C_26  and  N_56
REMARK                            x       y       z     vdW  Elec       q    Type
REMARK                         _______ _______ _______ _____ _____    ______ ____
ROOT
ATOM      1  C   UNL     1       7.951  -2.539  -3.932  0.00  0.00    +0.235 C 
ATOM      2  C   UNL     1       8.579  -1.239  -3.384  0.00  0.00    +0.207 C 
ATOM      3  O   UNL     1       7.748  -0.873  -2.262  0.00  0.00    -0.372 OA
ATOM      4  C   UNL     1       6.393  -1.136  -2.681  0.00  0.00    +0.139 C 
ATOM      5  C   UNL     1       6.478  -2.470  -3.477  0.00  0.00    +0.188 C 
ATOM      6  O   UNL     1       6.248  -3.499  -2.493  0.00  0.00    -0.372 OA
ATOM      7  C   UNL     1       5.206  -2.989  -1.634  0.00  0.00    +0.147 C 
ATOM      8  C   UNL     1       5.552  -1.497  -1.438  0.00  0.00    -0.013 C 
ENDROOT
BRANCH   8   9
ATOM      9  N   UNL     1       4.323  -0.683  -1.402  0.00  0.00    +0.387 N 
ATOM     10  H   UNL     1       3.601  -1.133  -1.978  0.00  0.00    -0.085 HD
ATOM     11  H   UNL     1       4.525   0.252  -1.775  0.00  0.00    -0.085 HD
BRANCH   9  12
ATOM     12  C   UNL     1       3.832  -0.558  -0.017  0.00  0.00    -0.046 C 
BRANCH  12  13
ATOM     13  C   UNL     1       2.577   0.278  -0.011  0.00  0.00    -0.064 A 
ATOM     14  C   UNL     1       1.343  -0.328  -0.152  0.00  0.00    +0.002 A 
ATOM     15  C   UNL     1       0.192   0.438  -0.147  0.00  0.00    +0.000 A 
ATOM     16  C   UNL     1       0.276   1.810   0.001  0.00  0.00    +0.000 A 
ATOM     17  C   UNL     1       1.511   2.416   0.144  0.00  0.00    +0.000 A 
ATOM     18  C   UNL     1       2.661   1.649   0.137  0.00  0.00    +0.002 A 
ENDBRANCH  12  13
ENDBRANCH   9  12
ENDBRANCH   8   9
BRANCH   1  19
ATOM     19  O   UNL     1       8.605  -3.703  -3.360  0.00  0.00    -0.442 OA
BRANCH  19  21
ATOM     20  N   UNL     1      10.250  -5.340  -3.601  0.00  0.00    -0.251 N 
ATOM     21  C   UNL     1       9.601  -4.257  -4.075  0.00  0.00    +0.405 C 
ATOM     22  O   UNL     1       9.916  -3.782  -5.148  0.00  0.00    -0.226 OA
ATOM     23  H   UNL     1      10.052  -5.673  -2.712  0.00  0.00    +0.158 HD
BRANCH  20  27
ATOM     24  C   UNL     1      13.105  -7.254  -5.955  0.00  0.00    -0.045 A 
ATOM     25  C   UNL     1      13.258  -7.213  -4.582  0.00  0.00    +0.006 A 
ATOM     26  C   UNL     1      12.313  -6.579  -3.799  0.00  0.00    +0.024 A 
ATOM     27  C   UNL     1      11.209  -5.983  -4.392  0.00  0.00    +0.036 A 
ATOM     28  C   UNL     1      11.055  -6.031  -5.771  0.00  0.00    +0.024 A 
ATOM     29  C   UNL     1      12.006  -6.661  -6.549  0.00  0.00    +0.006 A 
BRANCH  24  31
ATOM     30  C   UNL     1      13.477  -9.086  -7.585  0.00  0.00    +0.012 C 
ATOM     31  C   UNL     1      14.138  -7.946  -6.807  0.00  0.00    +0.013 C 
ATOM     32  C   UNL     1      14.744  -6.942  -7.790  0.00  0.00    +0.012 C 
ENDBRANCH  24  31
ENDBRANCH  20  27
ENDBRANCH  19  21
ENDBRANCH   1  19
TORSDOF 7
