REMARK  Name = ZINC10000707
REMARK  10 active torsions:
REMARK  status: ('A' for Active; 'I' for Inactive)
REMARK    1  A    between atoms: C_1  and  C_2
REMARK    2  A    between atoms: C_2  and  C_3
REMARK    3  A    between atoms: C_2  and  C_4
REMARK    4  A    between atoms: C_4  and  C_6
REMARK    5  A    between atoms: C_4  and  N_26
REMARK    6  A    between atoms: N_8  and  N_9
REMARK    7  A    between atoms: C_10  and  C_11
REMARK    8  A    between atoms: C_13  and  N_23
REMARK    9  A    between atoms: C_16  and  N_17
REMARK   10  A    between atoms: C_27  and  C_29
REMARK                            x       y       z     vdW  Elec       q    Type
REMARK                         _______ _______ _______ _____ _____    ______ ____
ROOT
ATOM      1  C   UNL     1      -4.780   0.771  -0.362  0.00  0.00    +0.253 C 
ATOM      2  O   UNL     1      -4.099   1.445   0.381  0.00  0.00    -0.272 OA
ATOM      3  N   UNL     1      -4.243   0.255  -1.486  0.00  0.00    -0.205 N 
ATOM      4  H   UNL     1      -4.788  -0.285  -2.080  0.00  0.00    +0.177 HD
ENDROOT
BRANCH   3   5
ATOM      5  N   UNL     1      -2.898   0.497  -1.795  0.00  0.00    -0.188 NA
ATOM      6  C   UNL     1      -2.381  -0.001  -2.877  0.00  0.00    +0.140 C 
BRANCH   6   7
ATOM      7  C   UNL     1      -0.967   0.254  -3.202  0.00  0.00    +0.018 A 
ATOM      8  C   UNL     1      -0.406  -0.279  -4.364  0.00  0.00    +0.044 A 
ATOM      9  C   UNL     1       0.918  -0.037  -4.663  0.00  0.00    +0.127 A 
ATOM     10  C   UNL     1       1.696   0.733  -3.815  0.00  0.00    +0.034 A 
ATOM     11  C   UNL     1       1.154   1.271  -2.664  0.00  0.00    +0.026 A 
ATOM     12  C   UNL     1      -0.175   1.034  -2.345  0.00  0.00    +0.039 A 
BRANCH  12  13
ATOM     13  N   UNL     1      -0.723   1.572  -1.182  0.00  0.00    -0.329 N 
ATOM     14  C   UNL     1      -0.013   1.086   0.008  0.00  0.00    +0.105 C 
ATOM     15  C   UNL     1      -0.729   1.579   1.267  0.00  0.00    +0.019 C 
ATOM     16  C   UNL     1      -0.764   3.110   1.262  0.00  0.00    +0.003 C 
ATOM     17  C   UNL     1      -1.466   3.591  -0.011  0.00  0.00    +0.019 C 
ATOM     18  C   UNL     1      -0.729   3.040  -1.234  0.00  0.00    +0.105 C 
ENDBRANCH  12  13
BRANCH   9  19
ATOM     19  N   UNL     1       1.511  -0.604  -5.895  0.00  0.00    +0.056 N 
ATOM     20  O   UNL     1       0.829  -1.281  -6.643  0.00  0.00    -0.126 OA
ATOM     21  O   UNL     1       2.680  -0.392  -6.162  0.00  0.00    -0.126 OA
ENDBRANCH   9  19
ENDBRANCH   6   7
ENDBRANCH   3   5
BRANCH   1  22
ATOM     22  C   UNL     1      -6.226   0.510  -0.030  0.00  0.00    +0.163 C 
BRANCH  22  23
ATOM     23  N   UNL     1      -6.565   1.175   1.231  0.00  0.00    -0.300 N 
ATOM     24  C   UNL     1      -7.581   0.711   1.986  0.00  0.00    +0.246 C 
ATOM     25  O   UNL     1      -8.217  -0.258   1.620  0.00  0.00    -0.270 OA
ATOM     26  H   UNL     1      -6.058   1.948   1.523  0.00  0.00    +0.150 HD
BRANCH  24  27
ATOM     27  C   UNL     1      -7.922   1.381   3.257  0.00  0.00    +0.055 A 
ATOM     28  C   UNL     1      -7.194   2.495   3.680  0.00  0.00    +0.016 A 
ATOM     29  C   UNL     1      -7.517   3.116   4.868  0.00  0.00    +0.021 A 
ATOM     30  C   UNL     1      -8.562   2.638   5.642  0.00  0.00    +0.042 A 
ATOM     31  C   UNL     1      -9.289   1.534   5.229  0.00  0.00    +0.040 A 
ATOM     32  C   UNL     1      -8.979   0.906   4.039  0.00  0.00    +0.054 A 
ATOM     33 CL   UNL     1      -9.895  -0.473   3.518  0.00  0.00    -0.083 Cl
ATOM     34 CL   UNL     1      -8.962   3.426   7.136  0.00  0.00    -0.083 Cl
ENDBRANCH  24  27
ENDBRANCH  22  23
BRANCH  22  36
ATOM     35  C   UNL     1      -8.582   0.794  -0.812  0.00  0.00    +0.009 C 
ATOM     36  C   UNL     1      -7.114   1.058  -1.149  0.00  0.00    +0.012 C 
ATOM     37  C   UNL     1      -6.886   2.565  -1.289  0.00  0.00    +0.009 C 
ENDBRANCH  22  36
ENDBRANCH   1  22
TORSDOF 8
