REMARK  Name = ZINC36954860
REMARK  7 active torsions:
REMARK  status: ('A' for Active; 'I' for Inactive)
REMARK    1  A    between atoms: C_1  and  C_2
REMARK    2  A    between atoms: C_2  and  C_4
REMARK    3  A    between atoms: C_2  and  N_14
REMARK    4  A    between atoms: C_7  and  S_10
REMARK    5  A    between atoms: S_10  and  N_13
REMARK    6  A    between atoms: N_14  and  C_15
REMARK    7  A    between atoms: C_15  and  C_16
REMARK                            x       y       z     vdW  Elec       q    Type
REMARK                         _______ _______ _______ _____ _____    ______ ____
ROOT
ATOM      1  C   UNL     1      -0.019   1.526   0.010  0.00  0.00    -0.009 C 
ATOM      2  C   UNL     1       0.002  -0.004   0.002  0.00  0.00    -0.044 C 
ENDROOT
BRANCH   2   3
ATOM      3  C   UNL     1       0.707  -0.490  -1.238  0.00  0.00    -0.062 A 
ATOM      4  C   UNL     1       2.089  -0.511  -1.284  0.00  0.00    +0.004 A 
ATOM      5  C   UNL     1       2.736  -0.957  -2.421  0.00  0.00    +0.029 A 
ATOM      6  C   UNL     1       2.002  -1.382  -3.512  0.00  0.00    +0.105 A 
ATOM      7  C   UNL     1       0.620  -1.362  -3.466  0.00  0.00    +0.029 A 
ATOM      8  C   UNL     1      -0.027  -0.920  -2.327  0.00  0.00    +0.004 A 
BRANCH   6   9
ATOM      9  S   UNL     1       2.826  -1.949  -4.962  0.00  0.00    +0.056 S 
ATOM     10  O   UNL     1       1.916  -1.778  -6.040  0.00  0.00    -0.153 OA
ATOM     11  O   UNL     1       4.117  -1.356  -4.954  0.00  0.00    -0.153 OA
BRANCH   9  12
ATOM     12  N   UNL     1       3.054  -3.580  -4.790  0.00  0.00    -0.204 NA
ATOM     13  H   UNL     1       3.075  -4.153  -5.573  0.00  0.00    +0.144 HD
ATOM     14  H   UNL     1       3.167  -3.963  -3.906  0.00  0.00    +0.144 HD
ENDBRANCH   9  12
ENDBRANCH   6   9
ENDBRANCH   2   3
BRANCH   2  15
ATOM     15  N   UNL     1       0.713  -0.491   1.192  0.00  0.00    +0.386 N 
ATOM     16  H   UNL     1       0.798  -1.495   1.145  0.00  0.00    -0.085 HD
ATOM     17  H   UNL     1       1.632  -0.076   1.228  0.00  0.00    -0.085 HD
BRANCH  15  18
ATOM     18  C   UNL     1      -0.040  -0.119   2.398  0.00  0.00    -0.039 C 
BRANCH  18  19
ATOM     19  C   UNL     1       0.689  -0.618   3.619  0.00  0.00    -0.026 A 
ATOM     20  C   UNL     1       1.630   0.008   4.366  0.00  0.00    +0.010 A 
ATOM     21  C   UNL     1       2.168  -0.650   5.456  0.00  0.00    +0.023 A 
ATOM     22  C   UNL     1       1.738  -1.903   5.745  0.00  0.00    +0.055 A 
ATOM     23  S   UNL     1       0.531  -2.185   4.460  0.00  0.00    -0.088 S 
ATOM     24 BR   UNL     1       2.271  -3.052   7.149  0.00  0.00    -0.043 Br
ENDBRANCH  18  19
ENDBRANCH  15  18
ENDBRANCH   2  15
TORSDOF 6
