REMARK  Name = ZINC20502157
REMARK  5 active torsions:
REMARK  status: ('A' for Active; 'I' for Inactive)
REMARK    1  A    between atoms: C_3  and  C_6
REMARK    2  A    between atoms: C_6  and  N_7
REMARK    3  A    between atoms: C_11  and  N_12
REMARK    4  A    between atoms: N_12  and  C_13
REMARK    5  A    between atoms: C_19  and  N_21
REMARK                            x       y       z     vdW  Elec       q    Type
REMARK                         _______ _______ _______ _____ _____    ______ ____
ROOT
ATOM      1  N   UNL     1       4.473   0.589   1.248  0.00  0.00    -0.214 N 
ATOM      2  C   UNL     1       4.504   1.749   1.936  0.00  0.00    +0.261 C 
ATOM      3  O   UNL     1       4.082   2.778   1.443  0.00  0.00    -0.269 OA
ATOM      4  C   UNL     1       5.064   1.736   3.299  0.00  0.00    +0.113 C 
ATOM      5  C   UNL     1       5.128   2.886   4.064  0.00  0.00    +0.086 C 
ATOM      6  C   UNL     1       5.551   0.443   3.812  0.00  0.00    +0.258 C 
ATOM      7  O   UNL     1       6.026   0.353   4.929  0.00  0.00    -0.270 OA
ATOM      8  N   UNL     1       5.456  -0.637   3.010  0.00  0.00    -0.235 N 
ATOM      9  C   UNL     1       4.930  -0.553   1.780  0.00  0.00    +0.316 C 
ATOM     10  O   UNL     1       4.869  -1.565   1.110  0.00  0.00    -0.252 OA
ATOM     11  H   UNL     1       5.773  -1.496   3.333  0.00  0.00    +0.159 HD
ENDROOT
BRANCH   5  12
ATOM     12  N   UNL     1       5.491   2.815   5.360  0.00  0.00    -0.348 N 
ATOM     13  H   UNL     1       5.629   1.950   5.778  0.00  0.00    +0.146 HD
BRANCH  12  14
ATOM     14  C   UNL     1       5.677   4.042   6.137  0.00  0.00    +0.055 C 
ATOM     15  C   UNL     1       4.328   4.503   6.692  0.00  0.00    +0.020 C 
ATOM     16  C   UNL     1       3.747   3.412   7.594  0.00  0.00    +0.002 C 
ATOM     17  C   UNL     1       4.709   3.141   8.752  0.00  0.00    -0.001 C 
ATOM     18  C   UNL     1       6.059   2.680   8.197  0.00  0.00    -0.014 C 
ATOM     19  C   UNL     1       6.639   3.772   7.295  0.00  0.00    -0.055 C 
BRANCH  19  20
ATOM     20  N   UNL     1       7.934   3.329   6.763  0.00  0.00    +0.381 N 
ATOM     21  H   UNL     1       8.317   4.049   6.168  0.00  0.00    -0.090 HD
ATOM     22  H   UNL     1       8.569   3.150   7.526  0.00  0.00    -0.090 HD
ATOM     23  H   UNL     1       7.806   2.483   6.227  0.00  0.00    -0.090 HD
ENDBRANCH  19  20
ENDBRANCH  12  14
ENDBRANCH   5  12
BRANCH   1  24
ATOM     24  C   UNL     1       3.921   0.576  -0.109  0.00  0.00    +0.192 C 
BRANCH  24  27
ATOM     25  C   UNL     1       0.241   0.532   0.081  0.00  0.00    +0.041 A 
ATOM     26  C   UNL     1       1.472   1.227   0.055  0.00  0.00    +0.046 A 
ATOM     27  C   UNL     1       2.441   0.300  -0.047  0.00  0.00    +0.123 A 
ATOM     28  O   UNL     1       1.866  -0.913  -0.084  0.00  0.00    -0.466 OA
ATOM     29  C   UNL     1       0.532  -0.778  -0.007  0.00  0.00    +0.195 A 
ENDBRANCH  24  27
ENDBRANCH   1  24
TORSDOF 5
