REMARK  Name = ZINC39780332
REMARK  3 active torsions:
REMARK  status: ('A' for Active; 'I' for Inactive)
REMARK    1  A    between atoms: C_7  and  C_10
REMARK    2  A    between atoms: C_16  and  C_18
REMARK    3  A    between atoms: C_18  and  N_19
REMARK                            x       y       z     vdW  Elec       q    Type
REMARK                         _______ _______ _______ _____ _____    ______ ____
ROOT
ATOM      1  C   UNL     1       0.673  -3.130  -0.021  0.00  0.00    -0.043 C 
ATOM      2  C   UNL     1      -0.624  -2.873   0.090  0.00  0.00    -0.004 C 
ATOM      3  C   UNL     1      -1.677  -3.945   0.123  0.00  0.00    +0.135 C 
ATOM      4  N   UNL     1      -1.068  -5.230  -0.249  0.00  0.00    -0.296 N 
ATOM      5  C   UNL     1       0.242  -5.555   0.340  0.00  0.00    +0.113 C 
ATOM      6  C   UNL     1       1.250  -4.509  -0.149  0.00  0.00    +0.054 C 
ATOM      7  C   UNL     1      -1.685  -6.078  -1.096  0.00  0.00    +0.233 C 
ATOM      8  O   UNL     1      -1.161  -7.133  -1.387  0.00  0.00    -0.274 OA
ENDROOT
BRANCH   1  15
ATOM      9  C   UNL     1       5.151  -2.873  -0.693  0.00  0.00    +0.001 A 
ATOM     10  C   UNL     1       5.657  -1.572  -0.610  0.00  0.00    +0.002 A 
ATOM     11  C   UNL     1       4.859  -0.508  -0.351  0.00  0.00    +0.026 A 
ATOM     12  C   UNL     1       3.465  -0.702  -0.156  0.00  0.00    +0.043 A 
ATOM     13  N   UNL     1       2.496   0.148   0.103  0.00  0.00    -0.380 N 
ATOM     14  C   UNL     1       1.229  -0.583   0.211  0.00  0.00    +0.149 C 
ATOM     15  C   UNL     1       1.565  -2.039  -0.024  0.00  0.00    -0.016 C 
ATOM     16  C   UNL     1       2.936  -2.076  -0.245  0.00  0.00    +0.003 A 
ATOM     17  C   UNL     1       3.832  -3.135  -0.518  0.00  0.00    +0.010 A 
ATOM     18  H   UNL     1       2.602   1.107   0.207  0.00  0.00    +0.160 HD
ENDBRANCH   1  15
BRANCH   7  19
ATOM     19  C   UNL     1      -3.025  -5.716  -1.681  0.00  0.00    +0.205 C 
BRANCH  19  20
ATOM     20  N   UNL     1      -3.480  -6.794  -2.564  0.00  0.00    -0.276 N 
ATOM     21  C   UNL     1      -3.117  -6.767  -3.982  0.00  0.00    +0.119 C 
ATOM     22  C   UNL     1      -2.868  -8.195  -4.473  0.00  0.00    +0.115 C 
ATOM     23  C   UNL     1      -3.988  -9.085  -3.997  0.00  0.00    +0.222 C 
ATOM     24  O   UNL     1      -4.367 -10.006  -4.689  0.00  0.00    -0.275 OA
ATOM     25  N   UNL     1      -4.566  -8.858  -2.803  0.00  0.00    -0.240 N 
ATOM     26  C   UNL     1      -4.219  -7.795  -2.059  0.00  0.00    +0.309 C 
ATOM     27  O   UNL     1      -4.585  -7.737  -0.902  0.00  0.00    -0.252 OA
ATOM     28  H   UNL     1      -5.242  -9.472  -2.474  0.00  0.00    +0.159 HD
ENDBRANCH  19  20
ENDBRANCH   7  19
TORSDOF 3
