REMARK  Name = ZINC64391937
REMARK  12 active torsions:
REMARK  status: ('A' for Active; 'I' for Inactive)
REMARK    1  A    between atoms: C_1  and  C_2
REMARK    2  A    between atoms: C_2  and  O_3
REMARK    3  A    between atoms: O_3  and  C_4
REMARK    4  A    between atoms: C_7  and  C_11
REMARK    5  A    between atoms: C_15  and  C_17
REMARK    6  A    between atoms: C_20  and  C_24
REMARK    7  A    between atoms: C_26  and  O_34
REMARK    8  A    between atoms: C_27  and  O_32
REMARK    9  A    between atoms: C_28  and  O_30
REMARK   10  A    between atoms: O_30  and  C_31
REMARK   11  A    between atoms: O_32  and  C_33
REMARK   12  A    between atoms: O_34  and  C_35
REMARK                            x       y       z     vdW  Elec       q    Type
REMARK                         _______ _______ _______ _____ _____    ______ ____
ROOT
ATOM      1  C   UNL     1      -3.990  -6.531   1.430  0.00  0.00    +0.225 C 
ATOM      2  N   UNL     1      -5.130  -7.456   1.622  0.00  0.00    -0.268 NA
ATOM      3  C   UNL     1      -6.172  -6.615   2.270  0.00  0.00    +0.180 C 
ATOM      4  N   UNL     1      -5.979  -5.302   1.599  0.00  0.00    -0.178 NA
ATOM      5  O   UNL     1      -4.517  -5.196   1.419  0.00  0.00    -0.278 OA
ATOM      6  H   UNL     1      -5.455  -7.817   0.738  0.00  0.00    +0.126 HD
ATOM      7  H   UNL     1      -6.457  -5.276   0.711  0.00  0.00    +0.156 HD
ENDROOT
BRANCH   3   8
ATOM      8  C   UNL     1      -7.549  -7.164   2.000  0.00  0.00    -0.007 A 
ATOM      9  C   UNL     1      -7.726  -8.523   1.821  0.00  0.00    +0.056 A 
ATOM     10  C   UNL     1      -8.992  -9.032   1.572  0.00  0.00    +0.166 A 
ATOM     11  C   UNL     1     -10.083  -8.174   1.502  0.00  0.00    +0.204 A 
ATOM     12  C   UNL     1      -9.900  -6.808   1.682  0.00  0.00    +0.166 A 
ATOM     13  C   UNL     1      -8.632  -6.307   1.936  0.00  0.00    +0.056 A 
BRANCH  12  14
ATOM     14  O   UNL     1     -10.964  -5.963   1.614  0.00  0.00    -0.491 OA
ATOM     15  C   UNL     1     -10.702  -4.572   1.809  0.00  0.00    +0.277 C 
ENDBRANCH  12  14
BRANCH  11  16
ATOM     16  O   UNL     1     -11.326  -8.669   1.256  0.00  0.00    -0.488 OA
ATOM     17  C   UNL     1     -12.110  -9.045   2.390  0.00  0.00    +0.277 C 
ENDBRANCH  11  16
BRANCH  10  18
ATOM     18  O   UNL     1      -9.165 -10.369   1.396  0.00  0.00    -0.491 OA
ATOM     19  C   UNL     1      -8.000 -11.191   1.481  0.00  0.00    +0.277 C 
ENDBRANCH  10  18
ENDBRANCH   3   8
BRANCH   1  24
ATOM     20  C   UNL     1      -2.076  -5.948  -0.077  0.00  0.00    +0.083 C 
ATOM     21  N   UNL     1      -1.059  -6.764  -0.150  0.00  0.00    -0.153 NA
ATOM     22  N   UNL     1      -1.446  -8.096  -0.050  0.00  0.00    -0.161 NA
ATOM     23  C   UNL     1      -2.725  -8.231   0.092  0.00  0.00    +0.121 C 
ATOM     24  C   UNL     1      -3.298  -6.828   0.098  0.00  0.00    +0.128 C 
BRANCH  20  28
ATOM     25  C   UNL     1      -1.980  -1.712  -0.271  0.00  0.00    +0.139 A 
ATOM     26  C   UNL     1      -3.152  -2.393  -0.578  0.00  0.00    +0.048 A 
ATOM     27  C   UNL     1      -3.188  -3.768  -0.516  0.00  0.00    +0.013 A 
ATOM     28  C   UNL     1      -2.042  -4.480  -0.144  0.00  0.00    +0.000 A 
ATOM     29  C   UNL     1      -0.864  -3.790   0.163  0.00  0.00    +0.033 A 
ATOM     30  C   UNL     1      -0.837  -2.414   0.094  0.00  0.00    +0.083 A 
ATOM     31 CL   UNL     1       0.625  -1.557   0.468  0.00  0.00    -0.080 Cl
BRANCH  25  32
ATOM     32  O   UNL     1      -1.950  -0.356  -0.334  0.00  0.00    -0.491 OA
BRANCH  32  34
ATOM     33  C   UNL     1      -2.933   1.817  -0.729  0.00  0.00    +0.048 C 
ATOM     34  C   UNL     1      -3.159   0.303  -0.715  0.00  0.00    +0.226 C 
ENDBRANCH  32  34
ENDBRANCH  25  32
ENDBRANCH  20  28
ENDBRANCH   1  24
TORSDOF 8
