REMARK  Name = ZINC04990117
REMARK  4 active torsions:
REMARK  status: ('A' for Active; 'I' for Inactive)
REMARK    1  A    between atoms: C_1  and  C_2
REMARK    2  A    between atoms: C_7  and  C_22
REMARK    3  A    between atoms: C_10  and  C_12
REMARK    4  A    between atoms: C_18  and  C_20
REMARK                            x       y       z     vdW  Elec       q    Type
REMARK                         _______ _______ _______ _____ _____    ______ ____
ROOT
ATOM      1  C   UNL     1      -2.726  -2.038   1.320  0.00  0.00    +0.028 C 
ATOM      2  C   UNL     1      -1.452  -1.851   0.493  0.00  0.00    +0.073 C 
ATOM      3  C   UNL     1      -0.230  -2.208   1.344  0.00  0.00    +0.022 C 
ATOM      4  C   UNL     1       1.044  -1.891   0.559  0.00  0.00    +0.004 C 
ATOM      5  C   UNL     1       1.094  -0.394   0.246  0.00  0.00    +0.022 C 
ATOM      6  C   UNL     1      -0.113  -0.016  -0.618  0.00  0.00    +0.073 C 
ATOM      7  N   UNL     1      -1.339  -0.450   0.067  0.00  0.00    -0.296 N 
ATOM      8  C   UNL     1      -2.340   0.422   0.300  0.00  0.00    +0.220 C 
ATOM      9  O   UNL     1      -2.105   1.610   0.370  0.00  0.00    -0.275 OA
ATOM     10  C   UNL     1      -0.146   1.500  -0.818  0.00  0.00    +0.028 C 
ENDROOT
BRANCH   8  11
ATOM     11  C   UNL     1      -3.750  -0.079   0.474  0.00  0.00    +0.089 C 
ATOM     12  C   UNL     1      -4.137  -0.942  -0.728  0.00  0.00    +0.013 C 
ATOM     13  C   UNL     1      -4.047  -0.106  -2.006  0.00  0.00    +0.001 C 
ATOM     14  C   UNL     1      -5.003   1.085  -1.905  0.00  0.00    +0.001 C 
ATOM     15  C   UNL     1      -4.616   1.948  -0.702  0.00  0.00    +0.015 C 
ATOM     16  C   UNL     1      -4.706   1.112   0.576  0.00  0.00    +0.114 C 
BRANCH  16  17
ATOM     17  C   UNL     1      -4.325   1.962   1.761  0.00  0.00    +0.360 C 
ATOM     18  O   UNL     1      -3.385   1.648   2.453  0.00  0.00    -0.246 OA
ATOM     19  O   UNL     1      -5.029   3.068   2.047  0.00  0.00    -0.246 OA
ENDBRANCH  16  17
ENDBRANCH   8  11
TORSDOF 2
