REMARK  Name = ZINC35711302
REMARK  13 active torsions:
REMARK  status: ('A' for Active; 'I' for Inactive)
REMARK    1  A    between atoms: C_1  and  C_2
REMARK    2  A    between atoms: C_2  and  C_3
REMARK    3  A    between atoms: C_3  and  C_4
REMARK    4  A    between atoms: C_4  and  N_5
REMARK    5  A    between atoms: C_6  and  C_37
REMARK    6  A    between atoms: C_7  and  C_33
REMARK    7  A    between atoms: C_8  and  C_13
REMARK    8  A    between atoms: C_17  and  N_19
REMARK    9  A    between atoms: C_20  and  C_22
REMARK   10  A    between atoms: C_23  and  C_24
REMARK   11  A    between atoms: C_27  and  N_30
REMARK   12  A    between atoms: C_33  and  O_35
REMARK   13  A    between atoms: O_35  and  C_36
REMARK                            x       y       z     vdW  Elec       q    Type
REMARK                         _______ _______ _______ _____ _____    ______ ____
ROOT
ATOM      1  C   UNL     1       2.920  -4.705  -4.918  0.00  0.00    -0.021 A 
ATOM      2  C   UNL     1       2.862  -5.663  -3.922  0.00  0.00    +0.006 A 
ATOM      3  C   UNL     1       3.059  -6.997  -4.230  0.00  0.00    +0.002 A 
ATOM      4  C   UNL     1       3.315  -7.376  -5.533  0.00  0.00    +0.023 A 
ATOM      5  C   UNL     1       3.374  -6.416  -6.535  0.00  0.00    +0.034 A 
ATOM      6  C   UNL     1       3.170  -5.078  -6.224  0.00  0.00    +0.029 A 
ENDROOT
BRANCH   1  10
ATOM      7  N   UNL     1       1.592  -2.274  -2.242  0.00  0.00    -0.259 N 
ATOM      8  C   UNL     1       0.746  -2.539  -3.281  0.00  0.00    +0.024 C 
ATOM      9  C   UNL     1       1.212  -3.019  -4.455  0.00  0.00    +0.078 C 
ATOM     10  C   UNL     1       2.704  -3.253  -4.578  0.00  0.00    +0.144 C 
ATOM     11  N   UNL     1       3.529  -2.935  -3.401  0.00  0.00    -0.288 N 
ATOM     12  C   UNL     1       2.917  -2.457  -2.299  0.00  0.00    +0.307 C 
ATOM     13  O   UNL     1       3.590  -2.189  -1.323  0.00  0.00    -0.252 OA
ATOM     14  C   UNL     1      -0.731  -2.292  -3.116  0.00  0.00    +0.061 C 
ATOM     15  H   UNL     1       4.490  -3.064  -3.418  0.00  0.00    +0.151 HD
BRANCH   9  16
ATOM     16  C   UNL     1       0.337  -3.294  -5.531  0.00  0.00    +0.339 C 
ATOM     17  O   UNL     1      -0.858  -3.099  -5.409  0.00  0.00    -0.245 OA
BRANCH  16  18
ATOM     18  O   UNL     1       0.827  -3.773  -6.694  0.00  0.00    -0.465 OA
ATOM     19  C   UNL     1      -0.114  -4.029  -7.738  0.00  0.00    +0.280 C 
ENDBRANCH  16  18
ENDBRANCH   9  16
BRANCH   7  20
ATOM     20  C   UNL     1       1.018  -1.755  -0.999  0.00  0.00    +0.115 C 
BRANCH  20  21
ATOM     21  C   UNL     1       0.516  -2.920  -0.143  0.00  0.00    +0.019 C 
BRANCH  21  23
ATOM     22  C   UNL     1      -0.586  -3.543   2.011  0.00  0.00    +0.004 C 
ATOM     23  C   UNL     1      -0.084  -2.378   1.156  0.00  0.00    -0.002 C 
ENDBRANCH  21  23
ENDBRANCH  20  21
ENDBRANCH   7  20
ENDBRANCH   1  10
BRANCH   5  24
ATOM     24  N   UNL     1       3.633  -6.797  -7.855  0.00  0.00    -0.282 N 
ATOM     25  C   UNL     1       3.154  -7.965  -8.326  0.00  0.00    +0.241 C 
ATOM     26  O   UNL     1       2.563  -8.725  -7.581  0.00  0.00    -0.270 OA
ATOM     27  H   UNL     1       4.157  -6.220  -8.432  0.00  0.00    +0.155 HD
BRANCH  25  28
ATOM     28  C   UNL     1       3.343  -8.320  -9.734  0.00  0.00    +0.068 C 
ATOM     29  C   UNL     1       2.864  -9.489 -10.205  0.00  0.00    +0.013 C 
BRANCH  29  30
ATOM     30  C   UNL     1       3.054  -9.846 -11.620  0.00  0.00    -0.025 A 
ATOM     31  C   UNL     1       3.737  -8.978 -12.478  0.00  0.00    +0.010 A 
ATOM     32  C   UNL     1       3.912  -9.319 -13.802  0.00  0.00    +0.033 A 
ATOM     33  C   UNL     1       3.414 -10.518 -14.283  0.00  0.00    +0.126 A 
ATOM     34  C   UNL     1       2.736 -11.382 -13.441  0.00  0.00    +0.033 A 
ATOM     35  C   UNL     1       2.558 -11.057 -12.112  0.00  0.00    +0.010 A 
BRANCH  33  36
ATOM     36  N   UNL     1       3.606 -10.877 -15.706  0.00  0.00    +0.056 N 
ATOM     37  O   UNL     1       4.196 -10.124 -16.445  0.00  0.00    -0.126 OA
ATOM     38  O   UNL     1       3.172 -11.922 -16.130  0.00  0.00    -0.126 OA
ENDBRANCH  33  36
ENDBRANCH  29  30
ENDBRANCH  25  28
ENDBRANCH   5  24
TORSDOF 10
