REMARK  Name = ZINC41583806
REMARK  9 active torsions:
REMARK  status: ('A' for Active; 'I' for Inactive)
REMARK    1  A    between atoms: C_1  and  C_2
REMARK    2  A    between atoms: C_5  and  C_32
REMARK    3  A    between atoms: N_8  and  C_10
REMARK    4  A    between atoms: C_10  and  C_11
REMARK    5  A    between atoms: C_12  and  O_31
REMARK    6  A    between atoms: C_19  and  C_20
REMARK    7  A    between atoms: C_23  and  N_26
REMARK    8  A    between atoms: N_26  and  C_27
REMARK    9  A    between atoms: N_26  and  C_28
REMARK                            x       y       z     vdW  Elec       q    Type
REMARK                         _______ _______ _______ _____ _____    ______ ____
ROOT
ATOM      1  C   UNL     1       2.156   0.248   3.584  0.00  0.00    +0.020 A 
ATOM      2  C   UNL     1       3.263  -0.478   3.179  0.00  0.00    +0.122 A 
ATOM      3  C   UNL     1       4.548  -0.052   3.503  0.00  0.00    +0.046 A 
ATOM      4  C   UNL     1       4.729   1.092   4.228  0.00  0.00    +0.019 A 
ATOM      5  C   UNL     1       3.623   1.834   4.643  0.00  0.00    +0.068 A 
ATOM      6  C   UNL     1       2.322   1.417   4.317  0.00  0.00    +0.144 A 
ATOM      7  O   UNL     1       1.424   2.292   4.819  0.00  0.00    -0.451 OA
ATOM      8  C   UNL     1       2.027   3.309   5.479  0.00  0.00    +0.176 C 
ATOM      9  C   UNL     1       1.404   4.348   6.094  0.00  0.00    +0.058 C 
ATOM     10  C   UNL     1       3.477   3.080   5.417  0.00  0.00    +0.231 C 
ATOM     11  O   UNL     1       4.362   3.772   5.891  0.00  0.00    -0.283 OA
ENDROOT
BRANCH   9  12
ATOM     12  C   UNL     1       2.192   5.467   6.622  0.00  0.00    -0.021 A 
ATOM     13  C   UNL     1       3.284   5.962   5.896  0.00  0.00    +0.010 A 
ATOM     14  C   UNL     1       4.014   7.005   6.391  0.00  0.00    +0.023 A 
ATOM     15  C   UNL     1       3.675   7.576   7.615  0.00  0.00    +0.029 A 
ATOM     16  C   UNL     1       2.591   7.087   8.340  0.00  0.00    +0.023 A 
ATOM     17  C   UNL     1       1.851   6.049   7.850  0.00  0.00    +0.010 A 
BRANCH  15  18
ATOM     18  N   UNL     1       4.422   8.638   8.115  0.00  0.00    -0.336 N 
ATOM     19  C   UNL     1       5.563   9.153   7.355  0.00  0.00    +0.129 C 
ATOM     20  C   UNL     1       4.067   9.240   9.403  0.00  0.00    +0.129 C 
ENDBRANCH  15  18
ENDBRANCH   9  12
BRANCH   2  21
ATOM     21  O   UNL     1       3.094  -1.616   2.458  0.00  0.00    -0.506 OA
ATOM     22  H   UNL     1       3.079  -1.478   1.501  0.00  0.00    +0.292 HD
ENDBRANCH   2  21
BRANCH   1  23
ATOM     23  C   UNL     1       0.771  -0.225   3.225  0.00  0.00    -0.036 C 
BRANCH  23  29
ATOM     24  C   UNL     1       1.081   2.008  -0.342  0.00  0.00    +0.005 C 
ATOM     25  C   UNL     1       0.903   0.493  -0.456  0.00  0.00    -0.031 C 
ATOM     26  C   UNL     1      -0.553   0.174  -0.805  0.00  0.00    +0.003 C 
ATOM     27  C   UNL     1      -1.458   0.651   0.335  0.00  0.00    -0.031 C 
ATOM     28  C   UNL     1      -1.016  -0.013   1.641  0.00  0.00    -0.075 C 
ATOM     29  N   UNL     1       0.376   0.351   1.933  0.00  0.00    +0.383 N 
ATOM     30  C   UNL     1       1.259  -0.166   0.879  0.00  0.00    -0.075 C 
ATOM     31  C   UNL     1      -2.908   0.269   0.032  0.00  0.00    +0.005 C 
ATOM     32  H   UNL     1       0.458   1.356   1.976  0.00  0.00    -0.081 HD
ENDBRANCH  23  29
ENDBRANCH   1  23
TORSDOF 5
