REMARK  Name = ZINC26600036
REMARK  5 active torsions:
REMARK  status: ('A' for Active; 'I' for Inactive)
REMARK    1  A    between atoms: C_1  and  O_2
REMARK    2  A    between atoms: O_2  and  C_3
REMARK    3  A    between atoms: C_8  and  C_9
REMARK    4  A    between atoms: N_19  and  C_22
REMARK    5  A    between atoms: C_22  and  C_23
REMARK                            x       y       z     vdW  Elec       q    Type
REMARK                         _______ _______ _______ _____ _____    ______ ____
ROOT
ATOM      1  C   UNL     1      -0.241  -3.020  -0.334  0.00  0.00    +0.090 C 
ATOM      2  C   UNL     1       0.441  -3.218  -1.657  0.00  0.00    +0.071 C 
ATOM      3  C   UNL     1       1.909  -3.410  -1.515  0.00  0.00    +0.027 C 
ATOM      4  C   UNL     1       2.680  -2.810  -2.495  0.00  0.00    +0.116 C 
ATOM      5  C   UNL     1       2.100  -2.400  -3.786  0.00  0.00    +0.258 C 
ATOM      6  O   UNL     1       0.920  -2.579  -4.026  0.00  0.00    -0.270 OA
ATOM      7  N   UNL     1       2.911  -1.820  -4.694  0.00  0.00    -0.235 N 
ATOM      8  C   UNL     1       4.212  -1.616  -4.442  0.00  0.00    +0.316 C 
ATOM      9  O   UNL     1       4.889  -1.088  -5.303  0.00  0.00    -0.252 OA
ATOM     10  N   UNL     1       4.805  -1.962  -3.292  0.00  0.00    -0.217 N 
ATOM     11  C   UNL     1       4.115  -2.547  -2.291  0.00  0.00    +0.261 C 
ATOM     12  O   UNL     1       4.664  -2.853  -1.249  0.00  0.00    -0.269 OA
ATOM     13  N   UNL     1       2.568  -4.052  -0.615  0.00  0.00    -0.316 N 
ATOM     14  C   UNL     1       2.418  -4.620   0.620  0.00  0.00    +0.045 A 
ATOM     15  C   UNL     1       3.624  -4.975   1.250  0.00  0.00    +0.024 A 
ATOM     16  C   UNL     1       3.647  -5.557   2.494  0.00  0.00    +0.002 A 
ATOM     17  C   UNL     1       2.457  -5.806   3.155  0.00  0.00    +0.001 A 
ATOM     18  C   UNL     1       1.268  -5.467   2.554  0.00  0.00    +0.016 A 
ATOM     19  C   UNL     1       1.227  -4.875   1.283  0.00  0.00    +0.030 A 
ATOM     20  S   UNL     1      -0.359  -4.510   0.645  0.00  0.00    -0.115 S 
ATOM     21  H   UNL     1       2.545  -1.544  -5.549  0.00  0.00    +0.159 HD
ATOM     22  H   UNL     1       3.483  -4.174  -0.914  0.00  0.00    +0.152 HD
ENDROOT
BRANCH   1  28
ATOM     23  C   UNL     1      -1.835  -1.142  -0.798  0.00  0.00    +0.124 A 
ATOM     24  C   UNL     1      -3.117  -0.664  -1.033  0.00  0.00    +0.046 A 
ATOM     25  C   UNL     1      -4.187  -1.537  -1.046  0.00  0.00    +0.004 A 
ATOM     26  C   UNL     1      -3.982  -2.887  -0.825  0.00  0.00    +0.001 A 
ATOM     27  C   UNL     1      -2.706  -3.365  -0.591  0.00  0.00    +0.008 A 
ATOM     28  C   UNL     1      -1.632  -2.497  -0.583  0.00  0.00    +0.008 A 
BRANCH  23  30
ATOM     29  C   UNL     1      -1.065   1.097  -1.015  0.00  0.00    +0.277 C 
ATOM     30  O   UNL     1      -0.781  -0.284  -0.786  0.00  0.00    -0.495 OA
ENDBRANCH  23  30
ENDBRANCH   1  28
BRANCH  10  31
ATOM     31  C   UNL     1       6.235  -1.696  -3.115  0.00  0.00    +0.153 C 
BRANCH  31  32
ATOM     32  C   UNL     1       6.420  -0.327  -2.512  0.00  0.00    -0.030 A 
ATOM     33  C   UNL     1       6.545   0.778  -3.332  0.00  0.00    +0.005 A 
ATOM     34  C   UNL     1       6.715   2.034  -2.780  0.00  0.00    +0.000 A 
ATOM     35  C   UNL     1       6.758   2.184  -1.406  0.00  0.00    +0.000 A 
ATOM     36  C   UNL     1       6.632   1.079  -0.586  0.00  0.00    +0.000 A 
ATOM     37  C   UNL     1       6.458  -0.176  -1.138  0.00  0.00    +0.005 A 
ENDBRANCH  31  32
ENDBRANCH  10  31
TORSDOF 4
