REMARK  Name = ZINC00713624
REMARK  8 active torsions:
REMARK  status: ('A' for Active; 'I' for Inactive)
REMARK    1  A    between atoms: C_1  and  C_2
REMARK    2  A    between atoms: C_4  and  C_27
REMARK    3  A    between atoms: C_6  and  S_8
REMARK    4  A    between atoms: S_8  and  C_9
REMARK    5  A    between atoms: C_9  and  C_11
REMARK    6  A    between atoms: C_9  and  C_12
REMARK    7  A    between atoms: N_14  and  N_15
REMARK    8  A    between atoms: C_16  and  C_17
REMARK                            x       y       z     vdW  Elec       q    Type
REMARK                         _______ _______ _______ _____ _____    ______ ____
ROOT
ATOM      1  C   UNL     1       1.984   3.581  -0.121  0.00  0.00    +0.245 C 
ATOM      2  O   UNL     1       1.131   4.357   0.256  0.00  0.00    -0.273 OA
ATOM      3  N   UNL     1       3.135   4.047  -0.646  0.00  0.00    -0.206 N 
ATOM      4  H   UNL     1       3.816   3.426  -0.948  0.00  0.00    +0.177 HD
ENDROOT
BRANCH   1   5
ATOM      5  C   UNL     1       1.756   2.096  -0.004  0.00  0.00    +0.139 C 
ATOM      6  C   UNL     1       2.384   1.586   1.295  0.00  0.00    +0.029 C 
BRANCH   5   7
ATOM      7  S   UNL     1      -0.022   1.758   0.012  0.00  0.00    -0.074 S 
BRANCH   7  13
ATOM      8  C   UNL     1       2.550  -2.667  -0.037  0.00  0.00    +0.066 C 
ATOM      9  C   UNL     1       1.220  -1.957  -0.020  0.00  0.00    +0.043 A 
ATOM     10  C   UNL     1       0.038  -2.681  -0.013  0.00  0.00    +0.046 A 
ATOM     11  C   UNL     1      -1.163  -1.989   0.003  0.00  0.00    +0.043 A 
ATOM     12  N   UNL     1      -1.146  -0.667   0.009  0.00  0.00    -0.227 NA
ATOM     13  C   UNL     1       0.002  -0.004   0.002  0.00  0.00    +0.189 A 
ATOM     14  N   UNL     1       1.167  -0.635  -0.018  0.00  0.00    -0.227 NA
ATOM     15  C   UNL     1      -2.472  -2.735   0.011  0.00  0.00    +0.066 C 
ENDBRANCH   7  13
ENDBRANCH   5   7
ENDBRANCH   1   5
BRANCH   3  16
ATOM     16  N   UNL     1       3.346   5.428  -0.756  0.00  0.00    -0.188 NA
ATOM     17  C   UNL     1       4.455   5.876  -1.261  0.00  0.00    +0.139 C 
BRANCH  17  18
ATOM     18  C   UNL     1       4.677   7.329  -1.376  0.00  0.00    +0.012 A 
ATOM     19  C   UNL     1       5.872   7.814  -1.915  0.00  0.00    +0.060 A 
ATOM     20  C   UNL     1       6.074   9.176  -2.026  0.00  0.00    +0.167 A 
ATOM     21  C   UNL     1       5.091  10.066  -1.591  0.00  0.00    +0.167 A 
ATOM     22  C   UNL     1       3.908   9.584  -1.052  0.00  0.00    +0.065 A 
ATOM     23  C   UNL     1       3.696   8.225  -0.943  0.00  0.00    +0.030 A 
ATOM     24 BR   UNL     1       2.081   7.575  -0.205  0.00  0.00    -0.050 Br
ATOM     25  O   UNL     1       5.533  11.340  -1.804  0.00  0.00    -0.453 OA
ATOM     26  C   UNL     1       6.616  11.220  -2.745  0.00  0.00    +0.466 C 
ATOM     27  O   UNL     1       7.129   9.896  -2.510  0.00  0.00    -0.453 OA
ENDBRANCH  17  18
ENDBRANCH   3  16
TORSDOF 5
