REMARK  Name = ZINC27667079
REMARK  10 active torsions:
REMARK  status: ('A' for Active; 'I' for Inactive)
REMARK    1  A    between atoms: C_1  and  O_2
REMARK    2  A    between atoms: O_2  and  C_3
REMARK    3  A    between atoms: C_6  and  C_9
REMARK    4  A    between atoms: C_9  and  C_11
REMARK    5  A    between atoms: C_9  and  N_27
REMARK    6  A    between atoms: C_11  and  N_12
REMARK    7  A    between atoms: C_13  and  C_15
REMARK    8  A    between atoms: C_15  and  C_16
REMARK    9  A    between atoms: C_16  and  N_17
REMARK   10  A    between atoms: C_18  and  C_20
REMARK                            x       y       z     vdW  Elec       q    Type
REMARK                         _______ _______ _______ _____ _____    ______ ____
ROOT
ATOM      1  C   UNL     1       7.416   1.323   0.024  0.00  0.00    +0.093 C 
ENDROOT
BRANCH   1   2
ATOM      2  N   UNL     1       7.449   0.536  -1.211  0.00  0.00    -0.316 N 
ATOM      3  C   UNL     1       6.620  -0.517  -1.362  0.00  0.00    +0.214 C 
ATOM      4  O   UNL     1       5.847  -0.812  -0.475  0.00  0.00    -0.276 OA
ATOM      5  H   UNL     1       8.149   0.803  -2.016  0.00  0.00    +0.149 HD
BRANCH   3   6
ATOM      6  C   UNL     1       6.654  -1.326  -2.633  0.00  0.00    +0.114 C 
BRANCH   6   7
ATOM      7  C   UNL     1       5.623  -2.453  -2.547  0.00  0.00    +0.113 C 
BRANCH   7   8
ATOM      8  N   UNL     1       5.655  -3.240  -3.782  0.00  0.00    -0.311 N 
ATOM      9  C   UNL     1       4.827  -4.293  -3.933  0.00  0.00    +0.244 C 
ATOM     10  O   UNL     1       4.052  -4.588  -3.044  0.00  0.00    -0.270 OA
ATOM     11  H   UNL     1       6.356  -2.973  -4.587  0.00  0.00    +0.149 HD
BRANCH   9  12
ATOM     12  C   UNL     1       4.864  -5.090  -5.177  0.00  0.00    +0.037 A 
ATOM     13  C   UNL     1       5.749  -4.749  -6.202  0.00  0.00    +0.014 A 
ATOM     14  C   UNL     1       5.783  -5.501  -7.357  0.00  0.00    +0.021 A 
ATOM     15  C   UNL     1       4.934  -6.585  -7.507  0.00  0.00    +0.041 A 
ATOM     16  C   UNL     1       4.051  -6.925  -6.496  0.00  0.00    +0.021 A 
ATOM     17  C   UNL     1       4.011  -6.184  -5.333  0.00  0.00    +0.014 A 
ATOM     18 CL   UNL     1       4.979  -7.522  -8.968  0.00  0.00    -0.084 Cl
ENDBRANCH   9  12
ENDBRANCH   7   8
ENDBRANCH   6   7
ENDBRANCH   3   6
ENDBRANCH   1   2
BRANCH   1  19
ATOM     19  C   UNL     1       8.540   2.360  -0.002  0.00  0.00    -0.020 C 
BRANCH  19  20
ATOM     20  N   UNL     1       8.462   3.197   1.202  0.00  0.00    +0.385 N 
ATOM     21  C   UNL     1       7.152   3.853   1.304  0.00  0.00    -0.078 C 
ATOM     22  C   UNL     1       7.055   4.597   2.638  0.00  0.00    -0.019 C 
ATOM     23  C   UNL     1       8.175   5.637   2.720  0.00  0.00    -0.004 C 
ATOM     24  C   UNL     1       9.526   4.934   2.563  0.00  0.00    -0.019 C 
ATOM     25  C   UNL     1       9.552   4.180   1.231  0.00  0.00    -0.078 C 
ATOM     26  H   UNL     1       8.578   2.542   2.079  0.00  0.00    -0.081 HD
ENDBRANCH  19  20
BRANCH  19  30
ATOM     27  C   UNL     1      12.317   0.364  -0.108  0.00  0.00    +0.120 A 
ATOM     28  C   UNL     1      11.770   0.877  -1.275  0.00  0.00    +0.046 A 
ATOM     29  C   UNL     1      10.548   1.522  -1.238  0.00  0.00    +0.005 A 
ATOM     30  C   UNL     1       9.872   1.656  -0.040  0.00  0.00    -0.059 A 
ATOM     31  C   UNL     1      10.419   1.151   1.125  0.00  0.00    +0.005 A 
ATOM     32  C   UNL     1      11.637   0.500   1.093  0.00  0.00    +0.046 A 
BRANCH  27  34
ATOM     33  C   UNL     1      14.022  -0.773   1.097  0.00  0.00    +0.277 C 
ATOM     34  O   UNL     1      13.519  -0.270  -0.142  0.00  0.00    -0.495 OA
ENDBRANCH  27  34
ENDBRANCH  19  30
ENDBRANCH   1  19
TORSDOF 9
