REMARK  Name = ZINC10129660
REMARK  11 active torsions:
REMARK  status: ('A' for Active; 'I' for Inactive)
REMARK    1  A    between atoms: C_1  and  C_2
REMARK    2  A    between atoms: C_4  and  C_35
REMARK    3  A    between atoms: C_6  and  N_8
REMARK    4  A    between atoms: C_9  and  C_11
REMARK    5  A    between atoms: N_13  and  C_14
REMARK    6  A    between atoms: C_14  and  C_15
REMARK    7  A    between atoms: C_15  and  C_17
REMARK    8  A    between atoms: C_15  and  N_69
REMARK    9  A    between atoms: C_20  and  N_23
REMARK   10  A    between atoms: N_23  and  C_24
REMARK   11  A    between atoms: N_23  and  C_25
REMARK                            x       y       z     vdW  Elec       q    Type
REMARK                         _______ _______ _______ _____ _____    ______ ____
ROOT
ATOM      1  C   UNL     1      -1.453   1.448  -1.922  0.00  0.00    -0.020 C 
ENDROOT
BRANCH   1  11
ATOM      2  C   UNL     1      -3.089  -0.336  -1.818  0.00  0.00    -0.073 C 
ATOM      3  C   UNL     1      -4.600  -0.572  -1.802  0.00  0.00    +0.017 C 
ATOM      4  C   UNL     1      -5.207  -0.102  -3.099  0.00  0.00    -0.048 A 
ATOM      5  C   UNL     1      -6.481  -0.540  -3.430  0.00  0.00    +0.004 A 
ATOM      6  C   UNL     1      -7.075  -0.131  -4.607  0.00  0.00    +0.000 A 
ATOM      7  C   UNL     1      -6.397   0.720  -5.460  0.00  0.00    +0.000 A 
ATOM      8  C   UNL     1      -5.130   1.156  -5.132  0.00  0.00    +0.002 A 
ATOM      9  C   UNL     1      -4.530   0.744  -3.951  0.00  0.00    -0.061 A 
ATOM     10  C   UNL     1      -3.142   1.240  -3.641  0.00  0.00    -0.042 C 
ATOM     11  N   UNL     1      -2.855   1.069  -2.207  0.00  0.00    +0.388 N 
ATOM     12  H   UNL     1      -3.482   1.675  -1.665  0.00  0.00    -0.080 HD
ENDBRANCH   1  11
BRANCH   1  13
ATOM     13  C   UNL     1      -0.584   1.169  -3.121  0.00  0.00    -0.059 A 
ATOM     14  C   UNL     1      -0.546  -0.102  -3.665  0.00  0.00    +0.004 A 
ATOM     15  C   UNL     1       0.245  -0.359  -4.768  0.00  0.00    +0.023 A 
ATOM     16  C   UNL     1       1.010   0.657  -5.324  0.00  0.00    +0.029 A 
ATOM     17  C   UNL     1       0.974   1.932  -4.772  0.00  0.00    +0.023 A 
ATOM     18  C   UNL     1       0.177   2.184  -3.672  0.00  0.00    +0.004 A 
BRANCH  16  19
ATOM     19  N   UNL     1       1.816   0.399  -6.435  0.00  0.00    -0.336 N 
ATOM     20  C   UNL     1       2.623   1.472  -7.020  0.00  0.00    +0.129 C 
ATOM     21  C   UNL     1       1.853  -0.945  -7.016  0.00  0.00    +0.129 C 
ENDBRANCH  16  19
ENDBRANCH   1  13
BRANCH   1  22
ATOM     22  C   UNL     1      -0.941   0.645  -0.724  0.00  0.00    +0.094 C 
BRANCH  22  25
ATOM     23  C   UNL     1      -1.561   0.274   1.603  0.00  0.00    +0.299 C 
ATOM     24  O   UNL     1      -0.530  -0.350   1.748  0.00  0.00    -0.265 OA
ATOM     25  N   UNL     1      -1.860   0.812   0.405  0.00  0.00    -0.309 N 
ATOM     26  H   UNL     1      -2.684   1.311   0.289  0.00  0.00    +0.149 HD
BRANCH  23  28
ATOM     27  N   UNL     1      -2.198  -0.094   3.952  0.00  0.00    -0.278 N 
ATOM     28  C   UNL     1      -2.497   0.445   2.754  0.00  0.00    +0.303 C 
ATOM     29  O   UNL     1      -3.529   1.068   2.609  0.00  0.00    -0.265 OA
ATOM     30  H   UNL     1      -1.350  -0.547   4.082  0.00  0.00    +0.155 HD
BRANCH  27  36
ATOM     31  C   UNL     1      -4.271  -2.079   7.942  0.00  0.00    +0.044 C 
ATOM     32  C   UNL     1      -4.134  -0.947   6.957  0.00  0.00    -0.048 A 
ATOM     33  C   UNL     1      -4.912   0.189   7.098  0.00  0.00    +0.006 A 
ATOM     34  C   UNL     1      -4.789   1.230   6.197  0.00  0.00    -0.048 A 
ATOM     35  C   UNL     1      -3.890   1.140   5.153  0.00  0.00    +0.026 A 
ATOM     36  C   UNL     1      -3.108   0.001   5.008  0.00  0.00    +0.034 A 
ATOM     37  C   UNL     1      -3.237  -1.046   5.912  0.00  0.00    +0.026 A 
ATOM     38  C   UNL     1      -5.638   2.466   6.355  0.00  0.00    +0.044 C 
ENDBRANCH  27  36
ENDBRANCH  23  28
ENDBRANCH  22  25
ENDBRANCH   1  22
TORSDOF 7
