REMARK  Name = ZINC65298041
REMARK  6 active torsions:
REMARK  status: ('A' for Active; 'I' for Inactive)
REMARK    1  A    between atoms: C_1  and  C_2
REMARK    2  A    between atoms: C_2  and  O_3
REMARK    3  A    between atoms: O_3  and  C_4
REMARK    4  A    between atoms: C_13  and  C_27
REMARK    5  A    between atoms: C_16  and  C_18
REMARK    6  A    between atoms: C_32  and  O_33
REMARK                            x       y       z     vdW  Elec       q    Type
REMARK                         _______ _______ _______ _____ _____    ______ ____
ROOT
ATOM      1  C   UNL     1       0.801  -1.812   1.304  0.00  0.00    +0.403 C 
ATOM      2  O   UNL     1       0.321  -2.554   0.470  0.00  0.00    -0.226 OA
ATOM      3  N   UNL     1       1.441  -2.324   2.374  0.00  0.00    -0.267 N 
ATOM      4  C   UNL     1       2.021  -1.440   3.394  0.00  0.00    +0.111 C 
ATOM      5  C   UNL     1       3.495  -1.809   3.586  0.00  0.00    +0.029 C 
ATOM      6  C   UNL     1       3.604  -3.301   3.917  0.00  0.00    +0.032 C 
ATOM      7  C   UNL     1       3.051  -4.119   2.745  0.00  0.00    +0.029 C 
ATOM      8  C   UNL     1       1.567  -3.778   2.546  0.00  0.00    +0.111 C 
ATOM      9  N   UNL     1       5.018  -3.646   4.120  0.00  0.00    +0.401 N 
ATOM     10  C   UNL     1       5.107  -5.038   4.590  0.00  0.00    -0.028 C 
ATOM     11  C   UNL     1       4.538  -5.102   6.011  0.00  0.00    +0.044 C 
ATOM     12  C   UNL     1       3.219  -4.381   6.050  0.00  0.00    +0.040 C 
ATOM     13  N   UNL     1       2.831  -3.590   5.120  0.00  0.00    -0.300 NA
ATOM     14  H   UNL     1       5.517  -3.551   3.248  0.00  0.00    -0.081 HD
ATOM     15  H   UNL     1       5.420  -3.030   4.810  0.00  0.00    -0.081 HD
ENDROOT
BRANCH  12  16
ATOM     16  C   UNL     1       2.333  -4.592   7.211  0.00  0.00    -0.001 A 
ATOM     17  C   UNL     1       2.728  -5.443   8.246  0.00  0.00    +0.013 A 
ATOM     18  C   UNL     1       1.899  -5.638   9.330  0.00  0.00    +0.050 A 
ATOM     19  C   UNL     1       0.672  -4.993   9.397  0.00  0.00    +0.166 A 
ATOM     20  C   UNL     1       0.272  -4.143   8.366  0.00  0.00    +0.167 A 
ATOM     21  C   UNL     1       1.101  -3.938   7.280  0.00  0.00    +0.059 A 
ATOM     22  O   UNL     1      -0.960  -3.639   8.671  0.00  0.00    -0.453 OA
ATOM     23  C   UNL     1      -1.486  -4.503   9.695  0.00  0.00    +0.466 C 
ATOM     24  O   UNL     1      -0.309  -5.020  10.344  0.00  0.00    -0.453 OA
ENDBRANCH  12  16
BRANCH  10  25
ATOM     25  C   UNL     1       6.547  -5.481   4.598  0.00  0.00    -0.018 A 
ATOM     26  C   UNL     1       7.557  -4.546   4.718  0.00  0.00    +0.025 A 
ATOM     27  C   UNL     1       8.880  -4.952   4.725  0.00  0.00    +0.041 A 
ATOM     28  C   UNL     1       9.194  -6.295   4.613  0.00  0.00    +0.023 A 
ATOM     29  C   UNL     1       8.187  -7.233   4.493  0.00  0.00    +0.047 A 
ATOM     30  C   UNL     1       6.859  -6.828   4.491  0.00  0.00    +0.119 A 
ATOM     31 CL   UNL     1      10.147  -3.775   4.875  0.00  0.00    -0.084 Cl
BRANCH  30  32
ATOM     32  O   UNL     1       5.867  -7.750   4.379  0.00  0.00    -0.507 OA
ATOM     33  H   UNL     1       5.608  -7.941   3.467  0.00  0.00    +0.292 HD
ENDBRANCH  30  32
ENDBRANCH  10  25
BRANCH   1  34
ATOM     34  O   UNL     1       0.693  -0.477   1.160  0.00  0.00    -0.451 OA
BRANCH  34  36
ATOM     35  C   UNL     1      -0.019   1.526   0.010  0.00  0.00    +0.048 C 
ATOM     36  C   UNL     1       0.002  -0.004   0.002  0.00  0.00    +0.230 C 
ENDBRANCH  34  36
ENDBRANCH   1  34
TORSDOF 5
