REMARK  Name = ZINC27469435
REMARK  6 active torsions:
REMARK  status: ('A' for Active; 'I' for Inactive)
REMARK    1  A    between atoms: C_1  and  C_2
REMARK    2  A    between atoms: C_2  and  O_3
REMARK    3  A    between atoms: O_3  and  C_4
REMARK    4  A    between atoms: C_7  and  C_11
REMARK    5  A    between atoms: C_8  and  O_10
REMARK    6  A    between atoms: N_12  and  N_13
REMARK                            x       y       z     vdW  Elec       q    Type
REMARK                         _______ _______ _______ _____ _____    ______ ____
ROOT
ATOM      1  N   UNL     1      -3.338  -7.976  -0.015  0.00  0.00    -0.204 N 
ATOM      2  C   UNL     1      -4.608  -8.526  -0.012  0.00  0.00    +0.256 A 
ATOM      3  N   UNL     1      -4.746  -9.845  -0.012  0.00  0.00    -0.192 NA
ATOM      4  C   UNL     1      -5.966 -10.372  -0.009  0.00  0.00    +0.163 A 
ATOM      5  C   UNL     1      -7.073  -9.498  -0.004  0.00  0.00    +0.138 A 
ATOM      6  C   UNL     1      -8.274 -10.350  -0.001  0.00  0.00    +0.030 A 
ATOM      7  C   UNL     1      -9.641 -10.083   0.003  0.00  0.00    +0.027 A 
ATOM      8  C   UNL     1     -10.543 -11.126   0.004  0.00  0.00    +0.019 A 
ATOM      9  C   UNL     1     -10.093 -12.438   0.001  0.00  0.00    +0.017 A 
ATOM     10  C   UNL     1      -8.743 -12.716  -0.003  0.00  0.00    +0.027 A 
ATOM     11  C   UNL     1      -7.818 -11.677  -0.004  0.00  0.00    +0.050 A 
ATOM     12  N   UNL     1      -6.432 -11.663  -0.008  0.00  0.00    -0.338 N 
ATOM     13  H   UNL     1      -5.870 -12.454  -0.011  0.00  0.00    +0.167 HD
ATOM     14 BR   UNL     1     -12.400 -10.767   0.010  0.00  0.00    -0.050 Br
ATOM     15  N   UNL     1      -6.868  -8.188  -0.003  0.00  0.00    -0.142 NA
ATOM     16  N   UNL     1      -5.667  -7.722  -0.002  0.00  0.00    -0.111 NA
ATOM     17  H   UNL     1      -2.559  -8.554  -0.022  0.00  0.00    +0.177 HD
ENDROOT
BRANCH   1  19
ATOM     18  C   UNL     1      -1.986  -6.068  -0.012  0.00  0.00    +0.142 C 
ATOM     19  N   UNL     1      -3.178  -6.584  -0.009  0.00  0.00    -0.187 NA
BRANCH  18  23
ATOM     20  C   UNL     1      -1.498  -1.848   0.006  0.00  0.00    +0.124 A 
ATOM     21  C   UNL     1      -0.383  -2.677  -0.003  0.00  0.00    +0.046 A 
ATOM     22  C   UNL     1      -0.536  -4.046  -0.009  0.00  0.00    +0.016 A 
ATOM     23  C   UNL     1      -1.817  -4.604  -0.005  0.00  0.00    +0.036 A 
ATOM     24  C   UNL     1      -2.941  -3.766   0.004  0.00  0.00    +0.129 A 
ATOM     25  C   UNL     1      -2.774  -2.393   0.016  0.00  0.00    +0.091 A 
BRANCH  24  26
ATOM     26  O   UNL     1      -4.190  -4.301   0.008  0.00  0.00    -0.506 OA
ATOM     27  H   UNL     1      -4.547  -4.460   0.892  0.00  0.00    +0.292 HD
ENDBRANCH  24  26
BRANCH  20  28
ATOM     28  O   UNL     1      -1.339  -0.499   0.012  0.00  0.00    -0.492 OA
BRANCH  28  30
ATOM     29  C   UNL     1      -0.019   1.526   0.010  0.00  0.00    +0.048 C 
ATOM     30  C   UNL     1       0.002  -0.004   0.002  0.00  0.00    +0.225 C 
ENDBRANCH  28  30
ENDBRANCH  20  28
ENDBRANCH  18  23
ENDBRANCH   1  19
TORSDOF 5
