REMARK  Name = ZINC15223753
REMARK  3 active torsions:
REMARK  status: ('A' for Active; 'I' for Inactive)
REMARK    1  A    between atoms: C_4  and  C_7
REMARK    2  A    between atoms: C_19  and  C_20
REMARK    3  A    between atoms: C_23  and  N_26
REMARK                            x       y       z     vdW  Elec       q    Type
REMARK                         _______ _______ _______ _____ _____    ______ ____
ROOT
ATOM      1  C   UNL     1      -6.292   6.120   0.276  0.00  0.00    +0.084 C 
ATOM      2  N   UNL     1      -6.503   6.888   1.305  0.00  0.00    -0.245 NA
ATOM      3  C   UNL     1      -5.698   7.006   2.391  0.00  0.00    +0.086 A 
ATOM      4  C   UNL     1      -6.348   7.077   3.638  0.00  0.00    +0.029 A 
ATOM      5  C   UNL     1      -5.627   7.213   4.800  0.00  0.00    +0.002 A 
ATOM      6  C   UNL     1      -4.245   7.283   4.751  0.00  0.00    +0.002 A 
ATOM      7  C   UNL     1      -3.593   7.212   3.539  0.00  0.00    +0.025 A 
ATOM      8  C   UNL     1      -4.306   7.069   2.346  0.00  0.00    +0.059 A 
ATOM      9  N   UNL     1      -3.548   6.998   1.184  0.00  0.00    -0.280 N 
ATOM     10  C   UNL     1      -3.781   6.168   0.161  0.00  0.00    +0.250 C 
ATOM     11  O   UNL     1      -2.984   6.075  -0.752  0.00  0.00    -0.270 OA
ATOM     12  C   UNL     1      -5.026   5.365   0.158  0.00  0.00    +0.063 C 
ATOM     13  C   UNL     1      -5.006   4.006   0.048  0.00  0.00    +0.023 C 
ATOM     14  H   UNL     1      -2.789   7.597   1.109  0.00  0.00    +0.155 HD
ENDROOT
BRANCH   1  18
ATOM     15  C   UNL     1      -9.243   5.773  -2.761  0.00  0.00    +0.000 A 
ATOM     16  C   UNL     1      -9.471   6.591  -1.669  0.00  0.00    +0.001 A 
ATOM     17  C   UNL     1      -8.517   6.708  -0.679  0.00  0.00    +0.010 A 
ATOM     18  C   UNL     1      -7.320   5.999  -0.781  0.00  0.00    +0.001 A 
ATOM     19  C   UNL     1      -7.093   5.179  -1.888  0.00  0.00    +0.010 A 
ATOM     20  C   UNL     1      -8.058   5.066  -2.868  0.00  0.00    +0.001 A 
ENDBRANCH   1  18
BRANCH  13  21
ATOM     21  C   UNL     1      -3.727   3.285   0.084  0.00  0.00    -0.024 A 
ATOM     22  C   UNL     1      -3.588   2.064  -0.587  0.00  0.00    +0.010 A 
ATOM     23  C   UNL     1      -2.384   1.395  -0.549  0.00  0.00    +0.033 A 
ATOM     24  C   UNL     1      -1.314   1.926   0.150  0.00  0.00    +0.126 A 
ATOM     25  C   UNL     1      -1.444   3.130   0.821  0.00  0.00    +0.033 A 
ATOM     26  C   UNL     1      -2.639   3.816   0.788  0.00  0.00    +0.010 A 
BRANCH  24  27
ATOM     27  N   UNL     1      -0.024   1.200   0.186  0.00  0.00    +0.056 N 
ATOM     28  O   UNL     1       0.093   0.137  -0.399  0.00  0.00    -0.126 OA
ATOM     29  O   UNL     1       0.921   1.666   0.796  0.00  0.00    -0.126 OA
ENDBRANCH  24  27
ENDBRANCH  13  21
TORSDOF 3
