REMARK  Name = ZINC08995027
REMARK  8 active torsions:
REMARK  status: ('A' for Active; 'I' for Inactive)
REMARK    1  A    between atoms: C_1  and  C_2
REMARK    2  A    between atoms: C_2  and  C_3
REMARK    3  A    between atoms: C_2  and  C_4
REMARK    4  A    between atoms: C_4  and  C_5
REMARK    5  A    between atoms: C_8  and  C_21
REMARK    6  A    between atoms: N_23  and  C_24
REMARK    7  A    between atoms: C_27  and  O_30
REMARK    8  A    between atoms: O_30  and  C_31
REMARK                            x       y       z     vdW  Elec       q    Type
REMARK                         _______ _______ _______ _____ _____    ______ ____
ROOT
ATOM      1  C   UNL     1       0.536  -1.995  -1.432  0.00  0.00    -0.069 C 
ATOM      2  C   UNL     1       1.290  -2.529  -2.676  0.00  0.00    -0.004 C 
ATOM      3  C   UNL     1       1.519  -4.017  -2.290  0.00  0.00    +0.076 C 
ATOM      4  C   UNL     1       1.747  -3.946  -0.772  0.00  0.00    +0.049 C 
ATOM      5  C   UNL     1       1.150  -5.144  -0.085  0.00  0.00    -0.027 A 
ATOM      6  C   UNL     1      -0.132  -5.639   0.008  0.00  0.00    +0.019 A 
ATOM      7  C   UNL     1      -0.378  -6.794   0.729  0.00  0.00    +0.018 A 
ATOM      8  C   UNL     1       0.667  -7.450   1.356  0.00  0.00    +0.017 A 
ATOM      9  C   UNL     1       1.952  -6.957   1.266  0.00  0.00    +0.024 A 
ATOM     10  C   UNL     1       2.208  -5.794   0.543  0.00  0.00    +0.036 A 
ATOM     11  N   UNL     1       3.402  -5.108   0.309  0.00  0.00    -0.286 N 
ATOM     12  C   UNL     1       3.218  -4.013  -0.451  0.00  0.00    +0.211 C 
ATOM     13  O   UNL     1       4.072  -3.230  -0.809  0.00  0.00    -0.277 OA
ATOM     14 BR   UNL     1      -2.137  -7.476   0.857  0.00  0.00    -0.050 Br
ATOM     15  H   UNL     1       4.263  -5.388   0.656  0.00  0.00    +0.155 HD
ATOM     16  N   UNL     1       1.152  -2.699  -0.291  0.00  0.00    +0.394 N 
ATOM     17  H   UNL     1       0.435  -2.909   0.413  0.00  0.00    -0.083 HD
ATOM     18  H   UNL     1       1.880  -2.108   0.127  0.00  0.00    -0.083 HD
ENDROOT
BRANCH   3  19
ATOM     19  C   UNL     1       0.302  -4.846  -2.609  0.00  0.00    +0.220 C 
ATOM     20  O   UNL     1      -0.798  -4.335  -2.605  0.00  0.00    -0.275 OA
ATOM     21  N   UNL     1       0.436  -6.156  -2.898  0.00  0.00    -0.285 N 
ATOM     22  H   UNL     1       1.305  -6.582  -2.829  0.00  0.00    +0.155 HD
BRANCH  21  23
ATOM     23  C   UNL     1      -0.680  -6.903  -3.298  0.00  0.00    +0.034 A 
ATOM     24  C   UNL     1      -0.787  -8.240  -2.939  0.00  0.00    +0.027 A 
ATOM     25  C   UNL     1      -1.889  -8.973  -3.329  0.00  0.00    +0.047 A 
ATOM     26  C   UNL     1      -2.885  -8.378  -4.089  0.00  0.00    +0.120 A 
ATOM     27  C   UNL     1      -2.777  -7.044  -4.454  0.00  0.00    +0.047 A 
ATOM     28  C   UNL     1      -1.677  -6.308  -4.059  0.00  0.00    +0.027 A 
BRANCH  26  29
ATOM     29  O   UNL     1      -3.968  -9.103  -4.478  0.00  0.00    -0.495 OA
ATOM     30  C   UNL     1      -4.015 -10.471  -4.067  0.00  0.00    +0.277 C 
ENDBRANCH  26  29
ENDBRANCH  21  23
ENDBRANCH   3  19
BRANCH   1  31
ATOM     31  C   UNL     1       0.731  -0.483  -1.300  0.00  0.00    -0.013 C 
BRANCH  31  33
ATOM     32  C   UNL     1      -1.503  -0.177  -0.224  0.00  0.00    +0.007 C 
ATOM     33  C   UNL     1       0.004   0.017  -0.050  0.00  0.00    -0.019 C 
ATOM     34  C   UNL     1       0.307   1.503   0.155  0.00  0.00    +0.007 C 
ENDBRANCH  31  33
ENDBRANCH   1  31
TORSDOF 5
