REMARK  Name = ZINC01434545
REMARK  7 active torsions:
REMARK  status: ('A' for Active; 'I' for Inactive)
REMARK    1  A    between atoms: C_1  and  C_2
REMARK    2  A    between atoms: C_2  and  C_27
REMARK    3  A    between atoms: C_3  and  N_16
REMARK    4  A    between atoms: N_5  and  N_9
REMARK    5  A    between atoms: C_10  and  C_11
REMARK    6  A    between atoms: N_16  and  O_26
REMARK    7  A    between atoms: N_19  and  C_20
REMARK                            x       y       z     vdW  Elec       q    Type
REMARK                         _______ _______ _______ _____ _____    ______ ____
ROOT
ATOM      1  C   UNL     1       5.585   0.264   5.830  0.00  0.00    +0.026 C 
ATOM      2  C   UNL     1       6.625  -0.531   5.038  0.00  0.00    +0.056 C 
ATOM      3  C   UNL     1       6.245  -0.612   3.545  0.00  0.00    +0.232 C 
ATOM      4  N   UNL     1       7.214   0.013   2.675  0.00  0.00    -0.187 N 
ATOM      5  C   UNL     1       8.317   0.589   3.175  0.00  0.00    +0.132 C 
ATOM      6  S   UNL     1       9.563   1.369   2.298  0.00  0.00    -0.026 S 
ATOM      7  S   UNL     1       8.216   0.373   4.940  0.00  0.00    -0.091 S 
ATOM      8  C   UNL     1       6.819  -1.927   5.634  0.00  0.00    +0.026 C 
ENDROOT
BRANCH   3   9
ATOM      9  N   UNL     1       4.949   0.045   3.354  0.00  0.00    -0.143 N 
ATOM     10  C   UNL     1       3.833  -0.501   3.877  0.00  0.00    +0.327 C 
ATOM     11  O   UNL     1       3.887  -1.583   4.429  0.00  0.00    -0.250 OA
ATOM     12  N   UNL     1       2.658   0.153   3.788  0.00  0.00    -0.295 N 
ATOM     13  H   UNL     1       2.610   1.132   3.288  0.00  0.00    +0.151 HD
BRANCH  12  14
ATOM     14  C   UNL     1       1.445  -0.440   4.357  0.00  0.00    +0.074 C 
ATOM     15  C   UNL     1       0.445   0.668   4.693  0.00  0.00    +0.022 C 
ATOM     16  C   UNL     1      -0.822   0.049   5.287  0.00  0.00    +0.002 C 
ATOM     17  C   UNL     1      -1.445  -0.910   4.271  0.00  0.00    +0.000 C 
ATOM     18  C   UNL     1      -0.445  -2.018   3.934  0.00  0.00    +0.002 C 
ATOM     19  C   UNL     1       0.821  -1.399   3.340  0.00  0.00    +0.022 C 
ENDBRANCH  12  14
BRANCH   9  20
ATOM     20  O   UNL     1       4.869   1.253   2.619  0.00  0.00    -0.289 OA
ATOM     21  H   UNL     1       3.896   1.746   2.475  0.00  0.00    +0.242 HD
ENDBRANCH   9  20
ENDBRANCH   3   9
BRANCH   4  22
ATOM     22  N   UNL     1       7.000   0.016   1.290  0.00  0.00    -0.181 NA
ATOM     23  C   UNL     1       5.990  -0.631   0.787  0.00  0.00    +0.176 C 
BRANCH  23  24
ATOM     24  C   UNL     1       5.800  -0.679  -0.666  0.00  0.00    +0.147 A 
ATOM     25  C   UNL     1       4.788  -1.318  -1.321  0.00  0.00    +0.051 A 
ATOM     26  C   UNL     1       4.997  -1.103  -2.696  0.00  0.00    +0.042 A 
ATOM     27  C   UNL     1       6.111  -0.351  -2.815  0.00  0.00    +0.196 A 
ATOM     28  O   UNL     1       6.590  -0.093  -1.587  0.00  0.00    -0.462 OA
ENDBRANCH  23  24
ENDBRANCH   4  22
TORSDOF 5
