REMARK  Name = ZINC58846655
REMARK  8 active torsions:
REMARK  status: ('A' for Active; 'I' for Inactive)
REMARK    1  A    between atoms: C_1  and  C_2
REMARK    2  A    between atoms: C_4  and  C_36
REMARK    3  A    between atoms: C_6  and  N_8
REMARK    4  A    between atoms: N_8  and  S_9
REMARK    5  A    between atoms: S_9  and  C_12
REMARK    6  A    between atoms: C_25  and  C_28
REMARK    7  A    between atoms: C_32  and  O_34
REMARK    8  A    between atoms: O_34  and  C_35
REMARK                            x       y       z     vdW  Elec       q    Type
REMARK                         _______ _______ _______ _____ _____    ______ ____
ROOT
ATOM      1  C   UNL     1       0.394  -0.645   4.071  0.00  0.00    +0.109 A 
ATOM      2  C   UNL     1       0.735   0.494   3.364  0.00  0.00    +0.030 A 
ATOM      3  C   UNL     1       0.233   1.719   3.754  0.00  0.00    +0.025 A 
ATOM      4  C   UNL     1      -0.616   1.808   4.853  0.00  0.00    +0.031 A 
ATOM      5  C   UNL     1      -0.970   0.666   5.555  0.00  0.00    -0.018 A 
ATOM      6  C   UNL     1      -0.456  -0.560   5.155  0.00  0.00    +0.034 A 
ATOM      7  C   UNL     1      -1.908   0.716   6.712  0.00  0.00    +0.049 C 
ATOM      8  C   UNL     1      -1.189   0.591   8.031  0.00  0.00    -0.023 C 
ATOM      9  C   UNL     1      -1.767   1.341   8.936  0.00  0.00    -0.030 C 
ATOM     10  C   UNL     1      -2.950   2.079   8.349  0.00  0.00    +0.033 C 
ATOM     11  C   UNL     1      -2.708   2.013   6.823  0.00  0.00    +0.029 C 
ATOM     12  C   UNL     1      -1.932   3.247   6.413  0.00  0.00    +0.105 C 
ATOM     13  N   UNL     1      -1.099   3.051   5.245  0.00  0.00    -0.336 N 
ATOM     14  H   UNL     1      -0.846   3.828   4.723  0.00  0.00    +0.147 HD
ENDROOT
BRANCH  12  15
ATOM     15  C   UNL     1      -1.079   3.684   7.576  0.00  0.00    -0.024 A 
ATOM     16  C   UNL     1       0.122   3.046   7.831  0.00  0.00    +0.006 A 
ATOM     17  C   UNL     1       0.906   3.445   8.897  0.00  0.00    +0.004 A 
ATOM     18  C   UNL     1       0.492   4.482   9.711  0.00  0.00    +0.045 A 
ATOM     19  C   UNL     1      -0.711   5.123   9.458  0.00  0.00    +0.120 A 
ATOM     20  C   UNL     1      -1.494   4.725   8.383  0.00  0.00    +0.051 A 
BRANCH  19  21
ATOM     21  O   UNL     1      -1.121   6.143  10.257  0.00  0.00    -0.495 OA
ATOM     22  C   UNL     1      -0.262   6.503  11.341  0.00  0.00    +0.277 C 
ENDBRANCH  19  21
ENDBRANCH  12  15
BRANCH   1  23
ATOM     23  S   UNL     1       1.040  -2.209   3.582  0.00  0.00    +0.072 S 
ATOM     24  O   UNL     1       0.887  -3.078   4.697  0.00  0.00    -0.150 OA
ATOM     25  O   UNL     1       2.302  -1.957   2.980  0.00  0.00    -0.150 OA
BRANCH  23  26
ATOM     26  N   UNL     1       0.054  -2.795   2.388  0.00  0.00    -0.216 N 
ATOM     27  H   UNL     1       0.411  -2.960   1.501  0.00  0.00    +0.174 HD
BRANCH  26  33
ATOM     28  C   UNL     1      -3.382  -4.733   5.319  0.00  0.00    +0.044 C 
ATOM     29  C   UNL     1      -2.988  -3.987   4.070  0.00  0.00    -0.048 A 
ATOM     30  C   UNL     1      -3.961  -3.555   3.188  0.00  0.00    +0.006 A 
ATOM     31  C   UNL     1      -3.604  -2.871   2.041  0.00  0.00    -0.048 A 
ATOM     32  C   UNL     1      -2.273  -2.617   1.772  0.00  0.00    +0.028 A 
ATOM     33  C   UNL     1      -1.293  -3.050   2.656  0.00  0.00    +0.049 A 
ATOM     34  C   UNL     1      -1.656  -3.732   3.811  0.00  0.00    +0.028 A 
ATOM     35  C   UNL     1      -4.668  -2.402   1.082  0.00  0.00    +0.044 C 
ENDBRANCH  26  33
ENDBRANCH  23  26
ENDBRANCH   1  23
TORSDOF 5
