REMARK  Name = ZINC40035392
REMARK  9 active torsions:
REMARK  status: ('A' for Active; 'I' for Inactive)
REMARK    1  A    between atoms: C_1  and  C_2
REMARK    2  A    between atoms: C_2  and  C_3
REMARK    3  A    between atoms: C_3  and  C_36
REMARK    4  A    between atoms: N_15  and  C_30
REMARK    5  A    between atoms: N_18  and  N_19
REMARK    6  A    between atoms: C_20  and  C_21
REMARK    7  A    between atoms: C_24  and  O_29
REMARK    8  A    between atoms: C_25  and  O_27
REMARK    9  A    between atoms: O_27  and  C_28
REMARK                            x       y       z     vdW  Elec       q    Type
REMARK                         _______ _______ _______ _____ _____    ______ ____
ROOT
ATOM      1  C   UNL     1       0.945   0.170   0.433  0.00  0.00    +0.004 C 
ATOM      2  C   UNL     1       0.226  -1.173   0.329  0.00  0.00    +0.047 C 
ATOM      3  C   UNL     1       1.078  -2.174  -0.402  0.00  0.00    -0.037 A 
ATOM      4  C   UNL     1       0.499  -3.111  -1.233  0.00  0.00    +0.004 A 
ATOM      5  C   UNL     1       1.290  -4.030  -1.899  0.00  0.00    +0.000 A 
ATOM      6  C   UNL     1       2.664  -4.020  -1.736  0.00  0.00    +0.001 A 
ATOM      7  C   UNL     1       3.256  -3.088  -0.908  0.00  0.00    +0.010 A 
ATOM      8  C   UNL     1       2.464  -2.159  -0.239  0.00  0.00    +0.004 A 
ATOM      9  C   UNL     1       3.071  -1.141   0.648  0.00  0.00    +0.084 A 
ATOM     10  C   UNL     1       2.333  -0.013   0.978  0.00  0.00    +0.050 A 
ATOM     11  C   UNL     1       2.905   0.946   1.823  0.00  0.00    +0.264 A 
ATOM     12  O   UNL     1       2.285   1.949   2.137  0.00  0.00    -0.267 OA
ATOM     13  N   UNL     1       4.157   0.736   2.284  0.00  0.00    -0.248 N 
ATOM     14  C   UNL     1       4.842  -0.388   1.925  0.00  0.00    +0.223 A 
ATOM     15  N   UNL     1       4.309  -1.294   1.131  0.00  0.00    -0.214 NA
ATOM     16  N   UNL     1       6.114  -0.578   2.400  0.00  0.00    -0.206 N 
ATOM     17  C   UNL     1       0.155   1.093   1.363  0.00  0.00    +0.016 C 
ATOM     18  H   UNL     1       6.489   0.043   3.044  0.00  0.00    +0.177 HD
ENDROOT
BRANCH  13  19
ATOM     19  C   UNL     1       4.754   1.676   3.134  0.00  0.00    +0.053 A 
ATOM     20  C   UNL     1       5.496   2.722   2.602  0.00  0.00    +0.026 A 
ATOM     21  C   UNL     1       6.083   3.647   3.443  0.00  0.00    +0.002 A 
ATOM     22  C   UNL     1       5.933   3.532   4.813  0.00  0.00    +0.000 A 
ATOM     23  C   UNL     1       5.195   2.491   5.345  0.00  0.00    +0.002 A 
ATOM     24  C   UNL     1       4.601   1.566   4.510  0.00  0.00    +0.026 A 
ENDBRANCH  13  19
BRANCH   1  26
ATOM     25  C   UNL     1       1.723   2.165  -0.855  0.00  0.00    +0.005 C 
ATOM     26  C   UNL     1       1.028   0.805  -0.957  0.00  0.00    +0.008 C 
ENDBRANCH   1  26
BRANCH  16  27
ATOM     27  N   UNL     1       6.871  -1.670   1.957  0.00  0.00    -0.188 NA
ATOM     28  C   UNL     1       8.075  -1.851   2.407  0.00  0.00    +0.138 C 
BRANCH  28  29
ATOM     29  C   UNL     1       8.871  -3.000   1.941  0.00  0.00    -0.002 A 
ATOM     30  C   UNL     1       8.335  -3.893   1.010  0.00  0.00    +0.013 A 
ATOM     31  C   UNL     1       9.082  -4.968   0.575  0.00  0.00    +0.050 A 
ATOM     32  C   UNL     1      10.366  -5.165   1.060  0.00  0.00    +0.158 A 
ATOM     33  C   UNL     1      10.908  -4.279   1.988  0.00  0.00    +0.162 A 
ATOM     34  C   UNL     1      10.168  -3.196   2.424  0.00  0.00    +0.058 A 
BRANCH  33  35
ATOM     35  O   UNL     1      12.168  -4.476   2.461  0.00  0.00    -0.491 OA
ATOM     36  C   UNL     1      12.660  -3.529   3.412  0.00  0.00    +0.277 C 
ENDBRANCH  33  35
BRANCH  32  37
ATOM     37  O   UNL     1      11.098  -6.226   0.627  0.00  0.00    -0.503 OA
ATOM     38  H   UNL     1      11.634  -6.041  -0.156  0.00  0.00    +0.292 HD
ENDBRANCH  32  37
ENDBRANCH  28  29
ENDBRANCH  16  27
TORSDOF 6
