REMARK  Name = ZINC13777458
REMARK  7 active torsions:
REMARK  status: ('A' for Active; 'I' for Inactive)
REMARK    1  A    between atoms: C_1  and  C_2
REMARK    2  A    between atoms: C_2  and  O_3
REMARK    3  A    between atoms: O_3  and  C_4
REMARK    4  A    between atoms: C_6  and  C_11
REMARK    5  A    between atoms: C_9  and  O_10
REMARK    6  A    between atoms: N_19  and  C_22
REMARK    7  A    between atoms: N_31  and  C_32
REMARK                            x       y       z     vdW  Elec       q    Type
REMARK                         _______ _______ _______ _____ _____    ______ ____
ROOT
ATOM      1  C   UNL     1       0.654  -4.954  -0.018  0.00  0.00    +0.157 C 
ATOM      2  C   UNL     1       0.911  -5.522   1.372  0.00  0.00    +0.145 C 
ATOM      3  C   UNL     1       1.533  -6.896   0.914  0.00  0.00    +0.249 C 
ATOM      4  C   UNL     1       2.211  -7.324   2.122  0.00  0.00    +0.259 C 
ATOM      5  O   UNL     1       2.365  -8.460   2.515  0.00  0.00    -0.272 OA
ATOM      6  N   UNL     1       2.640  -6.170   2.725  0.00  0.00    -0.205 N 
ATOM      7  C   UNL     1       2.065  -5.036   2.192  0.00  0.00    +0.235 C 
ATOM      8  O   UNL     1       2.417  -3.886   2.346  0.00  0.00    -0.274 OA
ATOM      9  O   UNL     1       0.635  -7.341  -0.015  0.00  0.00    -0.257 OA
ATOM     10  N   UNL     1       0.398  -6.165  -0.852  0.00  0.00    -0.244 N 
ENDROOT
BRANCH   6  11
ATOM     11  C   UNL     1       3.559  -6.143   3.784  0.00  0.00    +0.080 A 
ATOM     12  C   UNL     1       3.110  -6.210   5.097  0.00  0.00    +0.064 A 
ATOM     13  C   UNL     1       4.018  -6.184   6.139  0.00  0.00    +0.022 A 
ATOM     14  C   UNL     1       5.372  -6.090   5.875  0.00  0.00    +0.003 A 
ATOM     15  C   UNL     1       5.823  -6.022   4.570  0.00  0.00    +0.022 A 
ATOM     16  C   UNL     1       4.920  -6.054   3.523  0.00  0.00    +0.064 A 
ATOM     17 CL   UNL     1       5.487  -5.976   1.884  0.00  0.00    -0.082 Cl
ATOM     18 CL   UNL     1       1.410  -6.327   5.429  0.00  0.00    -0.082 Cl
ENDBRANCH   6  11
BRANCH   1  21
ATOM     19  C   UNL     1      -1.498  -1.849   0.006  0.00  0.00    +0.162 A 
ATOM     20  C   UNL     1      -0.389  -2.680  -0.003  0.00  0.00    +0.055 A 
ATOM     21  C   UNL     1      -0.553  -4.052  -0.008  0.00  0.00    -0.018 A 
ATOM     22  C   UNL     1      -1.823  -4.600  -0.005  0.00  0.00    +0.009 A 
ATOM     23  C   UNL     1      -2.934  -3.777   0.004  0.00  0.00    +0.049 A 
ATOM     24  C   UNL     1      -2.776  -2.400   0.016  0.00  0.00    +0.158 A 
BRANCH  24  25
ATOM     25  O   UNL     1      -3.868  -1.589   0.030  0.00  0.00    -0.503 OA
ATOM     26  H   UNL     1      -4.192  -1.350  -0.849  0.00  0.00    +0.292 HD
ENDBRANCH  24  25
BRANCH  19  27
ATOM     27  O   UNL     1      -1.339  -0.499   0.012  0.00  0.00    -0.489 OA
BRANCH  27  29
ATOM     28  C   UNL     1      -0.019   1.526   0.010  0.00  0.00    +0.048 C 
ATOM     29  C   UNL     1       0.002  -0.004   0.002  0.00  0.00    +0.226 C 
ENDBRANCH  27  29
ENDBRANCH  19  27
ENDBRANCH   1  21
BRANCH  10  30
ATOM     30  C   UNL     1      -0.006  -6.170  -2.189  0.00  0.00    +0.065 A 
ATOM     31  C   UNL     1      -0.200  -4.971  -2.862  0.00  0.00    +0.028 A 
ATOM     32  C   UNL     1      -0.599  -4.980  -4.184  0.00  0.00    +0.002 A 
ATOM     33  C   UNL     1      -0.806  -6.181  -4.837  0.00  0.00    +0.000 A 
ATOM     34  C   UNL     1      -0.614  -7.377  -4.170  0.00  0.00    +0.002 A 
ATOM     35  C   UNL     1      -0.209  -7.375  -2.849  0.00  0.00    +0.028 A 
ENDBRANCH  10  30
TORSDOF 6
