REMARK  Name = ZINC06753198
REMARK  7 active torsions:
REMARK  status: ('A' for Active; 'I' for Inactive)
REMARK    1  A    between atoms: C_1  and  C_2
REMARK    2  A    between atoms: C_5  and  O_29
REMARK    3  A    between atoms: C_6  and  C_8
REMARK    4  A    between atoms: N_16  and  C_26
REMARK    5  A    between atoms: C_17  and  C_19
REMARK    6  A    between atoms: C_26  and  C_27
REMARK    7  A    between atoms: C_27  and  O_28
REMARK                            x       y       z     vdW  Elec       q    Type
REMARK                         _______ _______ _______ _____ _____    ______ ____
ROOT
ATOM      1  C   UNL     1       0.441  -2.873   1.900  0.00  0.00    +0.102 A 
ATOM      2  C   UNL     1       0.392  -4.215   2.291  0.00  0.00    +0.035 A 
ATOM      3  C   UNL     1      -0.027  -4.209   3.607  0.00  0.00    +0.126 A 
ATOM      4  N   UNL     1      -0.206  -2.897   3.942  0.00  0.00    -0.272 N 
ATOM      5  H   UNL     1      -0.500  -2.579   4.810  0.00  0.00    +0.189 HD
ATOM      6  N   UNL     1       0.076  -2.146   2.938  0.00  0.00    -0.173 NA
ATOM      7  C   UNL     1      -0.100  -5.596   4.080  0.00  0.00    +0.266 C 
ATOM      8  O   UNL     1      -0.437  -5.931   5.200  0.00  0.00    -0.268 OA
ATOM      9  N   UNL     1       0.259  -6.444   3.100  0.00  0.00    -0.283 N 
ATOM     10  C   UNL     1       0.594  -5.656   1.908  0.00  0.00    +0.144 C 
ENDROOT
BRANCH   1  16
ATOM     11  C   UNL     1       0.899   0.925  -1.308  0.00  0.00    +0.044 C 
ATOM     12  C   UNL     1       1.060  -0.538  -0.982  0.00  0.00    -0.050 A 
ATOM     13  C   UNL     1       1.576  -1.403  -1.930  0.00  0.00    +0.007 A 
ATOM     14  C   UNL     1       1.727  -2.746  -1.639  0.00  0.00    +0.046 A 
ATOM     15  C   UNL     1       1.360  -3.232  -0.395  0.00  0.00    +0.126 A 
ATOM     16  C   UNL     1       0.838  -2.361   0.564  0.00  0.00    +0.044 A 
ATOM     17  C   UNL     1       0.696  -1.008   0.264  0.00  0.00    +0.017 A 
BRANCH  15  18
ATOM     18  O   UNL     1       1.506  -4.552  -0.109  0.00  0.00    -0.506 OA
ATOM     19  H   UNL     1       2.392  -4.792   0.197  0.00  0.00    +0.292 HD
ENDBRANCH  15  18
ENDBRANCH   1  16
BRANCH  10  20
ATOM     20  C   UNL     1      -0.322  -6.023   0.769  0.00  0.00    +0.013 A 
ATOM     21  C   UNL     1      -1.514  -5.346   0.594  0.00  0.00    +0.008 A 
ATOM     22  C   UNL     1      -2.354  -5.683  -0.450  0.00  0.00    +0.001 A 
ATOM     23  C   UNL     1      -2.003  -6.698  -1.321  0.00  0.00    +0.003 A 
ATOM     24  C   UNL     1      -0.812  -7.376  -1.149  0.00  0.00    +0.039 A 
ATOM     25  C   UNL     1       0.033  -7.036  -0.106  0.00  0.00    +0.129 A 
ATOM     26  F   UNL     1       1.200  -7.695   0.061  0.00  0.00    -0.205 F 
ENDBRANCH  10  20
BRANCH   9  27
ATOM     27  C   UNL     1       0.307  -7.905   3.205  0.00  0.00    +0.137 C 
BRANCH  27  28
ATOM     28  C   UNL     1      -1.097  -8.477   2.999  0.00  0.00    +0.175 C 
BRANCH  28  29
ATOM     29  O   UNL     1      -1.515  -8.241   1.653  0.00  0.00    -0.393 OA
ATOM     30  H   UNL     1      -2.426  -8.509   1.471  0.00  0.00    +0.209 HD
ENDBRANCH  28  29
ENDBRANCH  27  28
ENDBRANCH   9  27
TORSDOF 6
