REMARK  Name = ZINC39672237
REMARK  8 active torsions:
REMARK  status: ('A' for Active; 'I' for Inactive)
REMARK    1  A    between atoms: C_1  and  C_2
REMARK    2  A    between atoms: C_2  and  S_3
REMARK    3  A    between atoms: S_3  and  C_4
REMARK    4  A    between atoms: C_5  and  C_10
REMARK    5  A    between atoms: C_14  and  C_23
REMARK    6  A    between atoms: N_25  and  C_26
REMARK    7  A    between atoms: C_26  and  C_27
REMARK    8  A    between atoms: N_36  and  C_37
REMARK                            x       y       z     vdW  Elec       q    Type
REMARK                         _______ _______ _______ _____ _____    ______ ____
ROOT
ATOM      1  C   UNL     1       2.477  -2.259   3.133  0.00  0.00    +0.249 C 
ATOM      2  O   UNL     1       2.709  -1.070   3.241  0.00  0.00    -0.270 OA
ATOM      3  N   UNL     1       2.841  -3.108   4.114  0.00  0.00    -0.296 N 
ATOM      4  C   UNL     1       2.742  -4.586   4.119  0.00  0.00    +0.121 C 
ATOM      5  C   UNL     1       4.040  -5.062   4.809  0.00  0.00    +0.100 C 
ATOM      6  C   UNL     1       4.486  -3.870   5.671  0.00  0.00    -0.004 C 
ATOM      7  C   UNL     1       3.438  -2.774   5.430  0.00  0.00    +0.115 C 
ATOM      8  C   UNL     1       5.862  -3.381   5.226  0.00  0.00    -0.010 C 
ATOM      9  C   UNL     1       6.309  -2.232   6.134  0.00  0.00    -0.082 C 
ATOM     10  N   UNL     1       6.359  -2.697   7.526  0.00  0.00    +0.379 N 
ATOM     11  C   UNL     1       5.014  -3.078   7.975  0.00  0.00    -0.082 C 
ATOM     12  C   UNL     1       4.512  -4.262   7.145  0.00  0.00    -0.010 C 
ATOM     13  H   UNL     1       6.972  -3.496   7.590  0.00  0.00    -0.086 HD
ATOM     14  H   UNL     1       6.711  -1.957   8.114  0.00  0.00    -0.086 HD
ENDROOT
BRANCH   1  16
ATOM     15  C   UNL     1       2.043  -2.196   0.669  0.00  0.00    +0.109 A 
ATOM     16  C   UNL     1       1.798  -2.771   1.929  0.00  0.00    +0.069 A 
ATOM     17  C   UNL     1       0.898  -3.838   2.019  0.00  0.00    +0.017 A 
ATOM     18  C   UNL     1       0.286  -4.282   0.860  0.00  0.00    +0.020 A 
ATOM     19  C   UNL     1       0.578  -3.666  -0.344  0.00  0.00    +0.112 A 
ATOM     20  N   UNL     1       1.425  -2.657  -0.408  0.00  0.00    -0.248 NA
BRANCH  15  21
ATOM     21  S   UNL     1       3.171  -0.850   0.524  0.00  0.00    -0.105 S 
BRANCH  21  23
ATOM     22  C   UNL     1       4.102   0.718  -1.514  0.00  0.00    +0.015 C 
ATOM     23  C   UNL     1       3.152  -0.451  -1.245  0.00  0.00    +0.072 C 
ENDBRANCH  21  23
ENDBRANCH  15  21
ENDBRANCH   1  16
BRANCH   5  24
ATOM     24  C   UNL     1       5.091  -5.392   3.780  0.00  0.00    +0.218 C 
ATOM     25  O   UNL     1       5.095  -4.818   2.712  0.00  0.00    -0.275 OA
ATOM     26  N   UNL     1       6.026  -6.325   4.048  0.00  0.00    -0.311 N 
ATOM     27  H   UNL     1       6.023  -6.784   4.902  0.00  0.00    +0.149 HD
BRANCH  26  28
ATOM     28  C   UNL     1       7.048  -6.645   3.048  0.00  0.00    +0.139 C 
BRANCH  28  29
ATOM     29  C   UNL     1       7.965  -7.712   3.590  0.00  0.00    -0.030 A 
ATOM     30  C   UNL     1       9.095  -7.353   4.302  0.00  0.00    +0.007 A 
ATOM     31  C   UNL     1       9.935  -8.329   4.797  0.00  0.00    +0.024 A 
ATOM     32  C   UNL     1       9.645  -9.672   4.582  0.00  0.00    +0.033 A 
ATOM     33  C   UNL     1       8.510 -10.031   3.872  0.00  0.00    -0.026 A 
ATOM     34  C   UNL     1       7.671  -9.045   3.381  0.00  0.00    +0.010 A 
ATOM     35  C   UNL     1       8.158 -11.475   3.628  0.00  0.00    +0.038 C 
ATOM     36  C   UNL     1       9.394 -12.361   3.784  0.00  0.00    +0.024 C 
ATOM     37  C   UNL     1      10.064 -12.045   5.128  0.00  0.00    +0.105 C 
ATOM     38  N   UNL     1      10.512 -10.647   5.088  0.00  0.00    -0.333 N 
ATOM     39  C   UNL     1      11.845 -10.278   5.571  0.00  0.00    +0.129 C 
ENDBRANCH  28  29
ENDBRANCH  26  28
ENDBRANCH   5  24
TORSDOF 6
