REMARK  Name = ZINC38577424
REMARK  6 active torsions:
REMARK  status: ('A' for Active; 'I' for Inactive)
REMARK    1  A    between atoms: C_4  and  C_7
REMARK    2  A    between atoms: C_7  and  C_9
REMARK    3  A    between atoms: C_11  and  N_20
REMARK    4  A    between atoms: C_21  and  C_23
REMARK    5  A    between atoms: C_26  and  C_28
REMARK    6  A    between atoms: C_33  and  O_34
REMARK                            x       y       z     vdW  Elec       q    Type
REMARK                         _______ _______ _______ _____ _____    ______ ____
ROOT
ATOM      1  N   UNL     1       2.800  -1.764  -2.314  0.00  0.00    -0.299 N 
ATOM      2  C   UNL     1       2.097  -2.189  -3.383  0.00  0.00    +0.261 C 
ATOM      3  O   UNL     1       2.062  -3.374  -3.656  0.00  0.00    -0.269 OA
ATOM      4  H   UNL     1       2.828  -0.820  -2.096  0.00  0.00    +0.150 HD
ENDROOT
BRANCH   1   6
ATOM      5  C   UNL     1       3.716  -2.186  -0.046  0.00  0.00    +0.268 C 
ATOM      6  C   UNL     1       3.522  -2.730  -1.482  0.00  0.00    +0.155 C 
ATOM      7  C   UNL     1       4.955  -2.888  -1.953  0.00  0.00    +0.018 A 
ATOM      8  C   UNL     1       5.502  -3.063  -3.205  0.00  0.00    +0.009 A 
ATOM      9  C   UNL     1       6.874  -3.175  -3.350  0.00  0.00    +0.001 A 
ATOM     10  C   UNL     1       7.690  -3.110  -2.236  0.00  0.00    +0.004 A 
ATOM     11  C   UNL     1       7.143  -2.938  -0.981  0.00  0.00    +0.046 A 
ATOM     12  C   UNL     1       5.763  -2.829  -0.826  0.00  0.00    +0.127 A 
ATOM     13  O   UNL     1       5.020  -2.676   0.310  0.00  0.00    -0.478 OA
BRANCH   5  14
ATOM     14  C   UNL     1       3.691  -0.679  -0.038  0.00  0.00    +0.205 C 
ATOM     15  O   UNL     1       4.731  -0.056  -0.045  0.00  0.00    -0.288 OA
BRANCH  14  19
ATOM     16  C   UNL     1      -0.017   1.380   0.010  0.00  0.00    +0.000 A 
ATOM     17  C   UNL     1       1.168   2.095   0.002  0.00  0.00    +0.001 A 
ATOM     18  C   UNL     1       2.377   1.433  -0.013  0.00  0.00    +0.011 A 
ATOM     19  C   UNL     1       2.405   0.035  -0.021  0.00  0.00    +0.021 A 
ATOM     20  C   UNL     1       1.203  -0.681  -0.013  0.00  0.00    +0.011 A 
ATOM     21  C   UNL     1       0.002  -0.004   0.002  0.00  0.00    +0.001 A 
ENDBRANCH  14  19
ENDBRANCH   5  14
ENDBRANCH   1   6
BRANCH   2  22
ATOM     22  C   UNL     1       1.374  -1.223  -4.215  0.00  0.00    +0.131 C 
ATOM     23  N   UNL     1       1.316   0.074  -4.061  0.00  0.00    -0.148 NA
ATOM     24  N   UNL     1       0.611   0.678  -4.936  0.00  0.00    -0.153 NA
ATOM     25  C   UNL     1       0.071  -0.115  -5.834  0.00  0.00    +0.080 C 
ATOM     26  C   UNL     1       0.535  -1.510  -5.449  0.00  0.00    +0.120 C 
BRANCH  25  27
ATOM     27  C   UNL     1      -0.785   0.263  -6.960  0.00  0.00    +0.041 A 
ATOM     28  C   UNL     1      -1.286  -0.719  -7.826  0.00  0.00    +0.033 A 
ATOM     29  C   UNL     1      -2.091  -0.354  -8.883  0.00  0.00    +0.042 A 
ATOM     30  C   UNL     1      -2.408   0.980  -9.094  0.00  0.00    +0.023 A 
ATOM     31  C   UNL     1      -1.922   1.958  -8.249  0.00  0.00    +0.047 A 
ATOM     32  C   UNL     1      -1.116   1.613  -7.176  0.00  0.00    +0.126 A 
ATOM     33 CL   UNL     1      -2.712  -1.570  -9.956  0.00  0.00    -0.084 Cl
BRANCH  32  34
ATOM     34  O   UNL     1      -0.643   2.573  -6.343  0.00  0.00    -0.506 OA
ATOM     35  H   UNL     1       0.208   2.944  -6.613  0.00  0.00    +0.292 HD
ENDBRANCH  32  34
ENDBRANCH  25  27
ENDBRANCH   2  22
TORSDOF 6
