REMARK  Name = ZINC10002411
REMARK  8 active torsions:
REMARK  status: ('A' for Active; 'I' for Inactive)
REMARK    1  A    between atoms: C_3  and  C_8
REMARK    2  A    between atoms: C_8  and  O_9
REMARK    3  A    between atoms: O_9  and  C_10
REMARK    4  A    between atoms: C_15  and  C_16
REMARK    5  A    between atoms: N_17  and  N_18
REMARK    6  A    between atoms: C_19  and  C_21
REMARK    7  A    between atoms: C_21  and  N_22
REMARK    8  A    between atoms: C_23  and  C_25
REMARK                            x       y       z     vdW  Elec       q    Type
REMARK                         _______ _______ _______ _____ _____    ______ ____
ROOT
ATOM      1  C   UNL     1       9.538  -5.292   5.515  0.00  0.00    +0.142 C 
ATOM      2  N   UNL     1       8.410  -4.971   4.958  0.00  0.00    -0.188 NA
ENDROOT
BRANCH   1   8
ATOM      3  C   UNL     1       8.724  -7.614   5.915  0.00  0.00    +0.130 A 
ATOM      4  C   UNL     1       8.930  -8.898   6.393  0.00  0.00    +0.048 A 
ATOM      5  C   UNL     1      10.134  -9.233   6.984  0.00  0.00    +0.023 A 
ATOM      6  C   UNL     1      11.143  -8.291   7.100  0.00  0.00    +0.042 A 
ATOM      7  C   UNL     1      10.956  -7.009   6.625  0.00  0.00    +0.033 A 
ATOM      8  C   UNL     1       9.745  -6.660   6.025  0.00  0.00    +0.038 A 
ATOM      9 CL   UNL     1      12.650  -8.726   7.846  0.00  0.00    -0.084 Cl
BRANCH   3  10
ATOM     10  O   UNL     1       7.540  -7.283   5.338  0.00  0.00    -0.487 OA
BRANCH  10  11
ATOM     11  C   UNL     1       6.547  -8.308   5.261  0.00  0.00    +0.264 C 
BRANCH  11  14
ATOM     12  C   UNL     1       4.036  -7.342   2.613  0.00  0.00    +0.002 A 
ATOM     13  C   UNL     1       5.170  -7.843   3.224  0.00  0.00    +0.007 A 
ATOM     14  C   UNL     1       5.311  -7.761   4.596  0.00  0.00    -0.009 A 
ATOM     15  C   UNL     1       4.314  -7.181   5.359  0.00  0.00    +0.027 A 
ATOM     16  C   UNL     1       3.181  -6.675   4.748  0.00  0.00    +0.041 A 
ATOM     17  C   UNL     1       3.042  -6.758   3.374  0.00  0.00    +0.020 A 
ATOM     18 CL   UNL     1       1.933  -5.941   5.705  0.00  0.00    -0.084 Cl
ENDBRANCH  11  14
ENDBRANCH  10  11
ENDBRANCH   3  10
ENDBRANCH   1   8
BRANCH   2  19
ATOM     19  N   UNL     1       8.214  -3.671   4.473  0.00  0.00    -0.206 N 
ATOM     20  C   UNL     1       7.043  -3.338   3.894  0.00  0.00    +0.249 C 
ATOM     21  O   UNL     1       6.159  -4.163   3.793  0.00  0.00    -0.272 OA
ATOM     22  H   UNL     1       8.920  -3.012   4.554  0.00  0.00    +0.177 HD
BRANCH  20  23
ATOM     23  C   UNL     1       6.831  -1.940   3.373  0.00  0.00    +0.202 C 
BRANCH  23  24
ATOM     24  N   UNL     1       5.489  -1.832   2.796  0.00  0.00    -0.303 N 
ATOM     25  C   UNL     1       5.076  -0.664   2.264  0.00  0.00    +0.245 C 
ATOM     26  O   UNL     1       5.818   0.300   2.264  0.00  0.00    -0.270 OA
ATOM     27  H   UNL     1       4.898  -2.601   2.795  0.00  0.00    +0.150 HD
BRANCH  25  28
ATOM     28  C   UNL     1       3.724  -0.555   1.682  0.00  0.00    +0.040 A 
ATOM     29  C   UNL     1       2.871  -1.662   1.681  0.00  0.00    +0.017 A 
ATOM     30  C   UNL     1       1.609  -1.558   1.138  0.00  0.00    +0.050 A 
ATOM     31  C   UNL     1       1.181  -0.356   0.590  0.00  0.00    +0.166 A 
ATOM     32  C   UNL     1       2.028   0.752   0.588  0.00  0.00    +0.167 A 
ATOM     33  C   UNL     1       3.294   0.654   1.131  0.00  0.00    +0.062 A 
ATOM     34  O   UNL     1       1.376   1.797  -0.001  0.00  0.00    -0.453 OA
ATOM     35  C   UNL     1      -0.017   1.435   0.010  0.00  0.00    +0.466 C 
ATOM     36  O   UNL     1       0.002  -0.004   0.002  0.00  0.00    -0.453 OA
ENDBRANCH  25  28
ENDBRANCH  23  24
ENDBRANCH  20  23
ENDBRANCH   2  19
TORSDOF 8
