REMARK  Name = ZINC17089658
REMARK  5 active torsions:
REMARK  status: ('A' for Active; 'I' for Inactive)
REMARK    1  A    between atoms: C_1  and  C_2
REMARK    2  A    between atoms: C_2  and  C_3
REMARK    3  A    between atoms: C_5  and  C_8
REMARK    4  A    between atoms: N_10  and  N_11
REMARK    5  A    between atoms: C_16  and  C_23
REMARK                            x       y       z     vdW  Elec       q    Type
REMARK                         _______ _______ _______ _____ _____    ______ ____
ROOT
ATOM      1  N   UNL     1      -3.067   8.581   0.038  0.00  0.00    -0.200 N 
ATOM      2  C   UNL     1      -3.871   9.233   0.896  0.00  0.00    +0.280 A 
ATOM      3  O   UNL     1      -3.810   9.004   2.091  0.00  0.00    -0.265 OA
ATOM      4  C   UNL     1      -4.831  10.232   0.373  0.00  0.00    +0.072 A 
ATOM      5  C   UNL     1      -5.757  11.021   1.080  0.00  0.00    +0.031 A 
ATOM      6  C   UNL     1      -6.544  11.878   0.382  0.00  0.00    +0.022 A 
ATOM      7  S   UNL     1      -6.019  11.612  -1.301  0.00  0.00    -0.070 S 
ATOM      8  C   UNL     1      -4.814  10.413  -1.015  0.00  0.00    +0.093 A 
ATOM      9  N   UNL     1      -3.962   9.706  -1.815  0.00  0.00    -0.328 N 
ATOM     10  H   UNL     1      -3.972   9.863  -2.904  0.00  0.00    +0.168 HD
ATOM     11  C   UNL     1      -3.105   8.813  -1.284  0.00  0.00    +0.179 A 
ATOM     12  S   UNL     1      -2.046   7.950  -2.317  0.00  0.00    -0.011 S 
ENDROOT
BRANCH   6  13
ATOM     13  C   UNL     1      -7.579  12.802   0.891  0.00  0.00    -0.011 A 
ATOM     14  C   UNL     1      -7.853  12.864   2.258  0.00  0.00    +0.009 A 
ATOM     15  C   UNL     1      -8.817  13.733   2.727  0.00  0.00    +0.001 A 
ATOM     16  C   UNL     1      -9.519  14.534   1.844  0.00  0.00    +0.000 A 
ATOM     17  C   UNL     1      -9.257  14.473   0.487  0.00  0.00    +0.001 A 
ATOM     18  C   UNL     1      -8.291  13.613   0.005  0.00  0.00    +0.009 A 
ENDBRANCH   6  13
BRANCH   1  21
ATOM     19  C   UNL     1      -2.404   6.321   0.383  0.00  0.00    +0.263 C 
ATOM     20  O   UNL     1      -3.411   5.952  -0.191  0.00  0.00    -0.268 OA
ATOM     21  N   UNL     1      -2.160   7.638   0.538  0.00  0.00    -0.214 N 
ATOM     22  H   UNL     1      -1.249   7.971   1.056  0.00  0.00    +0.176 HD
BRANCH  19  25
ATOM     23  C   UNL     1      -0.749   3.086   1.275  0.00  0.00    -0.010 A 
ATOM     24  C   UNL     1      -1.677   3.914   0.756  0.00  0.00    +0.024 A 
ATOM     25  C   UNL     1      -1.451   5.330   0.908  0.00  0.00    +0.046 A 
ATOM     26  C   UNL     1      -0.299   5.714   1.563  0.00  0.00    +0.058 A 
ATOM     27  S   UNL     1       0.451   4.206   1.967  0.00  0.00    -0.101 S 
BRANCH  23  29
ATOM     28  C   UNL     1      -0.013   1.086   0.008  0.00  0.00    +0.009 C 
ATOM     29  C   UNL     1      -0.729   1.579   1.267  0.00  0.00    +0.039 C 
ENDBRANCH  23  29
ENDBRANCH  19  25
ENDBRANCH   1  21
TORSDOF 4
