REMARK  Name = ZINC38657517
REMARK  11 active torsions:
REMARK  status: ('A' for Active; 'I' for Inactive)
REMARK    1  A    between atoms: C_1  and  C_2
REMARK    2  A    between atoms: C_2  and  C_3
REMARK    3  A    between atoms: C_3  and  C_4
REMARK    4  A    between atoms: C_4  and  O_5
REMARK    5  A    between atoms: O_5  and  C_6
REMARK    6  A    between atoms: C_10  and  C_12
REMARK    7  A    between atoms: C_12  and  O_14
REMARK    8  A    between atoms: O_14  and  C_15
REMARK    9  A    between atoms: C_22  and  N_33
REMARK   10  A    between atoms: C_23  and  C_31
REMARK   11  A    between atoms: C_24  and  C_26
REMARK                            x       y       z     vdW  Elec       q    Type
REMARK                         _______ _______ _______ _____ _____    ______ ____
ROOT
ATOM      1  C   UNL     1       3.634  -8.180  -6.310  0.00  0.00    +0.135 A 
ATOM      2  C   UNL     1       4.225  -7.373  -7.273  0.00  0.00    +0.047 A 
ATOM      3  C   UNL     1       4.823  -7.943  -8.379  0.00  0.00    +0.012 A 
ATOM      4  C   UNL     1       4.836  -9.318  -8.534  0.00  0.00    +0.011 A 
ATOM      5  C   UNL     1       4.248 -10.129  -7.576  0.00  0.00    +0.138 A 
ATOM      6  C   UNL     1       3.651  -9.557  -6.459  0.00  0.00    +0.093 A 
ATOM      7  O   UNL     1       4.251 -11.478  -7.710  0.00  0.00    -0.441 OA
ATOM      8  C   UNL     1       5.129 -12.068  -8.537  0.00  0.00    +0.199 C 
ATOM      9  C   UNL     1       5.754 -11.383  -9.525  0.00  0.00    +0.101 C 
ATOM     10  C   UNL     1       5.493  -9.920  -9.747  0.00  0.00    +0.134 C 
ENDROOT
BRANCH  10  11
ATOM     11  C   UNL     1       6.798  -9.215 -10.010  0.00  0.00    +0.117 A 
ATOM     12  C   UNL     1       7.117  -8.540 -11.129  0.00  0.00    +0.045 A 
ATOM     13  C   UNL     1       8.428  -8.043 -10.949  0.00  0.00    +0.041 A 
ATOM     14  C   UNL     1       8.833  -8.444  -9.731  0.00  0.00    +0.195 A 
ATOM     15  O   UNL     1       7.840  -9.148  -9.164  0.00  0.00    -0.467 OA
ENDBRANCH  10  11
BRANCH   8  16
ATOM     16  N   UNL     1       5.402 -13.403  -8.377  0.00  0.00    -0.328 N 
ATOM     17  H   UNL     1       4.963 -13.907  -7.674  0.00  0.00    +0.145 HD
ATOM     18  H   UNL     1       6.035 -13.843  -8.967  0.00  0.00    +0.145 HD
ENDBRANCH   8  16
BRANCH   9  19
ATOM     19  C   UNL     1       6.681 -12.068 -10.375  0.00  0.00    +0.101 C 
ATOM     20  N   UNL     1       7.417 -12.611 -11.049  0.00  0.00    -0.191 NA
ENDBRANCH   9  19
BRANCH   1  21
ATOM     21  O   UNL     1       3.046  -7.621  -5.221  0.00  0.00    -0.422 OA
BRANCH  21  22
ATOM     22  C   UNL     1       1.828  -7.065  -5.375  0.00  0.00    +0.345 C 
ATOM     23  O   UNL     1       1.328  -6.995  -6.480  0.00  0.00    -0.245 OA
BRANCH  22  28
ATOM     24  C   UNL     1      -0.837  -5.478  -3.252  0.00  0.00    +0.121 A 
ATOM     25  C   UNL     1      -0.260  -5.562  -1.992  0.00  0.00    +0.046 A 
ATOM     26  C   UNL     1       0.990  -6.132  -1.835  0.00  0.00    +0.004 A 
ATOM     27  C   UNL     1       1.672  -6.622  -2.929  0.00  0.00    +0.015 A 
ATOM     28  C   UNL     1       1.100  -6.542  -4.200  0.00  0.00    +0.063 A 
ATOM     29  C   UNL     1      -0.164  -5.971  -4.357  0.00  0.00    +0.060 A 
BRANCH  24  30
ATOM     30  O   UNL     1      -2.066  -4.916  -3.400  0.00  0.00    -0.492 OA
BRANCH  30  31
ATOM     31  C   UNL     1      -2.703  -4.428  -2.218  0.00  0.00    +0.229 C 
BRANCH  31  32
ATOM     32  C   UNL     1      -4.066  -3.836  -2.581  0.00  0.00    +0.041 C 
BRANCH  32  34
ATOM     33  C   UNL     1      -6.111  -2.720  -1.678  0.00  0.00    +0.004 C 
ATOM     34  C   UNL     1      -4.748  -3.313  -1.315  0.00  0.00    -0.000 C 
ENDBRANCH  32  34
ENDBRANCH  31  32
ENDBRANCH  30  31
ENDBRANCH  24  30
ENDBRANCH  22  28
ENDBRANCH  21  22
ENDBRANCH   1  21
TORSDOF 10
