REMARK  Name = ZINC39844855
REMARK  5 active torsions:
REMARK  status: ('A' for Active; 'I' for Inactive)
REMARK    1  A    between atoms: C_6  and  C_7
REMARK    2  A    between atoms: C_9  and  S_21
REMARK    3  A    between atoms: C_10  and  N_12
REMARK    4  A    between atoms: C_15  and  C_18
REMARK    5  A    between atoms: S_21  and  C_24
REMARK                            x       y       z     vdW  Elec       q    Type
REMARK                         _______ _______ _______ _____ _____    ______ ____
ROOT
ATOM      1  C   UNL     1      -1.299  -0.711   0.042  0.00  0.00    +0.231 A 
ATOM      2  N   UNL     1      -2.526  -0.256  -0.045  0.00  0.00    -0.188 NA
ATOM      3  C   UNL     1      -3.373  -1.298  -0.049  0.00  0.00    +0.243 A 
ATOM      4  C   UNL     1      -2.634  -2.430   0.040  0.00  0.00    +0.236 A 
ATOM      5  O   UNL     1      -1.339  -2.057   0.090  0.00  0.00    -0.420 OA
ENDROOT
BRANCH   1  11
ATOM      6  C   UNL     1      -0.168   1.508   0.019  0.00  0.00    +0.016 A 
ATOM      7  C   UNL     1       0.977   2.275   0.051  0.00  0.00    +0.039 A 
ATOM      8  C   UNL     1       2.219   1.666   0.140  0.00  0.00    +0.123 A 
ATOM      9  C   UNL     1       2.317   0.284   0.197  0.00  0.00    +0.039 A 
ATOM     10  C   UNL     1       1.178  -0.492   0.166  0.00  0.00    +0.016 A 
ATOM     11  C   UNL     1      -0.076   0.116   0.076  0.00  0.00    +0.037 A 
ATOM     12  F   UNL     1       3.339   2.422   0.171  0.00  0.00    -0.205 F 
ENDBRANCH   1  11
BRANCH   4  13
ATOM     13  N   UNL     1      -3.119  -3.733   0.067  0.00  0.00    -0.298 N 
ATOM     14  C   UNL     1      -3.482  -4.370   1.340  0.00  0.00    +0.109 C 
ATOM     15  C   UNL     1      -2.737  -5.704   1.454  0.00  0.00    +0.032 C 
ATOM     16  C   UNL     1      -3.034  -6.556   0.217  0.00  0.00    +0.078 C 
ATOM     17  C   UNL     1      -2.538  -5.831  -1.035  0.00  0.00    +0.032 C 
ATOM     18  C   UNL     1      -3.285  -4.497  -1.177  0.00  0.00    +0.109 C 
BRANCH  16  19
ATOM     19  C   UNL     1      -2.331  -7.883   0.341  0.00  0.00    +0.214 C 
ATOM     20  O   UNL     1      -1.658  -8.124   1.321  0.00  0.00    -0.276 OA
ATOM     21  N   UNL     1      -2.449  -8.803  -0.637  0.00  0.00    -0.329 N 
ATOM     22  H   UNL     1      -2.987  -8.610  -1.421  0.00  0.00    +0.145 HD
ATOM     23  H   UNL     1      -1.996  -9.657  -0.557  0.00  0.00    +0.145 HD
ENDBRANCH  16  19
ENDBRANCH   4  13
BRANCH   3  24
ATOM     24  S   UNL     1      -5.129  -1.208  -0.151  0.00  0.00    +0.047 S 
ATOM     25  O   UNL     1      -5.626  -2.465   0.289  0.00  0.00    -0.163 OA
ATOM     26  O   UNL     1      -5.510   0.017   0.460  0.00  0.00    -0.163 OA
BRANCH  24  27
ATOM     27  C   UNL     1      -5.546  -1.071  -1.857  0.00  0.00    +0.096 A 
ATOM     28  C   UNL     1      -5.648   0.175  -2.446  0.00  0.00    +0.029 A 
ATOM     29  C   UNL     1      -5.975   0.283  -3.784  0.00  0.00    +0.022 A 
ATOM     30  C   UNL     1      -6.200  -0.856  -4.535  0.00  0.00    +0.041 A 
ATOM     31  C   UNL     1      -6.097  -2.104  -3.946  0.00  0.00    +0.022 A 
ATOM     32  C   UNL     1      -5.765  -2.211  -2.609  0.00  0.00    +0.029 A 
ATOM     33 CL   UNL     1      -6.611  -0.721  -6.217  0.00  0.00    -0.084 Cl
ENDBRANCH  24  27
ENDBRANCH   3  24
TORSDOF 5
