REMARK  Name = ZINC39607045
REMARK  7 active torsions:
REMARK  status: ('A' for Active; 'I' for Inactive)
REMARK    1  A    between atoms: C_1  and  C_2
REMARK    2  A    between atoms: C_5  and  C_9
REMARK    3  A    between atoms: C_6  and  C_8
REMARK    4  A    between atoms: C_9  and  N_10
REMARK    5  A    between atoms: C_11  and  C_13
REMARK    6  A    between atoms: C_24  and  C_26
REMARK    7  A    between atoms: C_30  and  C_32
REMARK                            x       y       z     vdW  Elec       q    Type
REMARK                         _______ _______ _______ _____ _____    ______ ____
ROOT
ATOM      1  C   UNL     1      -2.435  -6.644   1.028  0.00  0.00    +0.100 C 
ATOM      2  C   UNL     1      -3.200  -6.267   2.317  0.00  0.00    +0.121 C 
ATOM      3  N   UNL     1      -3.993  -7.475   2.647  0.00  0.00    -0.296 N 
ATOM      4  C   UNL     1      -3.086  -8.607   2.339  0.00  0.00    +0.115 C 
ATOM      5  C   UNL     1      -2.361  -8.180   1.047  0.00  0.00    -0.004 C 
ATOM      6  C   UNL     1      -0.907  -8.639   1.083  0.00  0.00    -0.010 C 
ATOM      7  C   UNL     1      -0.858 -10.169   1.042  0.00  0.00    -0.082 C 
ATOM      8  N   UNL     1      -1.514 -10.649  -0.181  0.00  0.00    +0.379 N 
ATOM      9  C   UNL     1      -2.935 -10.283  -0.163  0.00  0.00    -0.082 C 
ATOM     10  C   UNL     1      -3.072  -8.758  -0.173  0.00  0.00    -0.010 C 
ATOM     11  C   UNL     1      -5.253  -7.532   3.121  0.00  0.00    +0.247 C 
ATOM     12  O   UNL     1      -5.918  -6.517   3.203  0.00  0.00    -0.270 OA
ATOM     13  H   UNL     1      -1.070 -10.231  -0.985  0.00  0.00    -0.086 HD
ATOM     14  H   UNL     1      -1.427 -11.652  -0.236  0.00  0.00    -0.086 HD
ENDROOT
BRANCH  11  15
ATOM     15  C   UNL     1      -5.827  -8.827   3.542  0.00  0.00    +0.037 A 
ATOM     16  C   UNL     1      -4.987  -9.895   3.864  0.00  0.00    +0.014 A 
ATOM     17  C   UNL     1      -5.528 -11.101   4.255  0.00  0.00    +0.016 A 
ATOM     18  C   UNL     1      -6.902 -11.255   4.329  0.00  0.00    +0.021 A 
ATOM     19  C   UNL     1      -7.741 -10.200   4.011  0.00  0.00    -0.036 A 
ATOM     20  C   UNL     1      -7.211  -8.987   3.624  0.00  0.00    +0.017 A 
ATOM     21  C   UNL     1      -9.235 -10.376   4.094  0.00  0.00    +0.045 C 
ATOM     22 BR   UNL     1      -7.636 -12.913   4.866  0.00  0.00    -0.050 Br
ENDBRANCH  11  15
BRANCH   1  24
ATOM     23  N   UNL     1      -0.442  -5.715  -0.106  0.00  0.00    -0.311 N 
ATOM     24  C   UNL     1      -1.049  -6.052   1.050  0.00  0.00    +0.218 C 
ATOM     25  O   UNL     1      -0.480  -5.878   2.106  0.00  0.00    -0.275 OA
ATOM     26  H   UNL     1      -0.897  -5.854  -0.951  0.00  0.00    +0.149 HD
BRANCH  23  27
ATOM     27  C   UNL     1       0.905  -5.140  -0.085  0.00  0.00    +0.139 C 
BRANCH  27  32
ATOM     28  C   UNL     1       2.614  -4.050  -5.497  0.00  0.00    +0.044 C 
ATOM     29  C   UNL     1       2.168  -4.334  -4.085  0.00  0.00    -0.050 A 
ATOM     30  C   UNL     1       2.609  -5.473  -3.437  0.00  0.00    +0.004 A 
ATOM     31  C   UNL     1       2.200  -5.734  -2.143  0.00  0.00    +0.006 A 
ATOM     32  C   UNL     1       1.351  -4.855  -1.496  0.00  0.00    -0.027 A 
ATOM     33  C   UNL     1       0.912  -3.716  -2.143  0.00  0.00    -0.046 A 
ATOM     34  C   UNL     1       1.324  -3.453  -3.437  0.00  0.00    +0.007 A 
ATOM     35  C   UNL     1      -0.014  -2.759  -1.438  0.00  0.00    +0.044 C 
ENDBRANCH  27  32
ENDBRANCH  23  27
ENDBRANCH   1  24
TORSDOF 4
