REMARK  Name = ZINC04808446
REMARK  3 active torsions:
REMARK  status: ('A' for Active; 'I' for Inactive)
REMARK    1  A    between atoms: C_14  and  N_15
REMARK    2  A    between atoms: N_15  and  N_16
REMARK    3  A    between atoms: C_17  and  C_18
REMARK                            x       y       z     vdW  Elec       q    Type
REMARK                         _______ _______ _______ _____ _____    ______ ____
ROOT
ATOM      1  C   UNL     1      -9.899   1.366   0.051  0.00  0.00    +0.001 A 
ATOM      2  C   UNL     1      -8.871   0.432   0.043  0.00  0.00    +0.001 A 
ATOM      3  C   UNL     1      -7.562   0.826   0.039  0.00  0.00    +0.012 A 
ATOM      4  C   UNL     1      -7.254   2.188   0.045  0.00  0.00    +0.024 A 
ATOM      5  C   UNL     1      -8.302   3.137   0.054  0.00  0.00    -0.005 A 
ATOM      6  C   UNL     1      -9.626   2.706   0.057  0.00  0.00    +0.009 A 
ATOM      7  C   UNL     1      -7.935   4.558   0.059  0.00  0.00    +0.008 A 
ATOM      8  C   UNL     1      -8.907   5.558   0.067  0.00  0.00    +0.010 A 
ATOM      9  C   UNL     1      -8.530   6.872   0.071  0.00  0.00    +0.001 A 
ATOM     10  C   UNL     1      -7.185   7.220   0.067  0.00  0.00    +0.002 A 
ATOM     11  C   UNL     1      -6.213   6.264   0.059  0.00  0.00    +0.028 A 
ATOM     12  C   UNL     1      -6.565   4.905   0.055  0.00  0.00    +0.074 A 
ATOM     13  N   UNL     1      -5.612   3.959   0.051  0.00  0.00    -0.230 NA
ATOM     14  C   UNL     1      -5.873   2.672   0.041  0.00  0.00    +0.146 A 
ENDROOT
BRANCH  14  15
ATOM     15  N   UNL     1      -4.832   1.765   0.032  0.00  0.00    -0.220 N 
ATOM     16  H   UNL     1      -5.019   0.814   0.029  0.00  0.00    +0.176 HD
BRANCH  15  17
ATOM     17  N   UNL     1      -3.507   2.220   0.029  0.00  0.00    -0.189 NA
ATOM     18  C   UNL     1      -2.528   1.366   0.021  0.00  0.00    +0.140 C 
BRANCH  18  19
ATOM     19  C   UNL     1      -1.135   1.844   0.017  0.00  0.00    +0.020 A 
ATOM     20  C   UNL     1      -0.013   1.076   0.008  0.00  0.00    +0.093 A 
ATOM     21  N   UNL     1       1.092   1.876   0.002  0.00  0.00    -0.360 N 
ATOM     22  H   UNL     1       2.008   1.557  -0.009  0.00  0.00    +0.165 HD
ATOM     23  C   UNL     1       0.719   3.204   0.012  0.00  0.00    +0.047 A 
ATOM     24  C   UNL     1      -0.685   3.247   0.025  0.00  0.00    +0.008 A 
ATOM     25  C   UNL     1      -1.345   4.473   0.037  0.00  0.00    +0.010 A 
ATOM     26  C   UNL     1      -0.615   5.641   0.036  0.00  0.00    +0.001 A 
ATOM     27  C   UNL     1       0.772   5.600   0.023  0.00  0.00    +0.002 A 
ATOM     28  C   UNL     1       1.439   4.394   0.011  0.00  0.00    +0.026 A 
ENDBRANCH  18  19
ENDBRANCH  15  17
ENDBRANCH  14  15
TORSDOF 3
