REMARK  Name = ZINC01624782
REMARK  4 active torsions:
REMARK  status: ('A' for Active; 'I' for Inactive)
REMARK    1  A    between atoms: C_1  and  C_2
REMARK    2  A    between atoms: C_3  and  C_12
REMARK    3  A    between atoms: C_22  and  C_24
REMARK    4  A    between atoms: C_25  and  C_26
REMARK                            x       y       z     vdW  Elec       q    Type
REMARK                         _______ _______ _______ _____ _____    ______ ____
ROOT
ATOM      1  C   UNL     1       2.672   4.412   0.553  0.00  0.00    +0.118 C 
ATOM      2  C   UNL     1       2.257   5.888   0.438  0.00  0.00    +0.064 C 
ATOM      3  C   UNL     1       0.780   5.844   0.114  0.00  0.00    -0.024 A 
ATOM      4  C   UNL     1      -0.132   6.860  -0.098  0.00  0.00    +0.005 A 
ATOM      5  C   UNL     1      -1.450   6.561  -0.384  0.00  0.00    +0.000 A 
ATOM      6  C   UNL     1      -1.856   5.241  -0.457  0.00  0.00    +0.002 A 
ATOM      7  C   UNL     1      -0.950   4.223  -0.247  0.00  0.00    +0.024 A 
ATOM      8  C   UNL     1       0.384   4.518   0.043  0.00  0.00    +0.041 A 
ATOM      9  N   UNL     1       1.450   3.648   0.288  0.00  0.00    -0.259 N 
ATOM     10  C   UNL     1       1.365   2.303   0.286  0.00  0.00    +0.263 C 
ATOM     11  O   UNL     1       0.281   1.762   0.170  0.00  0.00    -0.269 OA
ENDROOT
BRANCH   1  14
ATOM     12  C   UNL     1       0.931   3.870   3.066  0.00  0.00    +0.063 C 
ATOM     13  C   UNL     1       2.438   3.881   3.032  0.00  0.00    +0.019 A 
ATOM     14  C   UNL     1       3.182   4.116   1.940  0.00  0.00    +0.002 A 
ATOM     15  C   UNL     1       4.586   4.025   2.350  0.00  0.00    +0.005 A 
ATOM     16  C   UNL     1       5.803   4.163   1.681  0.00  0.00    +0.010 A 
ATOM     17  C   UNL     1       6.975   4.013   2.368  0.00  0.00    +0.001 A 
ATOM     18  C   UNL     1       6.965   3.724   3.726  0.00  0.00    +0.002 A 
ATOM     19  C   UNL     1       5.775   3.591   4.407  0.00  0.00    +0.026 A 
ATOM     20  C   UNL     1       4.570   3.735   3.727  0.00  0.00    +0.047 A 
ATOM     21  N   UNL     1       3.250   3.651   4.109  0.00  0.00    -0.358 N 
ATOM     22  H   UNL     1       2.941   3.458   5.008  0.00  0.00    +0.166 HD
ENDBRANCH   1  14
BRANCH  10  23
ATOM     23  C   UNL     1       2.578   1.492   0.424  0.00  0.00    +0.104 C 
ATOM     24  C   UNL     1       2.482   0.157   0.587  0.00  0.00    +0.033 C 
ATOM     25 CL   UNL     1       4.138   2.252   0.385  0.00  0.00    -0.078 Cl
BRANCH  24  26
ATOM     26  C   UNL     1       3.691  -0.681   0.530  0.00  0.00    -0.023 A 
ATOM     27  C   UNL     1       4.721  -0.368  -0.362  0.00  0.00    +0.008 A 
ATOM     28  C   UNL     1       5.852  -1.155  -0.406  0.00  0.00    +0.001 A 
ATOM     29  C   UNL     1       5.966  -2.257   0.423  0.00  0.00    +0.000 A 
ATOM     30  C   UNL     1       4.948  -2.576   1.305  0.00  0.00    +0.001 A 
ATOM     31  C   UNL     1       3.813  -1.796   1.364  0.00  0.00    +0.008 A 
ENDBRANCH  24  26
ENDBRANCH  10  23
TORSDOF 3
