REMARK  Name = ZINC39668905
REMARK  5 active torsions:
REMARK  status: ('A' for Active; 'I' for Inactive)
REMARK    1  A    between atoms: C_10  and  C_12
REMARK    2  A    between atoms: C_12  and  N_13
REMARK    3  A    between atoms: C_14  and  C_16
REMARK    4  A    between atoms: C_27  and  C_29
REMARK    5  A    between atoms: C_34  and  C_35
REMARK                            x       y       z     vdW  Elec       q    Type
REMARK                         _______ _______ _______ _____ _____    ______ ____
ROOT
ATOM      1  C   UNL     1       8.516  -1.501  -2.222  0.00  0.00    +0.100 C 
ATOM      2  C   UNL     1       9.036  -1.142  -0.812  0.00  0.00    +0.121 C 
ATOM      3  N   UNL     1      10.458  -0.779  -1.018  0.00  0.00    -0.296 N 
ATOM      4  C   UNL     1      10.463  -0.018  -2.291  0.00  0.00    +0.115 C 
ATOM      5  C   UNL     1       9.455  -0.761  -3.189  0.00  0.00    -0.004 C 
ATOM      6  C   UNL     1       8.666   0.237  -4.032  0.00  0.00    -0.010 C 
ATOM      7  C   UNL     1       9.611   0.917  -5.027  0.00  0.00    -0.082 C 
ATOM      8  N   UNL     1      10.232  -0.097  -5.887  0.00  0.00    +0.379 N 
ATOM      9  C   UNL     1      11.065  -0.997  -5.079  0.00  0.00    -0.082 C 
ATOM     10  C   UNL     1      10.181  -1.758  -4.087  0.00  0.00    -0.010 C 
ATOM     11  C   UNL     1      11.509  -1.076  -0.228  0.00  0.00    +0.247 C 
ATOM     12  O   UNL     1      12.607  -0.620  -0.481  0.00  0.00    -0.270 OA
ATOM     13  H   UNL     1       9.512  -0.631  -6.349  0.00  0.00    -0.086 HD
ATOM     14  H   UNL     1      10.807   0.359  -6.580  0.00  0.00    -0.086 HD
ENDROOT
BRANCH  11  15
ATOM     15  C   UNL     1      11.326  -1.955   0.946  0.00  0.00    +0.049 A 
ATOM     16  C   UNL     1      10.155  -1.880   1.703  0.00  0.00    +0.013 A 
ATOM     17  C   UNL     1       9.991  -2.703   2.797  0.00  0.00    +0.001 A 
ATOM     18  C   UNL     1      10.983  -3.602   3.146  0.00  0.00    +0.001 A 
ATOM     19  C   UNL     1      12.146  -3.681   2.401  0.00  0.00    +0.013 A 
ATOM     20  C   UNL     1      12.321  -2.867   1.301  0.00  0.00    +0.067 A 
BRANCH  20  21
ATOM     21  C   UNL     1      13.586  -2.958   0.487  0.00  0.00    +0.418 C 
ATOM     22  F   UNL     1      14.423  -3.937   1.034  0.00  0.00    -0.166 F 
ATOM     23  F   UNL     1      13.268  -3.301  -0.832  0.00  0.00    -0.166 F 
ATOM     24  F   UNL     1      14.241  -1.722   0.502  0.00  0.00    -0.166 F 
ENDBRANCH  20  21
ENDBRANCH  11  15
BRANCH   1  26
ATOM     25  N   UNL     1       6.261  -1.676  -3.224  0.00  0.00    -0.312 N 
ATOM     26  C   UNL     1       7.098  -1.020  -2.396  0.00  0.00    +0.218 C 
ATOM     27  O   UNL     1       6.710  -0.043  -1.792  0.00  0.00    -0.275 OA
ATOM     28  H   UNL     1       6.571  -2.458  -3.708  0.00  0.00    +0.149 HD
BRANCH  25  29
ATOM     29  C   UNL     1       4.883  -1.209  -3.394  0.00  0.00    +0.140 C 
BRANCH  29  39
ATOM     30  C   UNL     1       0.123  -0.754  -4.793  0.00  0.00    +0.000 A 
ATOM     31  C   UNL     1       0.718  -0.818  -3.546  0.00  0.00    +0.000 A 
ATOM     32  C   UNL     1       2.020  -1.261  -3.427  0.00  0.00    +0.006 A 
ATOM     33  C   UNL     1       2.736  -1.640  -4.552  0.00  0.00    -0.014 A 
ATOM     34  C   UNL     1       2.144  -1.572  -5.796  0.00  0.00    -0.040 A 
ATOM     35  C   UNL     1       0.836  -1.131  -5.914  0.00  0.00    +0.004 A 
ATOM     36  C   UNL     1       2.894  -1.963  -7.044  0.00  0.00    +0.063 C 
ATOM     37  C   UNL     1       4.123  -2.793  -6.670  0.00  0.00    +0.165 C 
ATOM     38  O   UNL     1       4.835  -2.108  -5.633  0.00  0.00    -0.370 OA
ATOM     39  C   UNL     1       4.152  -2.123  -4.380  0.00  0.00    +0.165 C 
ENDBRANCH  29  39
ENDBRANCH  25  29
ENDBRANCH   1  26
TORSDOF 5
