REMARK  Name = ZINC03765705
REMARK  5 active torsions:
REMARK  status: ('A' for Active; 'I' for Inactive)
REMARK    1  A    between atoms: C_6  and  C_7
REMARK    2  A    between atoms: C_9  and  C_27
REMARK    3  A    between atoms: C_14  and  C_17
REMARK    4  A    between atoms: N_19  and  N_20
REMARK    5  A    between atoms: C_21  and  C_23
REMARK                            x       y       z     vdW  Elec       q    Type
REMARK                         _______ _______ _______ _____ _____    ______ ____
ROOT
ATOM      1  C   UNL     1       1.116   1.921   0.002  0.00  0.00    +0.094 A 
ATOM      2  C   UNL     1      -0.013   1.076   0.008  0.00  0.00    +0.062 A 
ATOM      3  C   UNL     1      -1.115   1.855   0.017  0.00  0.00    +0.150 A 
ATOM      4  N   UNL     1      -0.708   3.153   0.024  0.00  0.00    -0.203 N 
ATOM      5  N   UNL     1       0.693   3.167   0.012  0.00  0.00    -0.164 NA
ATOM      6  C   UNL     1      -1.538   4.271   0.037  0.00  0.00    +0.195 A 
ATOM      7  N   UNL     1      -1.212   5.547   0.046  0.00  0.00    -0.216 NA
ATOM      8  C   UNL     1      -2.168   6.476   0.054  0.00  0.00    +0.136 A 
ATOM      9  C   UNL     1      -3.480   6.079   0.064  0.00  0.00    +0.081 A 
ATOM     10  S   UNL     1      -3.321   4.350   0.054  0.00  0.00    -0.056 S 
ENDROOT
BRANCH   1  16
ATOM     11  C   UNL     1       2.843   0.123  -0.016  0.00  0.00    +0.013 A 
ATOM     12  C   UNL     1       4.162  -0.281  -0.034  0.00  0.00    +0.039 A 
ATOM     13  C   UNL     1       5.178   0.662  -0.039  0.00  0.00    +0.123 A 
ATOM     14  C   UNL     1       4.874   2.013  -0.031  0.00  0.00    +0.039 A 
ATOM     15  C   UNL     1       3.557   2.426  -0.018  0.00  0.00    +0.013 A 
ATOM     16  C   UNL     1       2.533   1.481  -0.013  0.00  0.00    +0.002 A 
ATOM     17  F   UNL     1       6.468   0.262  -0.051  0.00  0.00    -0.205 F 
ENDBRANCH   1  16
BRANCH   8  18
ATOM     18  C   UNL     1      -1.821   7.907   0.057  0.00  0.00    +0.279 C 
ATOM     19  O   UNL     1      -2.700   8.746   0.069  0.00  0.00    -0.267 OA
ATOM     20  N   UNL     1      -0.527   8.286   0.047  0.00  0.00    -0.229 N 
ATOM     21  H   UNL     1       0.174   7.616   0.038  0.00  0.00    +0.173 HD
BRANCH  20  22
ATOM     22  N   UNL     1      -0.196   9.647   0.050  0.00  0.00    -0.227 N 
ATOM     23  C   UNL     1       1.097  10.026   0.040  0.00  0.00    +0.333 C 
ATOM     24  O   UNL     1       1.974   9.189   0.029  0.00  0.00    -0.264 OA
ATOM     25  H   UNL     1      -0.898  10.317   0.060  0.00  0.00    +0.173 HD
BRANCH  23  26
ATOM     26  C   UNL     1       1.453  11.491   0.044  0.00  0.00    +0.471 C 
ATOM     27  F   UNL     1       2.845  11.632   0.032  0.00  0.00    -0.162 F 
ATOM     28  F   UNL     1       0.912  12.105  -1.091  0.00  0.00    -0.162 F 
ATOM     29  F   UNL     1       0.933  12.094   1.194  0.00  0.00    -0.162 F 
ENDBRANCH  23  26
ENDBRANCH  20  22
ENDBRANCH   8  18
BRANCH   3  30
ATOM     30  C   UNL     1      -2.543   1.373   0.020  0.00  0.00    +0.434 C 
ATOM     31  F   UNL     1      -2.564  -0.021   0.129  0.00  0.00    -0.164 F 
ATOM     32  F   UNL     1      -3.222   1.936   1.106  0.00  0.00    -0.164 F 
ATOM     33  F   UNL     1      -3.168   1.758  -1.171  0.00  0.00    -0.164 F 
ENDBRANCH   3  30
TORSDOF 5
