REMARK  Name = ZINC14625384
REMARK  11 active torsions:
REMARK  status: ('A' for Active; 'I' for Inactive)
REMARK    1  A    between atoms: C_1  and  C_2
REMARK    2  A    between atoms: C_2  and  C_3
REMARK    3  A    between atoms: C_3  and  C_4
REMARK    4  A    between atoms: C_4  and  N_5
REMARK    5  A    between atoms: C_6  and  N_35
REMARK    6  A    between atoms: C_7  and  N_14
REMARK    7  A    between atoms: N_14  and  C_15
REMARK    8  A    between atoms: C_15  and  C_16
REMARK    9  A    between atoms: C_22  and  C_24
REMARK   10  A    between atoms: C_27  and  O_30
REMARK   11  A    between atoms: O_30  and  C_31
REMARK                            x       y       z     vdW  Elec       q    Type
REMARK                         _______ _______ _______ _____ _____    ______ ____
ROOT
ATOM      1  N   UNL     1       3.560  -0.835  -1.497  0.00  0.00    -0.256 N 
ATOM      2  C   UNL     1       3.466  -2.123  -1.883  0.00  0.00    +0.251 C 
ATOM      3  O   UNL     1       3.200  -2.985  -1.067  0.00  0.00    -0.270 OA
ENDROOT
BRANCH   1   6
ATOM      4  N   UNL     1       5.487   1.811  -3.166  0.00  0.00    -0.280 N 
ATOM      5  C   UNL     1       5.129   0.855  -2.244  0.00  0.00    +0.127 A 
ATOM      6  C   UNL     1       3.955   0.152  -2.424  0.00  0.00    +0.140 A 
ATOM      7  C   UNL     1       3.161   0.433  -3.552  0.00  0.00    +0.277 A 
ATOM      8  O   UNL     1       2.121  -0.177  -3.738  0.00  0.00    -0.266 OA
ATOM      9  N   UNL     1       3.555   1.383  -4.422  0.00  0.00    -0.273 N 
ATOM     10  H   UNL     1       2.988   1.589  -5.220  0.00  0.00    +0.173 HD
ATOM     11  C   UNL     1       4.702   2.058  -4.230  0.00  0.00    +0.331 A 
ATOM     12  O   UNL     1       5.036   2.908  -5.033  0.00  0.00    -0.246 OA
BRANCH   5  13
ATOM     13  N   UNL     1       5.930   0.603  -1.156  0.00  0.00    -0.343 N 
ATOM     14  H   UNL     1       5.728  -0.141  -0.567  0.00  0.00    +0.144 HD
ATOM     15  H   UNL     1       6.698   1.168  -0.978  0.00  0.00    +0.144 HD
ENDBRANCH   5  13
BRANCH   4  16
ATOM     16  C   UNL     1       6.730   2.564  -2.987  0.00  0.00    +0.128 C 
BRANCH  16  17
ATOM     17  C   UNL     1       7.877   1.829  -3.683  0.00  0.00    +0.021 C 
BRANCH  17  19
ATOM     18  C   UNL     1      10.322   1.880  -4.193  0.00  0.00    +0.004 C 
ATOM     19  C   UNL     1       9.176   2.616  -3.497  0.00  0.00    -0.002 C 
ENDBRANCH  17  19
ENDBRANCH  16  17
ENDBRANCH   4  16
ENDBRANCH   1   6
BRANCH   2  20
ATOM     20  C   UNL     1       3.687  -2.488  -3.296  0.00  0.00    +0.037 A 
ATOM     21  C   UNL     1       4.539  -1.719  -4.093  0.00  0.00    +0.016 A 
ATOM     22  C   UNL     1       4.746  -2.067  -5.410  0.00  0.00    +0.047 A 
ATOM     23  C   UNL     1       4.101  -3.173  -5.949  0.00  0.00    +0.130 A 
ATOM     24  C   UNL     1       3.248  -3.937  -5.160  0.00  0.00    +0.047 A 
ATOM     25  C   UNL     1       3.040  -3.600  -3.841  0.00  0.00    +0.016 A 
BRANCH  23  26
ATOM     26  O   UNL     1       4.303  -3.509  -7.248  0.00  0.00    -0.406 OA
BRANCH  26  27
ATOM     27  C   UNL     1       5.192  -2.681  -8.001  0.00  0.00    +0.575 C 
ATOM     28  F   UNL     1       6.458  -2.695  -7.407  0.00  0.00    -0.133 F 
ATOM     29  F   UNL     1       5.285  -3.167  -9.309  0.00  0.00    -0.133 F 
ATOM     30  F   UNL     1       4.702  -1.371  -8.023  0.00  0.00    -0.133 F 
ENDBRANCH  26  27
ENDBRANCH  23  26
ENDBRANCH   2  20
BRANCH   1  31
ATOM     31  C   UNL     1       3.252  -0.461  -0.115  0.00  0.00    +0.149 C 
BRANCH  31  32
ATOM     32  C   UNL     1       1.794  -0.096  -0.006  0.00  0.00    -0.030 A 
ATOM     33  C   UNL     1       0.859  -1.068   0.292  0.00  0.00    +0.005 A 
ATOM     34  C   UNL     1      -0.479  -0.734   0.392  0.00  0.00    +0.000 A 
ATOM     35  C   UNL     1      -0.880   0.574   0.194  0.00  0.00    +0.000 A 
ATOM     36  C   UNL     1       0.055   1.547  -0.103  0.00  0.00    +0.000 A 
ATOM     37  C   UNL     1       1.393   1.212  -0.203  0.00  0.00    +0.005 A 
ENDBRANCH  31  32
ENDBRANCH   1  31
TORSDOF 10
