REMARK  Name = ZINC03260883
REMARK  8 active torsions:
REMARK  status: ('A' for Active; 'I' for Inactive)
REMARK    1  A    between atoms: C_1  and  C_2
REMARK    2  A    between atoms: C_2  and  C_4
REMARK    3  A    between atoms: C_2  and  O_16
REMARK    4  A    between atoms: N_6  and  C_7
REMARK    5  A    between atoms: O_16  and  C_17
REMARK    6  A    between atoms: C_17  and  C_19
REMARK    7  A    between atoms: C_21  and  O_30
REMARK    8  A    between atoms: C_28  and  O_29
REMARK                            x       y       z     vdW  Elec       q    Type
REMARK                         _______ _______ _______ _____ _____    ______ ____
ROOT
ATOM      1  O   UNL     1      -3.679   7.340   0.090  0.00  0.00    -0.449 OA
ENDROOT
BRANCH   1   3
ATOM      2  C   UNL     1      -5.402   8.251   1.551  0.00  0.00    +0.062 C 
ATOM      3  C   UNL     1      -4.967   8.011   0.104  0.00  0.00    +0.259 C 
BRANCH   3   4
ATOM      4  C   UNL     1      -4.852   9.332  -0.612  0.00  0.00    +0.258 C 
ATOM      5  O   UNL     1      -3.789   9.675  -1.086  0.00  0.00    -0.271 OA
ATOM      6  N   UNL     1      -5.930  10.134  -0.724  0.00  0.00    -0.281 N 
ATOM      7  H   UNL     1      -6.797   9.827  -0.416  0.00  0.00    +0.155 HD
BRANCH   6   8
ATOM      8  C   UNL     1      -5.798  11.410  -1.285  0.00  0.00    +0.053 A 
ATOM      9  C   UNL     1      -4.571  12.060  -1.254  0.00  0.00    +0.046 A 
ATOM     10  C   UNL     1      -4.444  13.319  -1.809  0.00  0.00    +0.061 A 
ATOM     11  C   UNL     1      -5.538  13.933  -2.396  0.00  0.00    +0.061 A 
ATOM     12  C   UNL     1      -6.761  13.287  -2.428  0.00  0.00    +0.043 A 
ATOM     13  C   UNL     1      -6.893  12.025  -1.879  0.00  0.00    +0.064 A 
ATOM     14 CL   UNL     1      -8.426  11.213  -1.926  0.00  0.00    -0.082 Cl
ATOM     15 CL   UNL     1      -5.374  15.514  -3.093  0.00  0.00    -0.082 Cl
ATOM     16 CL   UNL     1      -2.911  14.133  -1.770  0.00  0.00    -0.082 Cl
ENDBRANCH   6   8
ENDBRANCH   3   4
ENDBRANCH   1   3
BRANCH   1  17
ATOM     17  C   UNL     1      -3.692   5.992   0.094  0.00  0.00    +0.344 C 
ATOM     18  O   UNL     1      -4.750   5.394   0.108  0.00  0.00    -0.245 OA
BRANCH  17  19
ATOM     19  C   UNL     1      -2.424   5.244   0.080  0.00  0.00    +0.104 A 
ATOM     20  C   UNL     1      -1.200   5.941   0.064  0.00  0.00    +0.064 A 
ATOM     21  C   UNL     1      -0.017   5.272   0.051  0.00  0.00    +0.126 A 
ATOM     22  C   UNL     1      -0.001   3.859   0.055  0.00  0.00    +0.027 A 
ATOM     23  C   UNL     1       1.210   3.150   0.041  0.00  0.00    +0.012 A 
ATOM     24  C   UNL     1       1.195   1.788   0.045  0.00  0.00    +0.001 A 
ATOM     25  C   UNL     1      -0.006   1.084   0.061  0.00  0.00    +0.001 A 
ATOM     26  C   UNL     1      -1.200   1.739   0.069  0.00  0.00    +0.012 A 
ATOM     27  C   UNL     1      -1.223   3.144   0.071  0.00  0.00    +0.028 A 
ATOM     28  C   UNL     1      -2.442   3.851   0.084  0.00  0.00    +0.139 A 
BRANCH  28  29
ATOM     29  O   UNL     1      -3.621   3.183   0.100  0.00  0.00    -0.505 OA
ATOM     30  H   UNL     1      -3.953   2.991   0.988  0.00  0.00    +0.292 HD
ENDBRANCH  28  29
BRANCH  21  31
ATOM     31  O   UNL     1       1.154   5.963   0.036  0.00  0.00    -0.506 OA
ATOM     32  H   UNL     1       1.482   6.161  -0.852  0.00  0.00    +0.292 HD
ENDBRANCH  21  31
ENDBRANCH  17  19
ENDBRANCH   1  17
TORSDOF 7
