REMARK  Name = ZINC50989264
REMARK  11 active torsions:
REMARK  status: ('A' for Active; 'I' for Inactive)
REMARK    1  A    between atoms: C_1  and  C_2
REMARK    2  A    between atoms: C_4  and  S_22
REMARK    3  A    between atoms: C_6  and  N_9
REMARK    4  A    between atoms: C_7  and  C_8
REMARK    5  A    between atoms: C_10  and  C_12
REMARK    6  A    between atoms: C_12  and  N_13
REMARK    7  A    between atoms: N_13  and  C_14
REMARK    8  A    between atoms: N_13  and  C_15
REMARK    9  A    between atoms: C_15  and  C_16
REMARK   10  A    between atoms: C_15  and  C_19
REMARK   11  A    between atoms: S_22  and  N_25
REMARK                            x       y       z     vdW  Elec       q    Type
REMARK                         _______ _______ _______ _____ _____    ______ ____
ROOT
ATOM      1  N   UNL     1      -0.698  -3.697   0.882  0.00  0.00    -0.287 N 
ATOM      2  C   UNL     1      -0.551  -4.929   1.410  0.00  0.00    +0.201 C 
ATOM      3  O   UNL     1      -0.454  -5.894   0.681  0.00  0.00    -0.278 OA
ATOM      4  H   UNL     1      -0.693  -2.918   1.460  0.00  0.00    +0.155 HD
ENDROOT
BRANCH   1  10
ATOM      5  C   UNL     1      -0.342  -0.878  -3.130  0.00  0.00    +0.044 C 
ATOM      6  C   UNL     1      -0.692  -2.187  -2.470  0.00  0.00    -0.044 A 
ATOM      7  C   UNL     1      -1.171  -3.237  -3.232  0.00  0.00    +0.032 A 
ATOM      8  C   UNL     1      -1.493  -4.440  -2.630  0.00  0.00    +0.107 A 
ATOM      9  C   UNL     1      -1.337  -4.596  -1.267  0.00  0.00    +0.052 A 
ATOM     10  C   UNL     1      -0.856  -3.543  -0.500  0.00  0.00    +0.038 A 
ATOM     11  C   UNL     1      -0.529  -2.338  -1.107  0.00  0.00    -0.026 A 
ATOM     12  C   UNL     1      -0.001  -1.194  -0.280  0.00  0.00    +0.046 C 
BRANCH   8  13
ATOM     13  S   UNL     1      -2.104  -5.775  -3.604  0.00  0.00    +0.056 S 
ATOM     14  O   UNL     1      -2.846  -6.612  -2.728  0.00  0.00    -0.153 OA
ATOM     15  O   UNL     1      -2.674  -5.199  -4.772  0.00  0.00    -0.153 OA
BRANCH  13  16
ATOM     16  N   UNL     1      -0.794  -6.657  -4.103  0.00  0.00    -0.204 NA
ATOM     17  H   UNL     1       0.100  -6.387  -3.842  0.00  0.00    +0.144 HD
ATOM     18  H   UNL     1      -0.921  -7.443  -4.657  0.00  0.00    +0.144 HD
ENDBRANCH  13  16
ENDBRANCH   8  13
ENDBRANCH   1  10
BRANCH   2  19
ATOM     19  C   UNL     1      -0.508  -5.107   2.906  0.00  0.00    +0.019 C 
BRANCH  19  20
ATOM     20  N   UNL     1      -0.344  -6.532   3.225  0.00  0.00    +0.386 N 
ATOM     21  C   UNL     1       0.938  -7.008   2.687  0.00  0.00    -0.095 C 
ATOM     22  H   UNL     1      -1.099  -7.058   2.812  0.00  0.00    -0.081 HD
BRANCH  20  23
ATOM     23  C   UNL     1      -0.361  -6.712   4.683  0.00  0.00    -0.062 C 
BRANCH  23  24
ATOM     24  C   UNL     1      -1.759  -6.397   5.219  0.00  0.00    -0.024 C 
ATOM     25  C   UNL     1      -2.835  -6.011   4.202  0.00  0.00    +0.002 C 
ATOM     26  C   UNL     1      -2.240  -4.948   5.129  0.00  0.00    +0.002 C 
ENDBRANCH  23  24
BRANCH  23  27
ATOM     27  C   UNL     1       0.002  -8.159   5.021  0.00  0.00    -0.024 C 
ATOM     28  C   UNL     1       0.999  -8.390   6.158  0.00  0.00    +0.002 C 
ATOM     29  C   UNL     1       1.426  -8.623   4.707  0.00  0.00    +0.002 C 
ENDBRANCH  23  27
ENDBRANCH  20  23
ENDBRANCH  19  20
ENDBRANCH   2  19
TORSDOF 8
