REMARK  Name = ZINC04898587
REMARK  6 active torsions:
REMARK  status: ('A' for Active; 'I' for Inactive)
REMARK    1  A    between atoms: C_3  and  O_30
REMARK    2  A    between atoms: C_6  and  C_7
REMARK    3  A    between atoms: C_9  and  C_21
REMARK    4  A    between atoms: C_11  and  C_16
REMARK    5  A    between atoms: C_11  and  O_20
REMARK    6  A    between atoms: C_21  and  C_23
REMARK                            x       y       z     vdW  Elec       q    Type
REMARK                         _______ _______ _______ _____ _____    ______ ____
ROOT
ATOM      1  C   UNL     1      -1.368  -0.517   0.384  0.00  0.00    +0.120 C 
ATOM      2  C   UNL     1      -1.870  -1.312   1.593  0.00  0.00    +0.144 C 
ATOM      3  C   UNL     1      -2.921  -2.319   1.113  0.00  0.00    +0.243 C 
ATOM      4  N   UNL     1      -2.341  -3.152   0.058  0.00  0.00    -0.264 N 
ATOM      5  C   UNL     1      -1.374  -2.687  -0.746  0.00  0.00    +0.302 C 
ATOM      6  O   UNL     1      -0.934  -3.417  -1.613  0.00  0.00    -0.253 OA
ATOM      7  N   UNL     1      -0.873  -1.446  -0.633  0.00  0.00    -0.292 N 
ATOM      8  H   UNL     1      -2.663  -4.059  -0.062  0.00  0.00    +0.153 HD
ATOM      9  H   UNL     1      -0.169  -1.161  -1.235  0.00  0.00    +0.151 HD
ENDROOT
BRANCH   1  15
ATOM     10  C   UNL     1      -0.531   1.711   1.159  0.00  0.00    +0.009 A 
ATOM     11  C   UNL     1       0.489   2.554   1.552  0.00  0.00    +0.046 A 
ATOM     12  C   UNL     1       1.795   2.087   1.600  0.00  0.00    +0.117 A 
ATOM     13  C   UNL     1       2.071   0.772   1.252  0.00  0.00    +0.046 A 
ATOM     14  C   UNL     1       1.047  -0.067   0.859  0.00  0.00    +0.009 A 
ATOM     15  C   UNL     1      -0.253   0.401   0.812  0.00  0.00    -0.026 A 
BRANCH  12  16
ATOM     16  O   UNL     1       2.801   2.914   1.987  0.00  0.00    -0.507 OA
ATOM     17  H   UNL     1       2.973   2.907   2.938  0.00  0.00    +0.292 HD
ENDBRANCH  12  16
ENDBRANCH   1  15
BRANCH   3  18
ATOM     18  C   UNL     1      -3.354  -3.204   2.284  0.00  0.00    +0.436 C 
ATOM     19  F   UNL     1      -3.777  -2.398   3.346  0.00  0.00    -0.166 F 
ATOM     20  F   UNL     1      -4.406  -4.032   1.878  0.00  0.00    -0.166 F 
ATOM     21  F   UNL     1      -2.274  -3.991   2.697  0.00  0.00    -0.166 F 
ENDBRANCH   3  18
BRANCH   3  22
ATOM     22  O   UNL     1      -4.055  -1.617   0.599  0.00  0.00    -0.364 OA
ATOM     23  H   UNL     1      -4.761  -2.194   0.276  0.00  0.00    +0.212 HD
ENDBRANCH   3  22
BRANCH   2  24
ATOM     24  C   UNL     1      -0.718  -2.044   2.231  0.00  0.00    +0.173 C 
ATOM     25  O   UNL     1      -0.114  -2.889   1.605  0.00  0.00    -0.292 OA
BRANCH  24  26
ATOM     26  C   UNL     1      -0.324  -1.733   3.613  0.00  0.00    +0.018 A 
ATOM     27  C   UNL     1      -0.941  -0.681   4.300  0.00  0.00    +0.014 A 
ATOM     28  C   UNL     1      -0.568  -0.395   5.595  0.00  0.00    +0.039 A 
ATOM     29  C   UNL     1       0.417  -1.147   6.218  0.00  0.00    +0.123 A 
ATOM     30  C   UNL     1       1.033  -2.191   5.543  0.00  0.00    +0.039 A 
ATOM     31  C   UNL     1       0.665  -2.491   4.250  0.00  0.00    +0.014 A 
ATOM     32  F   UNL     1       0.779  -0.861   7.487  0.00  0.00    -0.205 F 
ENDBRANCH  24  26
ENDBRANCH   2  24
TORSDOF 6
