REMARK  Name = ZINC02963076
REMARK  6 active torsions:
REMARK  status: ('A' for Active; 'I' for Inactive)
REMARK    1  A    between atoms: C_1  and  C_2
REMARK    2  A    between atoms: C_10  and  C_25
REMARK    3  A    between atoms: C_12  and  C_24
REMARK    4  A    between atoms: N_14  and  C_18
REMARK    5  A    between atoms: N_27  and  C_28
REMARK    6  A    between atoms: N_27  and  C_29
REMARK                            x       y       z     vdW  Elec       q    Type
REMARK                         _______ _______ _______ _____ _____    ______ ____
ROOT
ATOM      1  C   UNL     1      -0.093   5.438   0.564  0.00  0.00    +0.044 C 
ATOM      2  C   UNL     1      -0.034   3.937   0.439  0.00  0.00    -0.050 A 
ATOM      3  C   UNL     1      -1.201   3.196   0.433  0.00  0.00    +0.007 A 
ATOM      4  C   UNL     1      -1.148   1.822   0.325  0.00  0.00    +0.046 A 
ATOM      5  C   UNL     1       0.080   1.176   0.213  0.00  0.00    +0.128 A 
ATOM      6  C   UNL     1       1.245   1.922   0.215  0.00  0.00    +0.016 A 
ATOM      7  C   UNL     1       1.188   3.300   0.331  0.00  0.00    +0.012 A 
ATOM      8  C   UNL     1       2.595   1.254   0.087  0.00  0.00    +0.123 C 
ATOM      9  C   UNL     1       2.458  -0.203   0.559  0.00  0.00    +0.162 C 
ATOM     10  C   UNL     1       1.311  -0.826  -0.249  0.00  0.00    +0.194 C 
ATOM     11  O   UNL     1       0.094  -0.178   0.111  0.00  0.00    -0.467 OA
ATOM     12  N   UNL     1       1.582  -0.668  -1.675  0.00  0.00    -0.243 N 
ATOM     13  C   UNL     1       2.390   0.296  -2.143  0.00  0.00    +0.141 C 
ATOM     14  S   UNL     1       2.734   0.342  -3.820  0.00  0.00    -0.018 S 
ATOM     15  N   UNL     1       2.938   1.227  -1.345  0.00  0.00    -0.318 N 
ATOM     16  C   UNL     1       1.212  -2.315   0.087  0.00  0.00    +0.079 C 
ATOM     17  H   UNL     1       3.557   1.878  -1.710  0.00  0.00    +0.148 HD
ENDROOT
BRANCH  12  18
ATOM     18  C   UNL     1       0.982  -1.549  -2.581  0.00  0.00    +0.039 A 
ATOM     19  C   UNL     1      -0.395  -1.531  -2.761  0.00  0.00    +0.023 A 
ATOM     20  C   UNL     1      -0.984  -2.398  -3.660  0.00  0.00    +0.002 A 
ATOM     21  C   UNL     1      -0.205  -3.292  -4.372  0.00  0.00    +0.000 A 
ATOM     22  C   UNL     1       1.166  -3.316  -4.191  0.00  0.00    +0.002 A 
ATOM     23  C   UNL     1       1.761  -2.448  -3.298  0.00  0.00    +0.023 A 
ENDBRANCH  12  18
BRANCH   9  24
ATOM     24  C   UNL     1       3.739  -0.952   0.296  0.00  0.00    +0.226 C 
ATOM     25  O   UNL     1       3.953  -1.421  -0.802  0.00  0.00    -0.275 OA
ATOM     26  N   UNL     1       4.648  -1.100   1.280  0.00  0.00    -0.307 N 
ATOM     27  C   UNL     1       5.833  -1.933   1.064  0.00  0.00    +0.131 C 
ATOM     28  C   UNL     1       4.450  -0.427   2.567  0.00  0.00    +0.131 C 
ENDBRANCH   9  24
TORSDOF 2
