REMARK  Name = ZINC24885340
REMARK  9 active torsions:
REMARK  status: ('A' for Active; 'I' for Inactive)
REMARK    1  A    between atoms: C_1  and  S_2
REMARK    2  A    between atoms: S_2  and  C_5
REMARK    3  A    between atoms: C_10  and  C_11
REMARK    4  A    between atoms: C_11  and  N_12
REMARK    5  A    between atoms: C_15  and  N_18
REMARK    6  A    between atoms: N_18  and  C_19
REMARK    7  A    between atoms: N_18  and  S_23
REMARK    8  A    between atoms: C_19  and  C_20
REMARK    9  A    between atoms: S_23  and  C_26
REMARK                            x       y       z     vdW  Elec       q    Type
REMARK                         _______ _______ _______ _____ _____    ______ ____
ROOT
ATOM      1  N   UNL     1      -0.228   3.457  -1.991  0.00  0.00    +0.382 N 
ATOM      2  C   UNL     1       0.459   3.041  -0.762  0.00  0.00    -0.077 C 
ATOM      3  C   UNL     1       0.343   1.524  -0.599  0.00  0.00    +0.002 C 
ATOM      4  C   UNL     1      -1.136   1.134  -0.535  0.00  0.00    +0.076 C 
ATOM      5  C   UNL     1      -1.839   1.620  -1.805  0.00  0.00    +0.002 C 
ATOM      6  C   UNL     1      -1.660   3.135  -1.933  0.00  0.00    -0.077 C 
ATOM      7  H   UNL     1       0.209   2.891  -2.827  0.00  0.00    -0.081 HD
ENDROOT
BRANCH   1   8
ATOM      8  C   UNL     1      -0.020   4.887  -2.253  0.00  0.00    -0.041 C 
BRANCH   8  14
ATOM      9  C   UNL     1       0.471   4.919  -4.707  0.00  0.00    +0.089 A 
ATOM     10  C   UNL     1       0.117   5.204  -6.013  0.00  0.00    +0.027 A 
ATOM     11  C   UNL     1      -1.114   5.769  -6.287  0.00  0.00    +0.002 A 
ATOM     12  C   UNL     1      -1.992   6.048  -5.256  0.00  0.00    +0.000 A 
ATOM     13  C   UNL     1      -1.640   5.758  -3.951  0.00  0.00    +0.003 A 
ATOM     14  C   UNL     1      -0.406   5.198  -3.676  0.00  0.00    -0.039 A 
BRANCH   9  16
ATOM     15  C   UNL     1       2.974   5.504  -3.510  0.00  0.00    +0.200 C 
ATOM     16  S   UNL     1       2.041   4.199  -4.357  0.00  0.00    -0.006 S 
ATOM     17  O   UNL     1       1.760   3.136  -3.458  0.00  0.00    -0.170 OA
ATOM     18  O   UNL     1       2.613   3.938  -5.632  0.00  0.00    -0.170 OA
ENDBRANCH   9  16
ENDBRANCH   8  14
ENDBRANCH   1   8
BRANCH   4  19
ATOM     19  N   UNL     1      -1.254  -0.323  -0.437  0.00  0.00    -0.173 NA
BRANCH  19  20
ATOM     20  S   UNL     1      -1.875  -1.013   0.934  0.00  0.00    +0.063 S 
ATOM     21  O   UNL     1      -1.263  -2.290   1.059  0.00  0.00    -0.153 OA
ATOM     22  O   UNL     1      -1.797  -0.028   1.956  0.00  0.00    -0.153 OA
BRANCH  20  23
ATOM     23  C   UNL     1      -3.588  -1.302   0.643  0.00  0.00    +0.131 A 
ATOM     24  C   UNL     1      -4.066  -2.575   0.585  0.00  0.00    +0.031 A 
ATOM     25  C   UNL     1      -5.418  -2.826   0.361  0.00  0.00    +0.003 A 
ATOM     26  C   UNL     1      -6.298  -1.803   0.182  0.00  0.00    +0.010 A 
ATOM     27  C   UNL     1      -5.840  -0.477   0.230  0.00  0.00    +0.002 A 
ATOM     28  C   UNL     1      -4.466  -0.219   0.464  0.00  0.00    +0.097 A 
ATOM     29  N   UNL     1      -4.024   1.042   0.511  0.00  0.00    -0.253 NA
ATOM     30  C   UNL     1      -4.838   2.056   0.344  0.00  0.00    +0.111 A 
ATOM     31  C   UNL     1      -6.200   1.872   0.111  0.00  0.00    +0.020 A 
ATOM     32  C   UNL     1      -6.717   0.610   0.051  0.00  0.00    +0.011 A 
ENDBRANCH  20  23
ENDBRANCH  19  20
BRANCH  19  33
ATOM     33  C   UNL     1      -0.824  -1.169  -1.553  0.00  0.00    +0.113 C 
BRANCH  33  34
ATOM     34  C   UNL     1       0.680  -1.431  -1.444  0.00  0.00    +0.005 C 
ATOM     35  C   UNL     1       1.574  -0.890  -2.561  0.00  0.00    +0.005 C 
ATOM     36  C   UNL     1       1.304  -2.394  -2.456  0.00  0.00    +0.005 C 
ENDBRANCH  33  34
ENDBRANCH  19  33
ENDBRANCH   4  19
TORSDOF 8
