REMARK  Name = ZINC52569905
REMARK  9 active torsions:
REMARK  status: ('A' for Active; 'I' for Inactive)
REMARK    1  A    between atoms: C_1  and  C_2
REMARK    2  A    between atoms: C_5  and  C_12
REMARK    3  A    between atoms: C_14  and  O_23
REMARK    4  A    between atoms: C_17  and  C_18
REMARK    5  A    between atoms: O_23  and  C_24
REMARK    6  A    between atoms: C_24  and  C_25
REMARK    7  A    between atoms: C_25  and  C_27
REMARK    8  A    between atoms: C_25  and  N_37
REMARK    9  A    between atoms: C_27  and  C_28
REMARK                            x       y       z     vdW  Elec       q    Type
REMARK                         _______ _______ _______ _____ _____    ______ ____
ROOT
ATOM      1  C   UNL     1      -5.687   2.025   0.018  0.00  0.00    +0.013 A 
ATOM      2  C   UNL     1      -5.935   0.866   0.753  0.00  0.00    +0.058 A 
ATOM      3  C   UNL     1      -7.050   0.837   1.583  0.00  0.00    +0.139 A 
ATOM      4  C   UNL     1      -7.876   1.952   1.654  0.00  0.00    +0.157 A 
ATOM      5  N   UNL     1      -7.619   3.034   0.948  0.00  0.00    -0.251 NA
ATOM      6  C   UNL     1      -6.565   3.113   0.147  0.00  0.00    +0.082 A 
ENDROOT
BRANCH   1  11
ATOM      7  C   UNL     1      -0.013   1.086   0.008  0.00  0.00    +0.068 C 
ATOM      8  C   UNL     1      -0.742   1.585  -1.213  0.00  0.00    +0.069 A 
ATOM      9  C   UNL     1      -2.172   1.853  -1.312  0.00  0.00    +0.042 A 
ATOM     10  C   UNL     1      -3.245   1.755  -0.421  0.00  0.00    +0.023 A 
ATOM     11  C   UNL     1      -4.511   2.109  -0.882  0.00  0.00    +0.003 A 
ATOM     12  C   UNL     1      -4.660   2.543  -2.203  0.00  0.00    +0.121 A 
ATOM     13  N   UNL     1      -3.633   2.625  -3.017  0.00  0.00    -0.235 NA
ATOM     14  C   UNL     1      -2.405   2.300  -2.629  0.00  0.00    +0.156 A 
ATOM     15  N   UNL     1      -1.191   2.295  -3.261  0.00  0.00    -0.260 N 
ATOM     16  N   UNL     1      -0.207   1.860  -2.368  0.00  0.00    -0.177 NA
ATOM     17  H   UNL     1      -1.037   2.555  -4.183  0.00  0.00    +0.191 HD
ENDBRANCH   1  11
BRANCH   6  18
ATOM     18  C   UNL     1      -6.316   4.355  -0.621  0.00  0.00    +0.039 A 
ATOM     19  C   UNL     1      -7.320   5.258  -1.195  0.00  0.00    +0.051 A 
ATOM     20  C   UNL     1      -6.633   6.243  -1.797  0.00  0.00    +0.195 A 
ATOM     21  O   UNL     1      -5.319   6.018  -1.640  0.00  0.00    -0.470 OA
ATOM     22  C   UNL     1      -5.110   4.897  -0.935  0.00  0.00    +0.204 A 
ENDBRANCH   6  18
BRANCH   3  23
ATOM     23  O   UNL     1      -7.330  -0.272   2.317  0.00  0.00    -0.492 OA
BRANCH  23  24
ATOM     24  C   UNL     1      -8.494  -0.225   3.145  0.00  0.00    +0.213 C 
BRANCH  24  25
ATOM     25  C   UNL     1      -8.644  -1.553   3.889  0.00  0.00    -0.033 C 
BRANCH  25  26
ATOM     26  N   UNL     1      -7.516  -1.727   4.814  0.00  0.00    +0.382 N 
ATOM     27  H   UNL     1      -7.506  -0.968   5.479  0.00  0.00    -0.089 HD
ATOM     28  H   UNL     1      -7.615  -2.603   5.304  0.00  0.00    -0.089 HD
ATOM     29  H   UNL     1      -6.652  -1.729   4.293  0.00  0.00    -0.089 HD
ENDBRANCH  25  26
BRANCH  25  30
ATOM     30  C   UNL     1      -9.955  -1.550   4.679  0.00  0.00    +0.020 C 
BRANCH  30  31
ATOM     31  C   UNL     1     -10.163  -2.901   5.312  0.00  0.00    -0.043 C 
ATOM     32  C   UNL     1      -9.832  -3.269   6.571  0.00  0.00    -0.001 A 
ATOM     33  C   UNL     1      -9.201  -2.549   7.684  0.00  0.00    +0.010 A 
ATOM     34  C   UNL     1      -8.992  -3.199   8.851  0.00  0.00    +0.001 A 
ATOM     35  C   UNL     1      -9.362  -4.540   9.025  0.00  0.00    +0.002 A 
ATOM     36  C   UNL     1      -9.946  -5.268   8.049  0.00  0.00    +0.026 A 
ATOM     37  C   UNL     1     -10.213  -4.684   6.780  0.00  0.00    +0.043 A 
ATOM     38  N   UNL     1     -10.759  -5.172   5.692  0.00  0.00    -0.380 N 
ATOM     39  C   UNL     1     -10.791  -4.119   4.672  0.00  0.00    +0.144 C 
ATOM     40  H   UNL     1     -11.089  -6.077   5.582  0.00  0.00    +0.160 HD
ENDBRANCH  30  31
ENDBRANCH  25  30
ENDBRANCH  24  25
ENDBRANCH  23  24
ENDBRANCH   3  23
TORSDOF 8
