REMARK  Name = ZINC17784193
REMARK  8 active torsions:
REMARK  status: ('A' for Active; 'I' for Inactive)
REMARK    1  A    between atoms: C_1  and  C_2
REMARK    2  A    between atoms: C_3  and  C_15
REMARK    3  A    between atoms: N_5  and  C_7
REMARK    4  A    between atoms: C_15  and  C_17
REMARK    5  A    between atoms: C_15  and  C_24
REMARK    6  A    between atoms: C_21  and  O_23
REMARK    7  A    between atoms: C_26  and  C_38
REMARK    8  A    between atoms: N_28  and  C_31
REMARK                            x       y       z     vdW  Elec       q    Type
REMARK                         _______ _______ _______ _____ _____    ______ ____
ROOT
ATOM      1  C   UNL     1      -0.489   4.072  -0.737  0.00  0.00    +0.074 C 
ENDROOT
BRANCH   1   4
ATOM      2  C   UNL     1      -0.155   1.379   0.791  0.00  0.00    +0.065 C 
ATOM      3  C   UNL     1      -0.832   1.558  -0.543  0.00  0.00    +0.039 A 
ATOM      4  C   UNL     1      -0.976   2.725  -1.204  0.00  0.00    +0.047 A 
ATOM      5  C   UNL     1      -1.665   2.463  -2.411  0.00  0.00    +0.276 A 
ATOM      6  N   UNL     1      -1.924   1.140  -2.455  0.00  0.00    -0.219 N 
ATOM      7  N   UNL     1      -1.400   0.565  -1.290  0.00  0.00    -0.294 N 
ATOM      8  O   UNL     1      -1.970   3.284  -3.257  0.00  0.00    -0.266 OA
ATOM      9  H   UNL     1      -1.436  -0.375  -1.054  0.00  0.00    +0.187 HD
BRANCH   6  10
ATOM     10  C   UNL     1      -2.591   0.464  -3.482  0.00  0.00    +0.067 A 
ATOM     11  C   UNL     1      -3.050   1.161  -4.592  0.00  0.00    +0.029 A 
ATOM     12  C   UNL     1      -3.708   0.491  -5.604  0.00  0.00    +0.022 A 
ATOM     13  C   UNL     1      -3.910  -0.875  -5.514  0.00  0.00    +0.041 A 
ATOM     14  C   UNL     1      -3.453  -1.573  -4.409  0.00  0.00    +0.022 A 
ATOM     15  C   UNL     1      -2.790  -0.908  -3.397  0.00  0.00    +0.029 A 
ATOM     16 CL   UNL     1      -4.738  -1.715  -6.788  0.00  0.00    -0.084 Cl
ENDBRANCH   6  10
ENDBRANCH   1   4
BRANCH   1  17
ATOM     17  C   UNL     1       0.359   4.716  -1.836  0.00  0.00    +0.135 C 
ATOM     18  C   UNL     1       0.907   6.050  -1.373  0.00  0.00    +0.047 C 
ATOM     19  N   UNL     1       2.179   5.960  -1.387  0.00  0.00    -0.181 NA
ATOM     20  N   UNL     1       2.635   4.714  -1.806  0.00  0.00    -0.160 N 
ATOM     21  C   UNL     1       1.603   3.891  -2.103  0.00  0.00    +0.249 C 
ATOM     22  O   UNL     1       1.659   2.744  -2.495  0.00  0.00    -0.273 OA
ATOM     23  C   UNL     1       0.100   7.258  -0.972  0.00  0.00    +0.063 C 
BRANCH  20  24
ATOM     24  C   UNL     1       3.986   4.359  -1.910  0.00  0.00    +0.060 A 
ATOM     25  C   UNL     1       4.340   3.088  -2.345  0.00  0.00    +0.027 A 
ATOM     26  C   UNL     1       5.672   2.741  -2.447  0.00  0.00    +0.022 A 
ATOM     27  C   UNL     1       6.655   3.657  -2.116  0.00  0.00    +0.041 A 
ATOM     28  C   UNL     1       6.305   4.924  -1.682  0.00  0.00    +0.022 A 
ATOM     29  C   UNL     1       4.974   5.278  -1.583  0.00  0.00    +0.027 A 
ATOM     30 CL   UNL     1       8.329   3.217  -2.244  0.00  0.00    -0.084 Cl
ENDBRANCH  20  24
ENDBRANCH   1  17
BRANCH   1  31
ATOM     31  C   UNL     1      -1.670   4.956  -0.431  0.00  0.00    -0.035 A 
ATOM     32  C   UNL     1      -2.472   5.418  -1.459  0.00  0.00    +0.004 A 
ATOM     33  C   UNL     1      -3.557   6.228  -1.182  0.00  0.00    +0.004 A 
ATOM     34  C   UNL     1      -3.843   6.580   0.123  0.00  0.00    +0.045 A 
ATOM     35  C   UNL     1      -3.040   6.118   1.156  0.00  0.00    +0.117 A 
ATOM     36  C   UNL     1      -1.956   5.299   0.876  0.00  0.00    +0.049 A 
BRANCH  35  37
ATOM     37  O   UNL     1      -3.320   6.462   2.441  0.00  0.00    -0.507 OA
ATOM     38  H   UNL     1      -3.914   5.847   2.892  0.00  0.00    +0.292 HD
ENDBRANCH  35  37
ENDBRANCH   1  31
TORSDOF 6
