REMARK  Name = ZINC05166718
REMARK  6 active torsions:
REMARK  status: ('A' for Active; 'I' for Inactive)
REMARK    1  A    between atoms: C_5  and  C_7
REMARK    2  A    between atoms: C_12  and  C_15
REMARK    3  A    between atoms: C_15  and  C_16
REMARK    4  A    between atoms: C_16  and  N_17
REMARK    5  A    between atoms: C_18  and  C_20
REMARK    6  A    between atoms: C_25  and  N_26
REMARK                            x       y       z     vdW  Elec       q    Type
REMARK                         _______ _______ _______ _____ _____    ______ ____
ROOT
ATOM      1  C   UNL     1      -8.341   1.092   3.971  0.00  0.00    +0.186 A 
ATOM      2  N   UNL     1      -9.240   1.624   3.134  0.00  0.00    -0.200 NA
ATOM      3  C   UNL     1      -8.904   1.342   1.907  0.00  0.00    +0.196 A 
ATOM      4  N   UNL     1      -7.758   0.607   1.899  0.00  0.00    -0.210 N 
ATOM      5  N   UNL     1      -7.423   0.466   3.270  0.00  0.00    -0.144 NA
ATOM      6  C   UNL     1      -7.265   0.225   0.674  0.00  0.00    +0.054 A 
ATOM      7  C   UNL     1      -7.891   0.573  -0.452  0.00  0.00    +0.072 A 
ATOM      8  S   UNL     1      -9.286   1.494   0.178  0.00  0.00    -0.056 S 
ENDROOT
BRANCH   1  13
ATOM      9  C   UNL     1      -7.414   0.691   7.593  0.00  0.00    +0.001 A 
ATOM     10  C   UNL     1      -8.439   1.382   8.214  0.00  0.00    +0.003 A 
ATOM     11  C   UNL     1      -9.433   1.980   7.461  0.00  0.00    +0.039 A 
ATOM     12  C   UNL     1      -9.407   1.890   6.082  0.00  0.00    +0.134 A 
ATOM     13  C   UNL     1      -8.375   1.194   5.451  0.00  0.00    +0.056 A 
ATOM     14  C   UNL     1      -7.380   0.589   6.217  0.00  0.00    +0.014 A 
ATOM     15  F   UNL     1     -10.378   2.474   5.346  0.00  0.00    -0.205 F 
ENDBRANCH   1  13
BRANCH   6  16
ATOM     16  C   UNL     1      -6.000  -0.591   0.602  0.00  0.00    +0.075 C 
BRANCH  16  17
ATOM     17  C   UNL     1      -4.805   0.340   0.388  0.00  0.00    +0.110 C 
BRANCH  17  18
ATOM     18  N   UNL     1      -3.575  -0.453   0.317  0.00  0.00    -0.311 N 
ATOM     19  C   UNL     1      -2.388   0.159   0.131  0.00  0.00    +0.246 C 
ATOM     20  O   UNL     1      -2.339   1.369   0.022  0.00  0.00    -0.270 OA
ATOM     21  H   UNL     1      -3.615  -1.418   0.405  0.00  0.00    +0.149 HD
BRANCH  19  22
ATOM     22  C   UNL     1      -1.147  -0.641   0.060  0.00  0.00    +0.067 A 
ATOM     23  C   UNL     1      -0.815  -1.513   1.099  0.00  0.00    +0.015 A 
ATOM     24  C   UNL     1       0.345  -2.256   1.026  0.00  0.00    +0.001 A 
ATOM     25  C   UNL     1       1.178  -2.139  -0.072  0.00  0.00    +0.002 A 
ATOM     26  C   UNL     1       0.852  -1.281  -1.107  0.00  0.00    +0.033 A 
ATOM     27  C   UNL     1      -0.303  -0.528  -1.045  0.00  0.00    +0.138 A 
BRANCH  27  28
ATOM     28  N   UNL     1      -0.647   0.394  -2.151  0.00  0.00    +0.057 N 
ATOM     29  O   UNL     1       0.143   0.578  -3.059  0.00  0.00    -0.126 OA
ATOM     30  O   UNL     1      -1.724   0.964  -2.155  0.00  0.00    -0.126 OA
ENDBRANCH  27  28
ENDBRANCH  19  22
ENDBRANCH  17  18
ENDBRANCH  16  17
ENDBRANCH   6  16
TORSDOF 6
