REMARK  Name = ZINC63141315
REMARK  7 active torsions:
REMARK  status: ('A' for Active; 'I' for Inactive)
REMARK    1  A    between atoms: C_1  and  O_2
REMARK    2  A    between atoms: O_2  and  C_3
REMARK    3  A    between atoms: C_6  and  C_11
REMARK    4  A    between atoms: C_8  and  O_9
REMARK    5  A    between atoms: O_9  and  C_10
REMARK    6  A    between atoms: C_11  and  N_12
REMARK    7  A    between atoms: C_32  and  C_34
REMARK                            x       y       z     vdW  Elec       q    Type
REMARK                         _______ _______ _______ _____ _____    ______ ____
ROOT
ATOM      1  N   UNL     1       3.926  -2.710  -4.085  0.00  0.00    -0.287 N 
ATOM      2  C   UNL     1       4.943  -1.692  -4.405  0.00  0.00    +0.204 C 
ATOM      3  C   UNL     1       5.853  -1.528  -3.206  0.00  0.00    +0.234 C 
ATOM      4  O   UNL     1       6.194  -0.432  -2.813  0.00  0.00    -0.274 OA
ATOM      5  N   UNL     1       6.273  -2.678  -2.583  0.00  0.00    -0.279 N 
ATOM      6  C   UNL     1       5.851  -3.913  -3.208  0.00  0.00    +0.167 C 
ATOM      7  C   UNL     1       4.371  -3.855  -3.489  0.00  0.00    +0.237 C 
ATOM      8  O   UNL     1       3.624  -4.769  -3.207  0.00  0.00    -0.274 OA
ATOM      9  C   UNL     1       6.263  -5.214  -2.570  0.00  0.00    +0.065 C 
ATOM     10  C   UNL     1       6.877  -4.952  -1.222  0.00  0.00    -0.034 C 
ATOM     11  C   UNL     1       6.766  -5.576  -0.058  0.00  0.00    -0.001 A 
ATOM     12  C   UNL     1       6.032  -6.789   0.339  0.00  0.00    +0.010 A 
ATOM     13  C   UNL     1       6.131  -7.150   1.645  0.00  0.00    +0.001 A 
ATOM     14  C   UNL     1       6.878  -6.435   2.587  0.00  0.00    +0.002 A 
ATOM     15  C   UNL     1       7.587  -5.312   2.309  0.00  0.00    +0.026 A 
ATOM     16  C   UNL     1       7.564  -4.835   0.966  0.00  0.00    +0.043 A 
ATOM     17  N   UNL     1       8.149  -3.808   0.429  0.00  0.00    -0.375 N 
ATOM     18  C   UNL     1       7.825  -3.776  -1.003  0.00  0.00    +0.131 C 
ATOM     19  C   UNL     1       7.040  -2.522  -1.355  0.00  0.00    +0.133 C 
ATOM     20  H   UNL     1       8.708  -3.167   0.897  0.00  0.00    +0.160 HD
ENDROOT
BRANCH  19  21
ATOM     21  C   UNL     1       7.975  -1.350  -1.507  0.00  0.00    -0.023 A 
ATOM     22  C   UNL     1       8.627  -1.136  -2.707  0.00  0.00    +0.005 A 
ATOM     23  C   UNL     1       9.484  -0.061  -2.847  0.00  0.00    +0.002 A 
ATOM     24  C   UNL     1       9.691   0.801  -1.786  0.00  0.00    +0.020 A 
ATOM     25  C   UNL     1       9.039   0.588  -0.585  0.00  0.00    +0.041 A 
ATOM     26  C   UNL     1       8.176  -0.485  -0.447  0.00  0.00    +0.025 A 
ATOM     27 CL   UNL     1       9.299   1.669   0.748  0.00  0.00    -0.084 Cl
ENDBRANCH  19  21
BRANCH   1  28
ATOM     28  C   UNL     1       2.507  -2.501  -4.386  0.00  0.00    +0.143 C 
BRANCH  28  32
ATOM     29  C   UNL     1       0.606  -0.608  -1.056  0.00  0.00    +0.162 A 
ATOM     30  C   UNL     1       1.173   0.159  -2.062  0.00  0.00    +0.050 A 
ATOM     31  C   UNL     1       1.787  -0.456  -3.137  0.00  0.00    +0.009 A 
ATOM     32  C   UNL     1       1.837  -1.836  -3.212  0.00  0.00    -0.026 A 
ATOM     33  C   UNL     1       1.273  -2.606  -2.212  0.00  0.00    +0.054 A 
ATOM     34  C   UNL     1       0.662  -1.996  -1.129  0.00  0.00    +0.162 A 
BRANCH  29  36
ATOM     35  C   UNL     1      -0.017   1.425   0.010  0.00  0.00    +0.277 C 
ATOM     36  O   UNL     1       0.002  -0.004   0.002  0.00  0.00    -0.491 OA
ENDBRANCH  29  36
BRANCH  34  37
ATOM     37  O   UNL     1       0.112  -2.753  -0.142  0.00  0.00    -0.491 OA
ATOM     38  C   UNL     1       0.206  -4.171  -0.283  0.00  0.00    +0.277 C 
ENDBRANCH  34  37
ENDBRANCH  28  32
ENDBRANCH   1  28
TORSDOF 5
