REMARK  Name = ZINC63572419
REMARK  3 active torsions:
REMARK  status: ('A' for Active; 'I' for Inactive)
REMARK    1  A    between atoms: C_1  and  C_2
REMARK    2  A    between atoms: C_5  and  N_9
REMARK    3  A    between atoms: C_25  and  C_27
REMARK                            x       y       z     vdW  Elec       q    Type
REMARK                         _______ _______ _______ _____ _____    ______ ____
ROOT
ATOM      1  N   UNL     1       0.172  -4.392   0.194  0.00  0.00    -0.268 N 
ATOM      2  C   UNL     1       0.014  -4.958  -1.019  0.00  0.00    +0.307 C 
ATOM      3  O   UNL     1      -0.062  -4.258  -2.011  0.00  0.00    -0.252 OA
ATOM      4  N   UNL     1      -0.060  -6.299  -1.133  0.00  0.00    -0.276 N 
ATOM      5  C   UNL     1      -0.085  -7.129   0.075  0.00  0.00    +0.114 C 
ATOM      6  C   UNL     1       1.089  -8.125   0.037  0.00  0.00    +0.052 C 
ATOM      7  C   UNL     1       1.111  -8.714  -1.351  0.00  0.00    -0.035 C 
ATOM      8  C   UNL     1       1.131  -9.974  -1.770  0.00  0.00    +0.001 A 
ATOM      9  C   UNL     1       1.248 -11.247  -1.041  0.00  0.00    +0.030 A 
ATOM     10  C   UNL     1       1.213 -12.377  -1.797  0.00  0.00    +0.042 A 
ATOM     11  C   UNL     1       1.075 -12.366  -3.190  0.00  0.00    +0.022 A 
ATOM     12  C   UNL     1       0.969 -11.242  -3.941  0.00  0.00    +0.027 A 
ATOM     13  C   UNL     1       1.002  -9.991  -3.259  0.00  0.00    +0.043 A 
ATOM     14  N   UNL     1       0.945  -8.778  -3.724  0.00  0.00    -0.375 N 
ATOM     15  C   UNL     1       1.092  -7.847  -2.605  0.00  0.00    +0.131 C 
ATOM     16  C   UNL     1      -0.121  -6.913  -2.469  0.00  0.00    +0.134 C 
ATOM     17 CL   UNL     1       1.348 -13.910  -0.994  0.00  0.00    -0.084 Cl
ATOM     18  H   UNL     1       0.279  -4.952   0.980  0.00  0.00    +0.156 HD
ATOM     19  H   UNL     1       0.825  -8.532  -4.655  0.00  0.00    +0.160 HD
ENDROOT
BRANCH   1  24
ATOM     20  C   UNL     1       0.208   1.259   0.706  0.00  0.00    +0.044 C 
ATOM     21  C   UNL     1       0.198  -0.242   0.571  0.00  0.00    -0.049 A 
ATOM     22  C   UNL     1       0.585  -0.830  -0.620  0.00  0.00    +0.005 A 
ATOM     23  C   UNL     1       0.577  -2.205  -0.748  0.00  0.00    +0.025 A 
ATOM     24  C   UNL     1       0.181  -2.998   0.321  0.00  0.00    +0.053 A 
ATOM     25  C   UNL     1      -0.207  -2.405   1.516  0.00  0.00    +0.062 A 
ATOM     26  C   UNL     1      -0.192  -1.028   1.639  0.00  0.00    +0.025 A 
ATOM     27 CL   UNL     1      -0.704  -3.392   2.855  0.00  0.00    -0.082 Cl
ENDBRANCH   1  24
BRANCH  16  28
ATOM     28  C   UNL     1      -1.396  -7.703  -2.610  0.00  0.00    -0.025 A 
ATOM     29  C   UNL     1      -2.295  -7.391  -3.613  0.00  0.00    +0.008 A 
ATOM     30  C   UNL     1      -3.464  -8.116  -3.743  0.00  0.00    +0.038 A 
ATOM     31  C   UNL     1      -3.736  -9.154  -2.868  0.00  0.00    +0.123 A 
ATOM     32  C   UNL     1      -2.835  -9.465  -1.864  0.00  0.00    +0.038 A 
ATOM     33  C   UNL     1      -1.664  -8.743  -1.739  0.00  0.00    +0.008 A 
ATOM     34  F   UNL     1      -4.880  -9.862  -2.994  0.00  0.00    -0.205 F 
ENDBRANCH  16  28
TORSDOF 2
