REMARK  Name = ZINC02962977
REMARK  8 active torsions:
REMARK  status: ('A' for Active; 'I' for Inactive)
REMARK    1  A    between atoms: C_1  and  C_2
REMARK    2  A    between atoms: C_6  and  N_8
REMARK    3  A    between atoms: C_16  and  C_36
REMARK    4  A    between atoms: C_21  and  C_35
REMARK    5  A    between atoms: C_22  and  C_24
REMARK    6  A    between atoms: N_26  and  C_27
REMARK    7  A    between atoms: C_30  and  C_34
REMARK    8  A    between atoms: C_32  and  C_33
REMARK                            x       y       z     vdW  Elec       q    Type
REMARK                         _______ _______ _______ _____ _____    ______ ____
ROOT
ATOM      1  N   UNL     1      -0.205  -2.799   2.514  0.00  0.00    -0.243 N 
ATOM      2  C   UNL     1       0.026  -2.113   3.644  0.00  0.00    +0.141 C 
ATOM      3  S   UNL     1       0.227  -0.415   3.551  0.00  0.00    -0.018 S 
ATOM      4  N   UNL     1       0.105  -2.709   4.845  0.00  0.00    -0.318 N 
ATOM      5  C   UNL     1      -0.140  -4.156   4.960  0.00  0.00    +0.123 C 
ATOM      6  C   UNL     1      -1.638  -4.363   4.944  0.00  0.00    +0.016 A 
ATOM      7  C   UNL     1      -2.334  -4.311   6.138  0.00  0.00    +0.012 A 
ATOM      8  C   UNL     1      -3.704  -4.490   6.151  0.00  0.00    -0.050 A 
ATOM      9  C   UNL     1      -4.381  -4.722   4.967  0.00  0.00    +0.007 A 
ATOM     10  C   UNL     1      -3.690  -4.777   3.775  0.00  0.00    +0.046 A 
ATOM     11  C   UNL     1      -2.309  -4.600   3.757  0.00  0.00    +0.128 A 
ATOM     12  O   UNL     1      -1.660  -4.677   2.567  0.00  0.00    -0.467 OA
ATOM     13  C   UNL     1      -0.307  -4.256   2.501  0.00  0.00    +0.194 C 
ATOM     14  C   UNL     1       0.470  -4.830   3.720  0.00  0.00    +0.163 C 
ATOM     15  C   UNL     1       0.322  -4.797   1.215  0.00  0.00    +0.079 C 
ATOM     16  C   UNL     1      -4.460  -4.434   7.453  0.00  0.00    +0.044 C 
ATOM     17  H   UNL     1       0.323  -2.188   5.634  0.00  0.00    +0.148 HD
ENDROOT
BRANCH   1  23
ATOM     18  C   UNL     1       1.793  -0.237  -1.175  0.00  0.00    +0.044 C 
ATOM     19  C   UNL     1       0.593  -0.845  -0.496  0.00  0.00    -0.049 A 
ATOM     20  C   UNL     1      -0.663  -0.709  -1.060  0.00  0.00    +0.003 A 
ATOM     21  C   UNL     1      -1.766  -1.266  -0.440  0.00  0.00    +0.002 A 
ATOM     22  C   UNL     1      -1.618  -1.959   0.745  0.00  0.00    +0.023 A 
ATOM     23  C   UNL     1      -0.359  -2.097   1.314  0.00  0.00    +0.039 A 
ATOM     24  C   UNL     1       0.749  -1.542   0.686  0.00  0.00    +0.027 A 
ENDBRANCH   1  23
BRANCH  14  25
ATOM     25  C   UNL     1       0.271  -6.322   3.793  0.00  0.00    +0.228 C 
ATOM     26  O   UNL     1      -0.356  -6.894   2.927  0.00  0.00    -0.275 OA
ATOM     27  N   UNL     1       0.790  -7.020   4.822  0.00  0.00    -0.285 N 
ATOM     28  H   UNL     1       1.228  -6.555   5.553  0.00  0.00    +0.155 HD
BRANCH  27  29
ATOM     29  C   UNL     1       0.698  -8.416   4.837  0.00  0.00    +0.036 A 
ATOM     30  C   UNL     1      -0.358  -9.051   4.196  0.00  0.00    +0.024 A 
ATOM     31  C   UNL     1      -0.447 -10.429   4.213  0.00  0.00    +0.005 A 
ATOM     32  C   UNL     1       0.514 -11.177   4.867  0.00  0.00    -0.050 A 
ATOM     33  C   UNL     1       1.567 -10.549   5.507  0.00  0.00    +0.008 A 
ATOM     34  C   UNL     1       1.665  -9.171   5.489  0.00  0.00    -0.029 A 
ATOM     35  C   UNL     1       2.816  -8.487   6.180  0.00  0.00    +0.045 C 
ATOM     36  C   UNL     1       0.414 -12.681   4.884  0.00  0.00    +0.044 C 
ENDBRANCH  27  29
ENDBRANCH  14  25
TORSDOF 3
