REMARK  Name = ZINC63486568
REMARK  4 active torsions:
REMARK  status: ('A' for Active; 'I' for Inactive)
REMARK    1  A    between atoms: C_4  and  C_7
REMARK    2  A    between atoms: C_9  and  C_12
REMARK    3  A    between atoms: C_12  and  N_13
REMARK    4  A    between atoms: C_14  and  C_16
REMARK                            x       y       z     vdW  Elec       q    Type
REMARK                         _______ _______ _______ _____ _____    ______ ____
ROOT
ATOM      1  N   UNL     1       5.902  -4.122  -1.470  0.00  0.00    -0.303 N 
ATOM      2  C   UNL     1       6.405  -5.345  -1.732  0.00  0.00    +0.261 C 
ATOM      3  O   UNL     1       6.713  -6.085  -0.817  0.00  0.00    -0.269 OA
ATOM      4  H   UNL     1       5.657  -3.532  -2.200  0.00  0.00    +0.150 HD
ENDROOT
BRANCH   2   5
ATOM      5  C   UNL     1       6.581  -5.785  -3.124  0.00  0.00    +0.103 A 
ATOM      6  C   UNL     1       7.070  -6.991  -3.513  0.00  0.00    +0.041 A 
ATOM      7  C   UNL     1       7.077  -7.017  -4.929  0.00  0.00    +0.002 A 
ATOM      8  C   UNL     1       7.466  -7.979  -5.872  0.00  0.00    +0.030 A 
ATOM      9  C   UNL     1       7.354  -7.707  -7.205  0.00  0.00    +0.042 A 
ATOM     10  C   UNL     1       6.856  -6.483  -7.638  0.00  0.00    +0.022 A 
ATOM     11  C   UNL     1       6.468  -5.522  -6.730  0.00  0.00    +0.027 A 
ATOM     12  C   UNL     1       6.573  -5.777  -5.365  0.00  0.00    +0.047 A 
ATOM     13  N   UNL     1       6.269  -5.040  -4.245  0.00  0.00    -0.351 N 
ATOM     14  H   UNL     1       5.900  -4.143  -4.242  0.00  0.00    +0.166 HD
ATOM     15 CL   UNL     1       7.837  -8.899  -8.370  0.00  0.00    -0.084 Cl
ENDBRANCH   2   5
BRANCH   1  16
ATOM     16  C   UNL     1       5.728  -3.684  -0.083  0.00  0.00    +0.184 C 
BRANCH  16  19
ATOM     17  C   UNL     1       3.695  -0.684  -0.038  0.00  0.00    +0.259 A 
ATOM     18  N   UNL     1       3.854  -1.989  -0.052  0.00  0.00    -0.190 NA
ATOM     19  C   UNL     1       5.154  -2.291  -0.065  0.00  0.00    +0.189 A 
ATOM     20  N   UNL     1       5.848  -1.188  -0.060  0.00  0.00    -0.059 NA
ATOM     21  O   UNL     1       4.914  -0.118  -0.048  0.00  0.00    -0.333 OA
BRANCH  17  25
ATOM     22  C   UNL     1      -0.017   1.379   0.010  0.00  0.00    +0.000 A 
ATOM     23  C   UNL     1       1.168   2.094   0.002  0.00  0.00    +0.001 A 
ATOM     24  C   UNL     1       2.377   1.429  -0.013  0.00  0.00    +0.013 A 
ATOM     25  C   UNL     1       2.403   0.034  -0.021  0.00  0.00    +0.039 A 
ATOM     26  C   UNL     1       1.204  -0.681  -0.013  0.00  0.00    +0.013 A 
ATOM     27  C   UNL     1       0.002  -0.004   0.002  0.00  0.00    +0.001 A 
ENDBRANCH  17  25
ENDBRANCH  16  19
ENDBRANCH   1  16
TORSDOF 4
