REMARK  Name = ZINC39711361
REMARK  13 active torsions:
REMARK  status: ('A' for Active; 'I' for Inactive)
REMARK    1  A    between atoms: C_1  and  O_2
REMARK    2  A    between atoms: O_2  and  C_3
REMARK    3  A    between atoms: C_3  and  C_4
REMARK    4  A    between atoms: C_4  and  N_5
REMARK    5  A    between atoms: C_6  and  C_10
REMARK    6  A    between atoms: C_10  and  C_12
REMARK    7  A    between atoms: C_10  and  N_26
REMARK    8  A    between atoms: C_17  and  O_24
REMARK    9  A    between atoms: O_24  and  C_25
REMARK   10  A    between atoms: N_26  and  C_27
REMARK   11  A    between atoms: N_26  and  C_34
REMARK   12  A    between atoms: C_27  and  C_28
REMARK   13  A    between atoms: C_34  and  C_35
REMARK                            x       y       z     vdW  Elec       q    Type
REMARK                         _______ _______ _______ _____ _____    ______ ____
ROOT
ATOM      1  C   UNL     1      -2.656  -2.582   2.762  0.00  0.00    +0.019 C 
ENDROOT
BRANCH   1   2
ATOM      2  C   UNL     1      -3.430  -1.435   3.415  0.00  0.00    +0.092 C 
ATOM      3  C   UNL     1      -2.926  -0.135   2.820  0.00  0.00    -0.006 C 
ATOM      4  C   UNL     1      -3.841   0.667   2.206  0.00  0.00    -0.004 A 
ATOM      5  C   UNL     1      -3.439   1.940   1.606  0.00  0.00    +0.055 A 
ATOM      6  C   UNL     1      -4.387   2.710   1.004  0.00  0.00    +0.121 A 
ATOM      7  C   UNL     1      -5.726   2.306   0.952  0.00  0.00    +0.047 A 
ATOM      8  C   UNL     1      -6.159   1.137   1.490  0.00  0.00    +0.027 A 
ATOM      9  C   UNL     1      -5.258   0.269   2.135  0.00  0.00    +0.041 A 
ATOM     10  N   UNL     1      -5.696  -0.875   2.659  0.00  0.00    -0.285 N 
ATOM     11  C   UNL     1      -4.906  -1.735   3.279  0.00  0.00    +0.223 C 
ATOM     12  O   UNL     1      -5.365  -2.764   3.737  0.00  0.00    -0.275 OA
ATOM     13  H   UNL     1      -6.640  -1.087   2.583  0.00  0.00    +0.155 HD
BRANCH   6  14
ATOM     14  O   UNL     1      -4.026   3.894   0.442  0.00  0.00    -0.495 OA
ATOM     15  C   UNL     1      -5.060   4.662  -0.176  0.00  0.00    +0.277 C 
ENDBRANCH   6  14
ENDBRANCH   1   2
BRANCH   1  17
ATOM     16  N   UNL     1      -2.383  -2.585   0.226  0.00  0.00    -0.229 N 
ATOM     17  C   UNL     1      -3.121  -2.756   1.339  0.00  0.00    +0.139 A 
ATOM     18  N   UNL     1      -4.321  -3.103   0.944  0.00  0.00    -0.115 NA
ATOM     19  N   UNL     1      -4.321  -3.143  -0.343  0.00  0.00    -0.023 NA
ATOM     20  N   UNL     1      -3.153  -2.825  -0.781  0.00  0.00    -0.044 NA
BRANCH  16  21
ATOM     21  C   UNL     1      -0.972  -2.193   0.169  0.00  0.00    +0.175 C 
BRANCH  21  22
ATOM     22  C   UNL     1      -0.869  -0.669   0.084  0.00  0.00    +0.183 C 
BRANCH  22  24
ATOM     23  C   UNL     1       0.713   1.131   0.064  0.00  0.00    +0.194 C 
ATOM     24  O   UNL     1       0.505  -0.281   0.138  0.00  0.00    -0.381 OA
ENDBRANCH  22  24
ENDBRANCH  21  22
ENDBRANCH  16  21
ENDBRANCH   1  17
BRANCH   1  25
ATOM     25  N   UNL     1      -2.896  -3.824   3.510  0.00  0.00    +0.394 N 
ATOM     26  H   UNL     1      -3.885  -4.023   3.522  0.00  0.00    -0.080 HD
BRANCH  25  27
ATOM     27  C   UNL     1      -2.412  -3.666   4.888  0.00  0.00    -0.041 C 
BRANCH  27  28
ATOM     28  C   UNL     1      -0.967  -3.239   4.867  0.00  0.00    -0.064 A 
ATOM     29  C   UNL     1       0.034  -4.188   4.779  0.00  0.00    +0.002 A 
ATOM     30  C   UNL     1       1.359  -3.796   4.760  0.00  0.00    +0.000 A 
ATOM     31  C   UNL     1       1.684  -2.454   4.828  0.00  0.00    +0.000 A 
ATOM     32  C   UNL     1       0.683  -1.504   4.915  0.00  0.00    +0.000 A 
ATOM     33  C   UNL     1      -0.642  -1.896   4.930  0.00  0.00    +0.002 A 
ENDBRANCH  27  28
ENDBRANCH  25  27
BRANCH  25  34
ATOM     34  C   UNL     1      -2.181  -4.931   2.863  0.00  0.00    -0.002 C 
BRANCH  34  35
ATOM     35  C   UNL     1      -2.562  -6.230   3.525  0.00  0.00    +0.089 A 
ATOM     36  C   UNL     1      -3.529  -7.070   3.112  0.00  0.00    +0.042 A 
ATOM     37  C   UNL     1      -3.544  -8.155   4.018  0.00  0.00    +0.041 A 
ATOM     38  C   UNL     1      -2.586  -7.913   4.931  0.00  0.00    +0.195 A 
ATOM     39  O   UNL     1      -1.991  -6.749   4.624  0.00  0.00    -0.470 OA
ENDBRANCH  34  35
ENDBRANCH  25  34
ENDBRANCH   1  25
TORSDOF 11
