REMARK  Name = ZINC05669517
REMARK  3 active torsions:
REMARK  status: ('A' for Active; 'I' for Inactive)
REMARK    1  A    between atoms: C_9  and  O_24
REMARK    2  A    between atoms: C_10  and  C_11
REMARK    3  A    between atoms: N_12  and  N_13
REMARK                            x       y       z     vdW  Elec       q    Type
REMARK                         _______ _______ _______ _____ _____    ______ ____
ROOT
ATOM      1  C   UNL     1       4.982   0.093  -0.045  0.00  0.00    +0.142 C 
ATOM      2  N   UNL     1       6.110  -0.555  -0.059  0.00  0.00    -0.188 NA
ENDROOT
BRANCH   2   3
ATOM      3  N   UNL     1       7.321   0.148  -0.067  0.00  0.00    -0.219 N 
ATOM      4  C   UNL     1       8.521  -0.541  -0.082  0.00  0.00    +0.168 A 
ATOM      5  C   UNL     1       9.752   0.155  -0.084  0.00  0.00    +0.027 A 
ATOM      6  C   UNL     1       9.832   1.551  -0.072  0.00  0.00    +0.012 A 
ATOM      7  C   UNL     1      11.056   2.152  -0.075  0.00  0.00    +0.001 A 
ATOM      8  C   UNL     1      12.227   1.398  -0.090  0.00  0.00    +0.001 A 
ATOM      9  C   UNL     1      12.185   0.035  -0.102  0.00  0.00    +0.010 A 
ATOM     10  C   UNL     1      10.944  -0.614  -0.099  0.00  0.00    +0.005 A 
ATOM     11  C   UNL     1      10.819  -2.016  -0.110  0.00  0.00    +0.143 A 
ATOM     12  N   UNL     1       9.619  -2.551  -0.107  0.00  0.00    -0.155 NA
ATOM     13  N   UNL     1       8.539  -1.863  -0.088  0.00  0.00    -0.132 NA
ATOM     14  H   UNL     1       7.319   1.118  -0.062  0.00  0.00    +0.176 HD
ENDBRANCH   2   3
BRANCH   1  24
ATOM     15  C   UNL     1      -0.016   1.357   0.009  0.00  0.00    +0.001 A 
ATOM     16  C   UNL     1       1.168   2.091   0.002  0.00  0.00    +0.001 A 
ATOM     17  C   UNL     1       2.379   1.466  -0.013  0.00  0.00    +0.009 A 
ATOM     18  C   UNL     1       2.435   0.067  -0.021  0.00  0.00    -0.006 A 
ATOM     19  C   UNL     1       1.233  -0.683  -0.013  0.00  0.00    -0.017 A 
ATOM     20  C   UNL     1       0.002  -0.004   0.002  0.00  0.00    +0.008 A 
ATOM     21  C   UNL     1       1.292  -2.087  -0.021  0.00  0.00    +0.012 A 
ATOM     22  C   UNL     1       2.488  -2.733  -0.034  0.00  0.00    +0.046 A 
ATOM     23  C   UNL     1       3.697  -2.040  -0.041  0.00  0.00    +0.126 A 
ATOM     24  C   UNL     1       3.711  -0.645  -0.036  0.00  0.00    +0.044 A 
BRANCH  23  25
ATOM     25  O   UNL     1       4.868  -2.727  -0.054  0.00  0.00    -0.506 OA
ATOM     26  H   UNL     1       5.200  -2.922  -0.941  0.00  0.00    +0.292 HD
ENDBRANCH  23  25
ENDBRANCH   1  24
TORSDOF 3
