REMARK  Name = ZINC09972291
REMARK  7 active torsions:
REMARK  status: ('A' for Active; 'I' for Inactive)
REMARK    1  A    between atoms: C_1  and  C_2
REMARK    2  A    between atoms: C_2  and  C_3
REMARK    3  A    between atoms: C_3  and  N_25
REMARK    4  A    between atoms: C_5  and  C_19
REMARK    5  A    between atoms: N_25  and  C_26
REMARK    6  A    between atoms: C_26  and  C_27
REMARK    7  A    between atoms: C_27  and  C_28
REMARK                            x       y       z     vdW  Elec       q    Type
REMARK                         _______ _______ _______ _____ _____    ______ ____
ROOT
ATOM      1  C   UNL     1       2.800   4.567  -0.221  0.00  0.00    +0.018 C 
ATOM      2  C   UNL     1       3.809   3.676   0.091  0.00  0.00    +0.083 C 
ATOM      3  C   UNL     1       3.665   2.242   0.416  0.00  0.00    +0.103 C 
ATOM      4  N   UNL     1       4.865   1.779   0.653  0.00  0.00    -0.169 NA
ATOM      5  N   UNL     1       5.812   2.794   0.502  0.00  0.00    -0.131 N 
ATOM      6  C   UNL     1       5.203   3.947   0.168  0.00  0.00    +0.276 C 
ATOM      7  O   UNL     1       5.744   5.022  -0.032  0.00  0.00    -0.268 OA
ATOM      8  C   UNL     1       7.179   2.638   0.677  0.00  0.00    +0.189 A 
ATOM      9  N   UNL     1       7.850   1.557   1.000  0.00  0.00    -0.223 NA
ATOM     10  C   UNL     1       9.193   1.550   1.137  0.00  0.00    +0.080 A 
ATOM     11  C   UNL     1      10.030   0.462   1.479  0.00  0.00    +0.029 A 
ATOM     12  C   UNL     1      11.387   0.627   1.577  0.00  0.00    +0.002 A 
ATOM     13  C   UNL     1      11.987   1.857   1.346  0.00  0.00    +0.001 A 
ATOM     14  C   UNL     1      11.199   2.942   1.010  0.00  0.00    +0.017 A 
ATOM     15  C   UNL     1       9.838   2.787   0.909  0.00  0.00    +0.041 A 
ATOM     16  S   UNL     1       8.477   3.856   0.511  0.00  0.00    -0.050 S 
ENDROOT
BRANCH   3  17
ATOM     17  C   UNL     1       2.399   1.475   0.470  0.00  0.00    +0.003 A 
ATOM     18  C   UNL     1       1.901   0.865  -0.681  0.00  0.00    +0.010 A 
ATOM     19  C   UNL     1       0.722   0.150  -0.624  0.00  0.00    +0.001 A 
ATOM     20  C   UNL     1       0.034   0.039   0.571  0.00  0.00    +0.000 A 
ATOM     21  C   UNL     1       0.523   0.643   1.716  0.00  0.00    +0.001 A 
ATOM     22  C   UNL     1       1.701   1.360   1.672  0.00  0.00    +0.010 A 
ENDBRANCH   3  17
BRANCH   1  24
ATOM     23  C   UNL     1       0.834   4.418   1.283  0.00  0.00    +0.010 C 
ATOM     24  C   UNL     1       1.358   4.137  -0.126  0.00  0.00    +0.048 C 
ENDBRANCH   1  24
BRANCH   1  25
ATOM     25  N   UNL     1       3.105   5.822  -0.611  0.00  0.00    -0.346 N 
ATOM     26  H   UNL     1       4.157   6.136  -0.680  0.00  0.00    +0.146 HD
BRANCH  25  27
ATOM     27  C   UNL     1       2.035   6.767  -0.942  0.00  0.00    +0.107 C 
BRANCH  27  28
ATOM     28  C   UNL     1       2.647   8.108  -1.350  0.00  0.00    +0.075 C 
BRANCH  28  29
ATOM     29  C   UNL     1       1.547   9.080  -1.691  0.00  0.00    +0.060 A 
ATOM     30  C   UNL     1       1.368  10.297  -1.143  0.00  0.00    +0.107 A 
ATOM     31  N   UNL     1       0.262  10.840  -1.737  0.00  0.00    -0.351 N 
ATOM     32  H   UNL     1      -0.079  11.847  -1.451  0.00  0.00    +0.166 HD
ATOM     33  C   UNL     1      -0.203   9.932  -2.623  0.00  0.00    +0.196 A 
ATOM     34  N   UNL     1       0.571   8.882  -2.589  0.00  0.00    -0.241 NA
ENDBRANCH  28  29
ENDBRANCH  27  28
ENDBRANCH  25  27
ENDBRANCH   1  25
TORSDOF 6
