REMARK  Name = ZINC36340602
REMARK  11 active torsions:
REMARK  status: ('A' for Active; 'I' for Inactive)
REMARK    1  A    between atoms: C_1  and  C_2
REMARK    2  A    between atoms: C_6  and  C_8
REMARK    3  A    between atoms: C_8  and  C_9
REMARK    4  A    between atoms: C_10  and  C_38
REMARK    5  A    between atoms: C_12  and  C_32
REMARK    6  A    between atoms: C_14  and  N_15
REMARK    7  A    between atoms: N_18  and  C_21
REMARK    8  A    between atoms: C_21  and  C_22
REMARK    9  A    between atoms: C_22  and  C_24
REMARK   10  A    between atoms: C_22  and  O_31
REMARK   11  A    between atoms: C_24  and  N_25
REMARK                            x       y       z     vdW  Elec       q    Type
REMARK                         _______ _______ _______ _____ _____    ______ ____
ROOT
ATOM      1  C   UNL     1       2.532  -2.996   2.720  0.00  0.00    +0.018 A 
ATOM      2  C   UNL     1       3.338  -4.092   2.477  0.00  0.00    +0.047 A 
ATOM      3  N   UNL     1       3.739  -4.840   3.493  0.00  0.00    -0.232 NA
ATOM      4  C   UNL     1       3.378  -4.551   4.736  0.00  0.00    +0.162 A 
ATOM      5  N   UNL     1       2.606  -3.509   5.011  0.00  0.00    -0.212 NA
ATOM      6  C   UNL     1       2.172  -2.713   4.040  0.00  0.00    +0.129 A 
ATOM      7  C   UNL     1       3.755  -4.433   1.069  0.00  0.00    +0.066 C 
ENDROOT
BRANCH   6   8
ATOM      8  N   UNL     1       1.370  -1.621   4.332  0.00  0.00    -0.312 N 
ATOM      9  C   UNL     1      -0.093  -1.709   4.220  0.00  0.00    +0.122 C 
ATOM     10  C   UNL     1      -0.713  -1.203   5.527  0.00  0.00    +0.103 C 
ATOM     11  N   UNL     1      -0.191   0.137   5.826  0.00  0.00    -0.297 NA
ATOM     12  C   UNL     1       1.261   0.108   6.047  0.00  0.00    +0.103 C 
ATOM     13  C   UNL     1       1.960  -0.346   4.766  0.00  0.00    +0.122 C 
BRANCH  11  14
ATOM     14  C   UNL     1      -0.887   0.728   6.977  0.00  0.00    +0.114 C 
BRANCH  14  15
ATOM     15  C   UNL     1      -2.276   1.203   6.545  0.00  0.00    +0.112 C 
BRANCH  15  16
ATOM     16  O   UNL     1      -2.144   2.202   5.531  0.00  0.00    -0.392 OA
ATOM     17  H   UNL     1      -1.649   2.984   5.812  0.00  0.00    +0.210 HD
ENDBRANCH  15  16
BRANCH  15  18
ATOM     18  C   UNL     1      -3.011   1.794   7.750  0.00  0.00    -0.046 C 
BRANCH  18  19
ATOM     19  N   UNL     1      -4.330   2.283   7.327  0.00  0.00    +0.381 N 
ATOM     20  C   UNL     1      -4.980   2.966   8.452  0.00  0.00    -0.079 C 
ATOM     21  C   UNL     1      -6.319   3.548   7.995  0.00  0.00    -0.019 C 
ATOM     22  C   UNL     1      -7.219   2.414   7.496  0.00  0.00    -0.004 C 
ATOM     23  C   UNL     1      -6.499   1.661   6.372  0.00  0.00    -0.019 C 
ATOM     24  C   UNL     1      -5.153   1.149   6.890  0.00  0.00    -0.079 C 
ATOM     25  H   UNL     1      -4.218   2.931   6.562  0.00  0.00    -0.082 HD
ENDBRANCH  18  19
ENDBRANCH  15  18
ENDBRANCH  14  15
ENDBRANCH  11  14
ENDBRANCH   6   8
BRANCH   4  26
ATOM     26  C   UNL     1       3.849  -5.415   5.845  0.00  0.00    +0.019 A 
ATOM     27  C   UNL     1       3.477  -5.133   7.158  0.00  0.00    +0.011 A 
ATOM     28  C   UNL     1       3.918  -5.941   8.187  0.00  0.00    +0.001 A 
ATOM     29  C   UNL     1       4.728  -7.029   7.916  0.00  0.00    +0.000 A 
ATOM     30  C   UNL     1       5.101  -7.314   6.614  0.00  0.00    +0.001 A 
ATOM     31  C   UNL     1       4.660  -6.516   5.578  0.00  0.00    +0.011 A 
ENDBRANCH   4  26
BRANCH   1  32
ATOM     32  C   UNL     1       2.057  -2.122   1.588  0.00  0.00    +0.075 C 
BRANCH  32  38
ATOM     33  C   UNL     1       3.901   2.504   2.080  0.00  0.00    +0.044 C 
ATOM     34  C   UNL     1       3.996   1.116   1.501  0.00  0.00    -0.050 A 
ATOM     35  C   UNL     1       5.054   0.782   0.676  0.00  0.00    +0.003 A 
ATOM     36  C   UNL     1       5.141  -0.491   0.145  0.00  0.00    +0.001 A 
ATOM     37  C   UNL     1       4.171  -1.431   0.440  0.00  0.00    +0.004 A 
ATOM     38  C   UNL     1       3.115  -1.098   1.266  0.00  0.00    -0.043 A 
ATOM     39  C   UNL     1       3.030   0.175   1.801  0.00  0.00    +0.007 A 
ENDBRANCH  32  38
ENDBRANCH   1  32
TORSDOF 9
