REMARK  Name = ZINC19760008
REMARK  7 active torsions:
REMARK  status: ('A' for Active; 'I' for Inactive)
REMARK    1  A    between atoms: C_3  and  N_28
REMARK    2  A    between atoms: C_6  and  C_7
REMARK    3  A    between atoms: C_7  and  N_8
REMARK    4  A    between atoms: C_9  and  C_11
REMARK    5  A    between atoms: C_11  and  C_12
REMARK    6  A    between atoms: N_19  and  C_20
REMARK    7  A    between atoms: C_20  and  C_21
REMARK                            x       y       z     vdW  Elec       q    Type
REMARK                         _______ _______ _______ _____ _____    ______ ____
ROOT
ATOM      1  C   UNL     1      -1.144   3.353   0.092  0.00  0.00    +0.089 C 
ENDROOT
BRANCH   1   2
ATOM      2  C   UNL     1      -2.544   3.956   0.221  0.00  0.00    +0.028 C 
ATOM      3  C   UNL     1      -3.450   3.337  -0.805  0.00  0.00    +0.200 C 
ATOM      4  O   UNL     1      -3.029   3.174  -1.930  0.00  0.00    -0.278 OA
ATOM      5  N   UNL     1      -4.703   2.961  -0.532  0.00  0.00    -0.318 N 
ATOM      6  C   UNL     1      -5.295   3.079   0.797  0.00  0.00    +0.085 C 
ATOM      7  C   UNL     1      -4.487   4.064   1.645  0.00  0.00    -0.058 C 
ATOM      8  N   UNL     1      -3.064   3.696   1.570  0.00  0.00    +0.391 N 
ATOM      9  H   UNL     1      -5.294   2.547  -1.363  0.00  0.00    +0.149 HD
ATOM     10  H   UNL     1      -2.968   2.620   1.778  0.00  0.00    -0.080 HD
BRANCH   8  11
ATOM     11  C   UNL     1      -2.281   4.414   2.584  0.00  0.00    -0.042 C 
BRANCH  11  12
ATOM     12  C   UNL     1      -2.701   3.960   3.958  0.00  0.00    -0.064 A 
ATOM     13  C   UNL     1      -3.720   4.617   4.622  0.00  0.00    +0.004 A 
ATOM     14  C   UNL     1      -4.109   4.198   5.880  0.00  0.00    +0.038 A 
ATOM     15  C   UNL     1      -3.471   3.126   6.480  0.00  0.00    +0.123 A 
ATOM     16  C   UNL     1      -2.447   2.472   5.817  0.00  0.00    +0.038 A 
ATOM     17  C   UNL     1      -2.062   2.889   4.557  0.00  0.00    +0.004 A 
ATOM     18  F   UNL     1      -3.848   2.719   7.712  0.00  0.00    -0.205 F 
ENDBRANCH  11  12
ENDBRANCH   8  11
ENDBRANCH   1   2
BRANCH   1  20
ATOM     19  N   UNL     1      -0.066   1.153   0.436  0.00  0.00    -0.311 N 
ATOM     20  C   UNL     1      -1.201   1.880   0.406  0.00  0.00    +0.212 C 
ATOM     21  O   UNL     1      -2.267   1.349   0.630  0.00  0.00    -0.276 OA
ATOM     22  H   UNL     1       0.901   1.635   0.232  0.00  0.00    +0.149 HD
BRANCH  19  23
ATOM     23  C   UNL     1      -0.121  -0.279   0.741  0.00  0.00    +0.139 C 
BRANCH  23  29
ATOM     24  C   UNL     1       1.776  -1.366  -0.475  0.00  0.00    +0.007 A 
ATOM     25  C   UNL     1       3.054  -1.889  -0.513  0.00  0.00    +0.024 A 
ATOM     26  C   UNL     1       3.828  -1.911   0.640  0.00  0.00    +0.036 A 
ATOM     27  C   UNL     1       3.315  -1.400   1.826  0.00  0.00    +0.024 A 
ATOM     28  C   UNL     1       2.039  -0.874   1.855  0.00  0.00    +0.007 A 
ATOM     29  C   UNL     1       1.271  -0.854   0.706  0.00  0.00    -0.030 A 
BRANCH  26  30
ATOM     30  N   UNL     1       5.120  -2.444   0.607  0.00  0.00    -0.271 N 
ATOM     31  C   UNL     1       5.702  -3.135  -0.550  0.00  0.00    +0.114 C 
ATOM     32  C   UNL     1       7.228  -3.145  -0.297  0.00  0.00    +0.029 C 
ATOM     33  C   UNL     1       7.290  -3.059   1.245  0.00  0.00    +0.098 C 
ATOM     34  C   UNL     1       5.988  -2.395   1.633  0.00  0.00    +0.220 C 
ATOM     35  O   UNL     1       5.759  -1.892   2.713  0.00  0.00    -0.275 OA
ENDBRANCH  26  30
ENDBRANCH  23  29
ENDBRANCH  19  23
ENDBRANCH   1  20
TORSDOF 7
