REMARK  Name = ZINC29580517
REMARK  4 active torsions:
REMARK  status: ('A' for Active; 'I' for Inactive)
REMARK    1  A    between atoms: C_1  and  C_2
REMARK    2  A    between atoms: C_2  and  C_19
REMARK    3  A    between atoms: N_5  and  N_9
REMARK    4  A    between atoms: C_10  and  C_12
REMARK                            x       y       z     vdW  Elec       q    Type
REMARK                         _______ _______ _______ _____ _____    ______ ____
ROOT
ATOM      1  C   UNL     1       6.555   2.101   0.441  0.00  0.00    +0.047 C 
ATOM      2  C   UNL     1       5.810   1.985  -0.890  0.00  0.00    +0.137 C 
ATOM      3  C   UNL     1       4.626   1.047  -0.759  0.00  0.00    +0.267 C 
ATOM      4  O   UNL     1       4.652  -0.129  -0.468  0.00  0.00    -0.271 OA
ATOM      5  N   UNL     1       3.538   1.794  -1.033  0.00  0.00    -0.137 N 
ATOM      6  C   UNL     1       3.867   3.058  -1.321  0.00  0.00    +0.327 C 
ATOM      7  O   UNL     1       3.058   3.919  -1.606  0.00  0.00    -0.251 OA
ATOM      8  N   UNL     1       5.194   3.271  -1.258  0.00  0.00    -0.280 N 
ATOM      9  H   UNL     1       5.825   4.157  -1.419  0.00  0.00    +0.152 HD
ENDROOT
BRANCH   2  10
ATOM     10  C   UNL     1       6.741   1.513  -1.977  0.00  0.00    -0.015 A 
ATOM     11  C   UNL     1       6.851   0.164  -2.256  0.00  0.00    +0.006 A 
ATOM     12  C   UNL     1       7.701  -0.269  -3.257  0.00  0.00    +0.000 A 
ATOM     13  C   UNL     1       8.450   0.648  -3.971  0.00  0.00    +0.000 A 
ATOM     14  C   UNL     1       8.345   1.997  -3.688  0.00  0.00    +0.000 A 
ATOM     15  C   UNL     1       7.490   2.429  -2.692  0.00  0.00    +0.006 A 
ENDBRANCH   2  10
BRANCH   5  16
ATOM     16  N   UNL     1       2.225   1.305  -1.023  0.00  0.00    -0.223 N 
ATOM     17  C   UNL     1       1.400   1.612  -0.003  0.00  0.00    +0.233 C 
ATOM     18  O   UNL     1       1.793   2.310   0.907  0.00  0.00    -0.274 OA
ATOM     19  H   UNL     1       1.868   0.671  -1.848  0.00  0.00    +0.174 HD
BRANCH  17  20
ATOM     20  C   UNL     1      -0.013   1.086   0.008  0.00  0.00    +0.080 C 
ATOM     21  C   UNL     1      -0.739   1.585   1.264  0.00  0.00    +0.017 C 
ATOM     22  C   UNL     1      -2.101   0.891   1.342  0.00  0.00    +0.027 C 
ATOM     23  C   UNL     1      -2.813   0.999   0.025  0.00  0.00    -0.031 C 
ATOM     24  C   UNL     1      -2.231   1.302  -1.091  0.00  0.00    -0.030 C 
ATOM     25  C   UNL     1      -0.761   1.597  -1.225  0.00  0.00    +0.039 C 
ENDBRANCH  17  20
ENDBRANCH   5  16
TORSDOF 3
