REMARK  Name = ZINC01876441
REMARK  7 active torsions:
REMARK  status: ('A' for Active; 'I' for Inactive)
REMARK    1  A    between atoms: C_9  and  O_36
REMARK    2  A    between atoms: C_10  and  C_11
REMARK    3  A    between atoms: N_12  and  N_13
REMARK    4  A    between atoms: C_14  and  C_16
REMARK    5  A    between atoms: C_16  and  S_17
REMARK    6  A    between atoms: S_17  and  C_18
REMARK    7  A    between atoms: N_28  and  C_29
REMARK                            x       y       z     vdW  Elec       q    Type
REMARK                         _______ _______ _______ _____ _____    ______ ____
ROOT
ATOM      1  C   UNL     1      10.524   0.270   2.176  0.00  0.00    +0.174 C 
ENDROOT
BRANCH   1   3
ATOM      2  N   UNL     1       8.506   0.208   3.604  0.00  0.00    -0.206 N 
ATOM      3  C   UNL     1       9.469  -0.473   2.953  0.00  0.00    +0.242 C 
ATOM      4  O   UNL     1       9.486  -1.686   2.992  0.00  0.00    -0.273 OA
ATOM      5  H   UNL     1       8.492   1.178   3.573  0.00  0.00    +0.177 HD
BRANCH   2   7
ATOM      6  C   UNL     1       6.597   0.174   4.955  0.00  0.00    +0.142 C 
ATOM      7  N   UNL     1       7.525  -0.483   4.327  0.00  0.00    -0.188 NA
BRANCH   6  17
ATOM      8  C   UNL     1       2.498   1.485   7.797  0.00  0.00    +0.001 A 
ATOM      9  C   UNL     1       3.457   2.208   7.090  0.00  0.00    +0.001 A 
ATOM     10  C   UNL     1       4.453   1.571   6.412  0.00  0.00    +0.009 A 
ATOM     11  C   UNL     1       4.516   0.172   6.426  0.00  0.00    -0.006 A 
ATOM     12  C   UNL     1       3.543  -0.565   7.144  0.00  0.00    -0.017 A 
ATOM     13  C   UNL     1       2.530   0.124   7.832  0.00  0.00    +0.008 A 
ATOM     14  C   UNL     1       3.608  -1.969   7.157  0.00  0.00    +0.012 A 
ATOM     15  C   UNL     1       4.594  -2.626   6.490  0.00  0.00    +0.046 A 
ATOM     16  C   UNL     1       5.573  -1.945   5.769  0.00  0.00    +0.126 A 
ATOM     17  C   UNL     1       5.567  -0.551   5.714  0.00  0.00    +0.044 A 
BRANCH  16  18
ATOM     18  O   UNL     1       6.539  -2.642   5.117  0.00  0.00    -0.506 OA
ATOM     19  H   UNL     1       6.309  -2.875   4.207  0.00  0.00    +0.292 HD
ENDBRANCH  16  18
ENDBRANCH   6  17
ENDBRANCH   2   7
ENDBRANCH   1   3
BRANCH   1  20
ATOM     20  S   UNL     1      11.667  -0.917   1.418  0.00  0.00    -0.078 S 
BRANCH  20  21
ATOM     21  C   UNL     1      12.825   0.094   0.557  0.00  0.00    +0.177 A 
ATOM     22  N   UNL     1      12.679   1.395   0.612  0.00  0.00    -0.223 NA
ATOM     23  C   UNL     1      13.528   2.228  -0.023  0.00  0.00    +0.079 A 
ATOM     24  C   UNL     1      13.373   3.616   0.036  0.00  0.00    +0.028 A 
ATOM     25  C   UNL     1      14.257   4.424  -0.622  0.00  0.00    +0.002 A 
ATOM     26  C   UNL     1      15.311   3.887  -1.350  0.00  0.00    +0.001 A 
ATOM     27  C   UNL     1      15.489   2.533  -1.426  0.00  0.00    +0.015 A 
ATOM     28  C   UNL     1      14.602   1.685  -0.765  0.00  0.00    +0.065 A 
ATOM     29  C   UNL     1      14.745   0.224  -0.812  0.00  0.00    +0.267 A 
ATOM     30  O   UNL     1      15.649  -0.302  -1.434  0.00  0.00    -0.267 OA
ATOM     31  N   UNL     1      13.837  -0.515  -0.132  0.00  0.00    -0.255 N 
BRANCH  31  32
ATOM     32  C   UNL     1      13.931  -1.913  -0.140  0.00  0.00    +0.052 A 
ATOM     33  C   UNL     1      13.286  -2.648  -1.125  0.00  0.00    +0.028 A 
ATOM     34  C   UNL     1      13.381  -4.026  -1.130  0.00  0.00    +0.022 A 
ATOM     35  C   UNL     1      14.118  -4.674  -0.155  0.00  0.00    +0.041 A 
ATOM     36  C   UNL     1      14.763  -3.943   0.828  0.00  0.00    +0.022 A 
ATOM     37  C   UNL     1      14.675  -2.565   0.835  0.00  0.00    +0.028 A 
ATOM     38 CL   UNL     1      14.235  -6.406  -0.165  0.00  0.00    -0.084 Cl
ENDBRANCH  31  32
ENDBRANCH  20  21
ENDBRANCH   1  20
TORSDOF 7
