REMARK  Name = ZINC39441834
REMARK  6 active torsions:
REMARK  status: ('A' for Active; 'I' for Inactive)
REMARK    1  A    between atoms: C_1  and  C_2
REMARK    2  A    between atoms: C_4  and  N_9
REMARK    3  A    between atoms: C_5  and  C_8
REMARK    4  A    between atoms: C_10  and  C_12
REMARK    5  A    between atoms: C_17  and  C_26
REMARK    6  A    between atoms: C_19  and  C_22
REMARK                            x       y       z     vdW  Elec       q    Type
REMARK                         _______ _______ _______ _____ _____    ______ ____
ROOT
ATOM      1  C   UNL     1      -4.686  -0.975  -1.683  0.00  0.00    +0.185 C 
ATOM      2  C   UNL     1      -4.214  -1.566  -2.991  0.00  0.00    +0.047 C 
ATOM      3  C   UNL     1      -5.032  -2.603  -3.267  0.00  0.00    +0.138 C 
ATOM      4  N   UNL     1      -5.016  -3.448  -4.328  0.00  0.00    -0.231 NA
ATOM      5  C   UNL     1      -5.901  -4.416  -4.436  0.00  0.00    +0.075 C 
ATOM      6  C   UNL     1      -6.891  -4.592  -3.438  0.00  0.00    +0.057 C 
ATOM      7  C   UNL     1      -6.920  -3.762  -2.377  0.00  0.00    +0.133 C 
ATOM      8  N   UNL     1      -5.990  -2.754  -2.275  0.00  0.00    -0.213 N 
ATOM      9  N   UNL     1      -5.839  -1.807  -1.295  0.00  0.00    -0.218 NA
ATOM     10  H   UNL     1      -5.688  -2.237  -0.395  0.00  0.00    +0.146 HD
ENDROOT
BRANCH   5  11
ATOM     11  C   UNL     1      -5.862  -5.324  -5.605  0.00  0.00    +0.001 A 
ATOM     12  C   UNL     1      -6.801  -6.349  -5.727  0.00  0.00    +0.013 A 
ATOM     13  C   UNL     1      -6.761  -7.192  -6.817  0.00  0.00    +0.039 A 
ATOM     14  C   UNL     1      -5.789  -7.024  -7.791  0.00  0.00    +0.123 A 
ATOM     15  C   UNL     1      -4.853  -6.008  -7.674  0.00  0.00    +0.039 A 
ATOM     16  C   UNL     1      -4.889  -5.155  -6.591  0.00  0.00    +0.013 A 
ATOM     17  F   UNL     1      -5.753  -7.853  -8.857  0.00  0.00    -0.205 F 
ENDBRANCH   5  11
BRANCH   1  19
ATOM     18  N   UNL     1      -2.439  -0.404  -0.822  0.00  0.00    -0.284 N 
ATOM     19  C   UNL     1      -3.599  -1.065  -0.642  0.00  0.00    +0.240 C 
ATOM     20  O   UNL     1      -3.769  -1.732   0.356  0.00  0.00    -0.273 OA
ATOM     21  H   UNL     1      -2.330   0.188  -1.583  0.00  0.00    +0.155 HD
BRANCH  18  24
ATOM     22  C   UNL     1      -0.056  -2.534  -0.701  0.00  0.00    +0.041 C 
ATOM     23  C   UNL     1      -0.725  -1.858   0.498  0.00  0.00    +0.171 C 
ATOM     24  C   UNL     1      -1.407  -0.568   0.076  0.00  0.00    +0.059 C 
ATOM     25  C   UNL     1      -0.762   0.381   0.788  0.00  0.00    +0.079 C 
ATOM     26  N   UNL     1       0.187  -0.168   1.556  0.00  0.00    -0.157 NA
ATOM     27  N   UNL     1       0.284  -1.398   1.467  0.00  0.00    -0.178 NA
ATOM     28  C   UNL     1      -1.068   1.855   0.728  0.00  0.00    +0.069 C 
ENDBRANCH  18  24
ENDBRANCH   1  19
BRANCH   7  29
ATOM     29  C   UNL     1      -7.968  -3.937  -1.307  0.00  0.00    +0.432 C 
ATOM     30  F   UNL     1      -8.791  -5.020  -1.633  0.00  0.00    -0.165 F 
ATOM     31  F   UNL     1      -7.343  -4.178  -0.079  0.00  0.00    -0.165 F 
ATOM     32  F   UNL     1      -8.741  -2.774  -1.217  0.00  0.00    -0.165 F 
ENDBRANCH   7  29
TORSDOF 4
