REMARK  Name = ZINC37030487
REMARK  7 active torsions:
REMARK  status: ('A' for Active; 'I' for Inactive)
REMARK    1  A    between atoms: C_1  and  C_2
REMARK    2  A    between atoms: C_2  and  C_3
REMARK    3  A    between atoms: C_3  and  C_5
REMARK    4  A    between atoms: C_3  and  C_6
REMARK    5  A    between atoms: C_6  and  N_7
REMARK    6  A    between atoms: N_7  and  C_8
REMARK    7  A    between atoms: C_11  and  C_14
REMARK                            x       y       z     vdW  Elec       q    Type
REMARK                         _______ _______ _______ _____ _____    ______ ____
ROOT
ATOM      1  C   UNL     1       1.894  -3.845  -2.518  0.00  0.00    +0.027 A 
ATOM      2  C   UNL     1       1.394  -4.763  -1.601  0.00  0.00    +0.023 A 
ATOM      3  C   UNL     1       1.646  -6.108  -1.765  0.00  0.00    +0.012 A 
ATOM      4  C   UNL     1       2.401  -6.548  -2.851  0.00  0.00    +0.002 A 
ATOM      5  C   UNL     1       2.901  -5.626  -3.769  0.00  0.00    +0.012 A 
ATOM      6  C   UNL     1       2.643  -4.282  -3.604  0.00  0.00    +0.023 A 
ENDROOT
BRANCH   4   7
ATOM      7  C   UNL     1       2.673  -7.996  -3.029  0.00  0.00    +0.096 A 
ATOM      8  C   UNL     1       3.422  -8.574  -4.072  0.00  0.00    +0.101 A 
ATOM      9  C   UNL     1       3.438  -9.917  -3.877  0.00  0.00    +0.267 A 
ATOM     10  O   UNL     1       4.056 -10.833  -4.665  0.00  0.00    -0.266 OA
ATOM     11  N   UNL     1       2.725 -10.180  -2.752  0.00  0.00    -0.243 N 
ATOM     12  H   UNL     1       2.568 -11.057  -2.369  0.00  0.00    +0.192 HD
ATOM     13  N   UNL     1       2.261  -8.963  -2.237  0.00  0.00    -0.171 NA
ENDBRANCH   4   7
BRANCH   1  14
ATOM     14  N   UNL     1       1.639  -2.482  -2.350  0.00  0.00    -0.344 N 
ATOM     15  H   UNL     1       1.984  -1.842  -2.991  0.00  0.00    +0.146 HD
BRANCH  14  16
ATOM     16  C   UNL     1       0.849  -2.021  -1.205  0.00  0.00    +0.104 C 
BRANCH  16  17
ATOM     17  C   UNL     1       0.718  -0.497  -1.257  0.00  0.00    +0.003 C 
ATOM     18  C   UNL     1      -0.089  -0.097  -2.493  0.00  0.00    +0.009 C 
BRANCH  17  20
ATOM     19  C   UNL     1      -0.019   1.526   0.010  0.00  0.00    +0.004 C 
ATOM     20  C   UNL     1       0.002  -0.004   0.002  0.00  0.00    +0.001 C 
ENDBRANCH  17  20
ENDBRANCH  16  17
ENDBRANCH  14  16
ENDBRANCH   1  14
TORSDOF 5
