REMARK  Name = ZINC16956864
REMARK  5 active torsions:
REMARK  status: ('A' for Active; 'I' for Inactive)
REMARK    1  A    between atoms: C_3  and  O_26
REMARK    2  A    between atoms: C_6  and  C_7
REMARK    3  A    between atoms: N_8  and  N_9
REMARK    4  A    between atoms: C_10  and  C_12
REMARK    5  A    between atoms: C_14  and  C_18
REMARK                            x       y       z     vdW  Elec       q    Type
REMARK                         _______ _______ _______ _____ _____    ______ ____
ROOT
ATOM      1  N   UNL     1      -2.446  -2.778   0.011  0.00  0.00    -0.202 N 
ATOM      2  C   UNL     1      -2.425  -4.125   0.004  0.00  0.00    +0.281 C 
ATOM      3  O   UNL     1      -1.362  -4.717  -0.010  0.00  0.00    -0.267 OA
ATOM      4  H   UNL     1      -3.293  -2.306   0.022  0.00  0.00    +0.178 HD
ENDROOT
BRANCH   2   5
ATOM      5  C   UNL     1      -3.688  -4.880   0.013  0.00  0.00    +0.122 A 
ATOM      6  C   UNL     1      -3.830  -6.255   0.012  0.00  0.00    +0.062 A 
ATOM      7  C   UNL     1      -5.218  -6.485   0.022  0.00  0.00    +0.093 A 
ATOM      8  N   UNL     1      -5.815  -5.312   0.028  0.00  0.00    -0.173 NA
ATOM      9  N   UNL     1      -4.952  -4.361   0.028  0.00  0.00    -0.272 N 
ATOM     10  H   UNL     1      -5.165  -3.415   0.036  0.00  0.00    +0.189 HD
BRANCH   7  11
ATOM     11  C   UNL     1      -5.887  -7.810   0.025  0.00  0.00    +0.004 A 
ATOM     12  C   UNL     1      -5.126  -8.977   0.024  0.00  0.00    +0.011 A 
ATOM     13  C   UNL     1      -5.753 -10.207   0.027  0.00  0.00    +0.022 A 
ATOM     14  C   UNL     1      -7.135 -10.283   0.032  0.00  0.00    +0.059 A 
ATOM     15  C   UNL     1      -7.896  -9.125   0.033  0.00  0.00    +0.060 A 
ATOM     16  C   UNL     1      -7.278  -7.890   0.035  0.00  0.00    +0.031 A 
ATOM     17 CL   UNL     1      -9.629  -9.227   0.038  0.00  0.00    -0.082 Cl
ATOM     18 CL   UNL     1      -7.917 -11.832   0.036  0.00  0.00    -0.082 Cl
ENDBRANCH   7  11
ENDBRANCH   2   5
BRANCH   1  20
ATOM     19  C   UNL     1      -1.263  -0.761   0.011  0.00  0.00    +0.138 C 
ATOM     20  N   UNL     1      -1.243  -2.059   0.003  0.00  0.00    -0.187 NA
BRANCH  19  26
ATOM     21  C   UNL     1      -0.017   1.393   0.010  0.00  0.00    +0.013 A 
ATOM     22  C   UNL     1       1.168   2.096   0.002  0.00  0.00    +0.046 A 
ATOM     23  C   UNL     1       2.380   1.418  -0.013  0.00  0.00    +0.117 A 
ATOM     24  C   UNL     1       2.404   0.029  -0.021  0.00  0.00    +0.046 A 
ATOM     25  C   UNL     1       1.224  -0.682  -0.014  0.00  0.00    +0.013 A 
ATOM     26  C   UNL     1       0.002  -0.004   0.002  0.00  0.00    -0.005 A 
BRANCH  23  27
ATOM     27  O   UNL     1       3.546   2.115  -0.020  0.00  0.00    -0.507 OA
ATOM     28  H   UNL     1       3.892   2.313   0.861  0.00  0.00    +0.292 HD
ENDBRANCH  23  27
ENDBRANCH  19  26
ENDBRANCH   1  20
TORSDOF 5
