REMARK  Name = ZINC02953394
REMARK  10 active torsions:
REMARK  status: ('A' for Active; 'I' for Inactive)
REMARK    1  A    between atoms: C_1  and  C_2
REMARK    2  A    between atoms: C_5  and  C_8
REMARK    3  A    between atoms: C_8  and  N_9
REMARK    4  A    between atoms: N_12  and  C_20
REMARK    5  A    between atoms: C_20  and  N_22
REMARK    6  A    between atoms: N_22  and  C_23
REMARK    7  A    between atoms: C_23  and  C_24
REMARK    8  A    between atoms: N_26  and  C_27
REMARK    9  A    between atoms: C_27  and  C_29
REMARK   10  A    between atoms: C_27  and  C_30
REMARK                            x       y       z     vdW  Elec       q    Type
REMARK                         _______ _______ _______ _____ _____    ______ ____
ROOT
ATOM      1  N   UNL     1      -1.873   1.264  -1.274  0.00  0.00    +0.388 N 
ATOM      2  C   UNL     1      -2.607   1.879  -0.159  0.00  0.00    -0.058 C 
ATOM      3  C   UNL     1      -2.094   1.304   1.165  0.00  0.00    +0.088 C 
ATOM      4  N   UNL     1      -0.630   1.474   1.217  0.00  0.00    -0.316 N 
ATOM      5  C   UNL     1       0.160   1.005   0.068  0.00  0.00    +0.095 C 
ATOM      6  C   UNL     1      -0.443   1.591  -1.214  0.00  0.00    -0.049 C 
ATOM      7  C   UNL     1       0.271   0.996  -2.429  0.00  0.00    -0.010 C 
ATOM      8  C   UNL     1       1.761   1.334  -2.360  0.00  0.00    -0.001 C 
ATOM      9  C   UNL     1       1.940   2.853  -2.356  0.00  0.00    -0.000 C 
ATOM     10  C   UNL     1       1.226   3.448  -1.141  0.00  0.00    -0.001 C 
ATOM     11  C   UNL     1      -0.264   3.111  -1.209  0.00  0.00    -0.010 C 
ATOM     12  H   UNL     1      -1.971   0.173  -1.178  0.00  0.00    -0.080 HD
ENDROOT
BRANCH   4  13
ATOM     13  C   UNL     1      -0.031   2.044   2.281  0.00  0.00    +0.133 C 
ATOM     14  S   UNL     1      -0.955   2.462   3.660  0.00  0.00    -0.019 S 
BRANCH  13  15
ATOM     15  N   UNL     1       1.295   2.284   2.260  0.00  0.00    -0.318 N 
ATOM     16  H   UNL     1       1.873   2.095   1.343  0.00  0.00    +0.148 HD
BRANCH  15  17
ATOM     17  C   UNL     1       1.966   2.799   3.456  0.00  0.00    +0.199 C 
BRANCH  17  18
ATOM     18  C   UNL     1       3.434   2.980   3.171  0.00  0.00    +0.231 C 
ATOM     19  O   UNL     1       3.877   2.707   2.075  0.00  0.00    -0.274 OA
ATOM     20  N   UNL     1       4.255   3.446   4.132  0.00  0.00    -0.307 N 
ATOM     21  H   UNL     1       3.854   3.693   5.126  0.00  0.00    +0.149 HD
BRANCH  20  22
ATOM     22  C   UNL     1       5.683   3.622   3.854  0.00  0.00    +0.100 C 
ATOM     23  C   UNL     1       6.413   2.296   4.077  0.00  0.00    +0.033 C 
BRANCH  22  24
ATOM     24  C   UNL     1       6.249   4.669   4.779  0.00  0.00    -0.027 A 
ATOM     25  C   UNL     1       5.846   4.715   6.100  0.00  0.00    +0.005 A 
ATOM     26  C   UNL     1       6.369   5.673   6.949  0.00  0.00    +0.000 A 
ATOM     27  C   UNL     1       7.287   6.591   6.474  0.00  0.00    +0.000 A 
ATOM     28  C   UNL     1       7.686   6.548   5.151  0.00  0.00    +0.000 A 
ATOM     29  C   UNL     1       7.167   5.587   4.303  0.00  0.00    +0.005 A 
ENDBRANCH  22  24
ENDBRANCH  20  22
ENDBRANCH  17  18
ENDBRANCH  15  17
ENDBRANCH  13  15
ENDBRANCH   4  13
BRANCH   1  30
ATOM     30  C   UNL     1      -2.450   1.660  -2.566  0.00  0.00    -0.042 C 
BRANCH  30  35
ATOM     31  C   UNL     1      -7.606  -0.864  -3.229  0.00  0.00    +0.044 C 
ATOM     32  C   UNL     1      -6.261  -0.206  -3.056  0.00  0.00    -0.050 A 
ATOM     33  C   UNL     1      -6.171   1.035  -2.453  0.00  0.00    +0.003 A 
ATOM     34  C   UNL     1      -4.938   1.639  -2.295  0.00  0.00    +0.002 A 
ATOM     35  C   UNL     1      -3.794   1.002  -2.738  0.00  0.00    -0.064 A 
ATOM     36  C   UNL     1      -3.885  -0.237  -3.345  0.00  0.00    +0.002 A 
ATOM     37  C   UNL     1      -5.117  -0.843  -3.500  0.00  0.00    +0.003 A 
ENDBRANCH  30  35
ENDBRANCH   1  30
TORSDOF 8
