REMARK  Name = ZINC32948227
REMARK  11 active torsions:
REMARK  status: ('A' for Active; 'I' for Inactive)
REMARK    1  A    between atoms: C_1  and  C_2
REMARK    2  A    between atoms: C_2  and  C_3
REMARK    3  A    between atoms: C_3  and  C_5
REMARK    4  A    between atoms: C_3  and  C_6
REMARK    5  A    between atoms: C_9  and  C_12
REMARK    6  A    between atoms: C_12  and  C_14
REMARK    7  A    between atoms: C_12  and  N_19
REMARK    8  A    between atoms: C_20  and  C_22
REMARK    9  A    between atoms: C_22  and  C_23
REMARK   10  A    between atoms: C_26  and  S_28
REMARK   11  A    between atoms: S_28  and  N_31
REMARK                            x       y       z     vdW  Elec       q    Type
REMARK                         _______ _______ _______ _____ _____    ______ ____
ROOT
ATOM      1  C   UNL     1      -5.011   3.290   5.780  0.00  0.00    +0.140 C 
ENDROOT
BRANCH   1   5
ATOM      2  C   UNL     1      -2.906   1.634   2.452  0.00  0.00    -0.045 A 
ATOM      3  C   UNL     1      -2.459   1.399   3.739  0.00  0.00    +0.004 A 
ATOM      4  C   UNL     1      -3.137   1.939   4.815  0.00  0.00    +0.006 A 
ATOM      5  C   UNL     1      -4.269   2.706   4.606  0.00  0.00    -0.022 A 
ATOM      6  C   UNL     1      -4.719   2.936   3.320  0.00  0.00    +0.006 A 
ATOM      7  C   UNL     1      -4.038   2.400   2.242  0.00  0.00    +0.004 A 
BRANCH   2   8
ATOM      8  C   UNL     1      -2.164   1.050   1.278  0.00  0.00    +0.016 C 
ATOM      9  C   UNL     1      -2.144  -0.476   1.395  0.00  0.00    +0.012 C 
BRANCH   8  11
ATOM     10  C   UNL     1      -0.013   1.086   0.008  0.00  0.00    +0.004 C 
ATOM     11  C   UNL     1      -0.729   1.579   1.267  0.00  0.00    +0.004 C 
ENDBRANCH   8  11
ENDBRANCH   2   8
ENDBRANCH   1   5
BRANCH   1  12
ATOM     12  C   UNL     1      -5.888   2.232   6.397  0.00  0.00    +0.014 A 
ATOM     13  C   UNL     1      -7.221   2.034   6.246  0.00  0.00    +0.013 A 
ATOM     14  C   UNL     1      -7.822   0.984   6.915  0.00  0.00    +0.008 A 
ATOM     15  C   UNL     1      -7.064   0.190   7.709  0.00  0.00    +0.045 A 
ATOM     16  S   UNL     1      -5.445   0.918   7.521  0.00  0.00    -0.099 S 
ENDBRANCH   1  12
BRANCH   1  17
ATOM     17  N   UNL     1      -4.049   3.768   6.777  0.00  0.00    -0.304 N 
ATOM     18  C   UNL     1      -4.400   4.744   7.637  0.00  0.00    +0.219 C 
ATOM     19  O   UNL     1      -5.512   5.226   7.587  0.00  0.00    -0.275 OA
ATOM     20  H   UNL     1      -3.041   3.331   6.822  0.00  0.00    +0.150 HD
BRANCH  18  21
ATOM     21  C   UNL     1      -3.411   5.237   8.662  0.00  0.00    +0.138 C 
BRANCH  21  22
ATOM     22  C   UNL     1      -4.047   6.321   9.494  0.00  0.00    +0.000 A 
ATOM     23  C   UNL     1      -4.752   6.210  10.646  0.00  0.00    +0.013 A 
ATOM     24  C   UNL     1      -5.247   7.355  11.242  0.00  0.00    +0.036 A 
ATOM     25  C   UNL     1      -5.012   8.554  10.656  0.00  0.00    +0.142 A 
ATOM     26  S   UNL     1      -4.060   8.085   9.221  0.00  0.00    -0.073 S 
BRANCH  25  27
ATOM     27  S   UNL     1      -5.511  10.161  11.180  0.00  0.00    +0.062 S 
ATOM     28  O   UNL     1      -5.528  10.979  10.018  0.00  0.00    -0.153 OA
ATOM     29  O   UNL     1      -6.656   9.983  12.003  0.00  0.00    -0.153 OA
BRANCH  27  30
ATOM     30  N   UNL     1      -4.313  10.752  12.158  0.00  0.00    -0.203 NA
ATOM     31  H   UNL     1      -4.588  11.758  12.507  0.00  0.00    +0.144 HD
ATOM     32  H   UNL     1      -3.371  10.805  11.592  0.00  0.00    +0.144 HD
ENDBRANCH  27  30
ENDBRANCH  25  27
ENDBRANCH  21  22
ENDBRANCH  18  21
ENDBRANCH   1  17
TORSDOF 9
