REMARK  Name = ZINC39665490
REMARK  9 active torsions:
REMARK  status: ('A' for Active; 'I' for Inactive)
REMARK    1  A    between atoms: C_1  and  C_2
REMARK    2  A    between atoms: C_2  and  C_4
REMARK    3  A    between atoms: C_2  and  O_28
REMARK    4  A    between atoms: C_4  and  N_5
REMARK    5  A    between atoms: C_6  and  C_8
REMARK    6  A    between atoms: C_19  and  C_21
REMARK    7  A    between atoms: O_28  and  C_29
REMARK    8  A    between atoms: C_32  and  O_35
REMARK    9  A    between atoms: O_35  and  C_36
REMARK                            x       y       z     vdW  Elec       q    Type
REMARK                         _______ _______ _______ _____ _____    ______ ____
ROOT
ATOM      1  C   UNL     1       1.778  -3.702  -1.820  0.00  0.00    +0.100 C 
ATOM      2  C   UNL     1       0.477  -4.367  -1.317  0.00  0.00    +0.121 C 
ATOM      3  N   UNL     1      -0.253  -4.743  -2.550  0.00  0.00    -0.296 N 
ATOM      4  C   UNL     1       0.803  -5.226  -3.471  0.00  0.00    +0.115 C 
ATOM      5  C   UNL     1       1.990  -4.271  -3.233  0.00  0.00    -0.004 C 
ATOM      6  C   UNL     1       1.976  -3.146  -4.263  0.00  0.00    -0.010 C 
ATOM      7  C   UNL     1       2.246  -3.729  -5.653  0.00  0.00    -0.082 C 
ATOM      8  N   UNL     1       3.548  -4.407  -5.657  0.00  0.00    +0.379 N 
ATOM      9  C   UNL     1       3.523  -5.545  -4.731  0.00  0.00    -0.082 C 
ATOM     10  C   UNL     1       3.307  -5.038  -3.302  0.00  0.00    -0.010 C 
ATOM     11  C   UNL     1      -1.579  -4.664  -2.782  0.00  0.00    +0.248 C 
ATOM     12  O   UNL     1      -2.041  -5.098  -3.820  0.00  0.00    -0.270 OA
ATOM     13  H   UNL     1       3.751  -4.737  -6.589  0.00  0.00    -0.086 HD
ATOM     14  H   UNL     1       4.264  -3.757  -5.370  0.00  0.00    -0.086 HD
ENDROOT
BRANCH  11  15
ATOM     15  C   UNL     1      -2.470  -4.051  -1.775  0.00  0.00    +0.055 A 
ATOM     16  C   UNL     1      -2.299  -4.339  -0.420  0.00  0.00    +0.014 A 
ATOM     17  C   UNL     1      -3.134  -3.763   0.515  0.00  0.00    +0.001 A 
ATOM     18  C   UNL     1      -4.140  -2.902   0.112  0.00  0.00    +0.001 A 
ATOM     19  C   UNL     1      -4.316  -2.613  -1.228  0.00  0.00    +0.021 A 
ATOM     20  C   UNL     1      -3.483  -3.177  -2.175  0.00  0.00    +0.053 A 
ATOM     21 CL   UNL     1      -3.701  -2.807  -3.857  0.00  0.00    -0.083 Cl
ENDBRANCH  11  15
BRANCH   1  23
ATOM     22  N   UNL     1       2.700  -1.407  -1.836  0.00  0.00    -0.312 N 
ATOM     23  C   UNL     1       1.614  -2.205  -1.876  0.00  0.00    +0.218 C 
ATOM     24  O   UNL     1       0.506  -1.719  -1.958  0.00  0.00    -0.275 OA
ATOM     25  H   UNL     1       3.586  -1.796  -1.771  0.00  0.00    +0.149 HD
BRANCH  22  26
ATOM     26  C   UNL     1       2.541   0.048  -1.891  0.00  0.00    +0.148 C 
BRANCH  26  28
ATOM     27  C   UNL     1       3.751   2.234  -1.886  0.00  0.00    +0.053 C 
ATOM     28  C   UNL     1       3.917   0.714  -1.829  0.00  0.00    +0.187 C 
BRANCH  28  29
ATOM     29  O   UNL     1       4.568   0.351  -0.610  0.00  0.00    -0.488 OA
BRANCH  29  30
ATOM     30  C   UNL     1       5.927   0.334  -0.617  0.00  0.00    +0.121 A 
ATOM     31  C   UNL     1       6.621   0.762  -1.739  0.00  0.00    +0.049 A 
ATOM     32  C   UNL     1       8.002   0.744  -1.746  0.00  0.00    +0.049 A 
ATOM     33  C   UNL     1       8.695   0.298  -0.631  0.00  0.00    +0.120 A 
ATOM     34  C   UNL     1       8.002  -0.129   0.492  0.00  0.00    +0.049 A 
ATOM     35  C   UNL     1       6.621  -0.107   0.500  0.00  0.00    +0.049 A 
BRANCH  33  36
ATOM     36  O   UNL     1      10.055   0.280  -0.639  0.00  0.00    -0.495 OA
ATOM     37  C   UNL     1      10.704  -0.192   0.544  0.00  0.00    +0.277 C 
ENDBRANCH  33  36
ENDBRANCH  29  30
ENDBRANCH  28  29
ENDBRANCH  26  28
ENDBRANCH  22  26
ENDBRANCH   1  23
TORSDOF 7
