REMARK  Name = ZINC39989421
REMARK  17 active torsions:
REMARK  status: ('A' for Active; 'I' for Inactive)
REMARK    1  A    between atoms: C_1  and  C_2
REMARK    2  A    between atoms: C_2  and  C_3
REMARK    3  A    between atoms: C_2  and  C_4
REMARK    4  A    between atoms: C_2  and  C_5
REMARK    5  A    between atoms: C_7  and  C_16
REMARK    6  A    between atoms: C_9  and  C_12
REMARK    7  A    between atoms: C_10  and  O_11
REMARK    8  A    between atoms: C_12  and  C_13
REMARK    9  A    between atoms: C_12  and  C_14
REMARK   10  A    between atoms: C_12  and  C_15
REMARK   11  A    between atoms: N_17  and  N_18
REMARK   12  A    between atoms: N_18  and  C_19
REMARK   13  A    between atoms: C_20  and  C_28
REMARK   14  A    between atoms: C_22  and  C_24
REMARK   15  A    between atoms: C_24  and  C_25
REMARK   16  A    between atoms: C_24  and  C_26
REMARK   17  A    between atoms: C_24  and  C_27
REMARK                            x       y       z     vdW  Elec       q    Type
REMARK                         _______ _______ _______ _____ _____    ______ ____
ROOT
ATOM      1  C   UNL     1       0.707  -0.490  -1.238  0.00  0.00    +0.000 A 
ATOM      2  C   UNL     1       1.215   0.418  -2.141  0.00  0.00    +0.017 A 
ATOM      3  C   UNL     1       1.869  -0.034  -3.291  0.00  0.00    -0.005 A 
ATOM      4  C   UNL     1       2.006  -1.406  -3.518  0.00  0.00    +0.017 A 
ATOM      5  C   UNL     1       1.495  -2.307  -2.609  0.00  0.00    +0.000 A 
ATOM      6  C   UNL     1       0.850  -1.853  -1.465  0.00  0.00    +0.124 A 
ENDROOT
BRANCH   1   8
ATOM      7  C   UNL     1      -0.019   1.526   0.010  0.00  0.00    +0.015 C 
ATOM      8  C   UNL     1       0.002  -0.004   0.002  0.00  0.00    -0.009 C 
ATOM      9  C   UNL     1       0.742  -0.511   1.242  0.00  0.00    +0.015 C 
ATOM     10  C   UNL     1      -1.433  -0.534   0.013  0.00  0.00    +0.015 C 
ENDBRANCH   1   8
BRANCH   5  11
ATOM     11  C   UNL     1       1.641  -3.787  -2.853  0.00  0.00    -0.009 C 
ATOM     12  C   UNL     1       2.388  -4.015  -4.168  0.00  0.00    +0.015 C 
ATOM     13  C   UNL     1       2.429  -4.418  -1.703  0.00  0.00    +0.015 C 
ATOM     14  C   UNL     1       0.255  -4.429  -2.935  0.00  0.00    +0.015 C 
ENDBRANCH   5  11
BRANCH   6  15
ATOM     15  O   UNL     1       0.353  -2.745  -0.569  0.00  0.00    -0.506 OA
ATOM     16  H   UNL     1      -0.560  -3.011  -0.744  0.00  0.00    +0.292 HD
ENDBRANCH   6  15
BRANCH   3  17
ATOM     17  C   UNL     1       2.413   0.934  -4.260  0.00  0.00    +0.138 C 
ATOM     18  N   UNL     1       3.021   0.512  -5.328  0.00  0.00    -0.188 NA
BRANCH  18  19
ATOM     19  N   UNL     1       3.538   1.432  -6.249  0.00  0.00    -0.205 N 
ATOM     20  H   UNL     1       3.442   2.384  -6.090  0.00  0.00    +0.177 HD
BRANCH  19  21
ATOM     21  C   UNL     1       4.183   0.984  -7.382  0.00  0.00    +0.244 A 
ATOM     22  C   UNL     1       4.392  -0.335  -7.749  0.00  0.00    +0.202 A 
ATOM     23  N   UNL     1       5.066  -0.311  -8.933  0.00  0.00    -0.200 NA
ATOM     24  C   UNL     1       5.260   0.926  -9.276  0.00  0.00    +0.205 A 
ATOM     25  O   UNL     1       4.728   1.742  -8.351  0.00  0.00    -0.423 OA
BRANCH  24  26
ATOM     26  C   UNL     1       5.971   1.378 -10.525  0.00  0.00    +0.039 C 
ATOM     27  C   UNL     1       5.232   0.843 -11.754  0.00  0.00    +0.020 C 
ATOM     28  C   UNL     1       5.997   2.907 -10.572  0.00  0.00    +0.020 C 
ATOM     29  C   UNL     1       7.404   0.843 -10.518  0.00  0.00    +0.020 C 
ENDBRANCH  24  26
BRANCH  22  30
ATOM     30  C   UNL     1       3.981  -1.500  -7.025  0.00  0.00    +0.124 C 
ATOM     31  N   UNL     1       3.654  -2.424  -6.450  0.00  0.00    -0.189 NA
ENDBRANCH  22  30
ENDBRANCH  19  21
ENDBRANCH  18  19
ENDBRANCH   3  17
TORSDOF 8
