REMARK  Name = ZINC20459401
REMARK  9 active torsions:
REMARK  status: ('A' for Active; 'I' for Inactive)
REMARK    1  A    between atoms: C_1  and  C_2
REMARK    2  A    between atoms: C_10  and  C_22
REMARK    3  A    between atoms: C_12  and  C_20
REMARK    4  A    between atoms: C_13  and  N_19
REMARK    5  A    between atoms: C_14  and  C_15
REMARK    6  A    between atoms: C_14  and  C_17
REMARK    7  A    between atoms: C_25  and  O_28
REMARK    8  A    between atoms: O_28  and  C_29
REMARK    9  A    between atoms: C_29  and  C_30
REMARK                            x       y       z     vdW  Elec       q    Type
REMARK                         _______ _______ _______ _____ _____    ______ ____
ROOT
ATOM      1  C   UNL     1       2.393  -1.192   3.915  0.00  0.00    +0.008 C 
ATOM      2  C   UNL     1       3.112  -0.606   2.699  0.00  0.00    -0.010 C 
ATOM      3  C   UNL     1       4.624  -0.592   2.949  0.00  0.00    +0.030 C 
ATOM      4  C   UNL     1       5.301   0.069   1.782  0.00  0.00    -0.024 C 
ATOM      5  C   UNL     1       4.712   0.950   1.033  0.00  0.00    -0.030 C 
ATOM      6  C   UNL     1       3.297   1.421   1.230  0.00  0.00    +0.030 C 
ATOM      7  C   UNL     1       2.647   0.832   2.470  0.00  0.00    +0.012 C 
ATOM      8  C   UNL     1       2.490   1.045  -0.016  0.00  0.00    +0.068 C 
ATOM      9  C   UNL     1       3.245   1.407  -1.259  0.00  0.00    +0.057 C 
ATOM     10  C   UNL     1       4.558   1.621  -1.322  0.00  0.00    +0.054 C 
ATOM     11  C   UNL     1       5.474   1.560  -0.131  0.00  0.00    +0.202 C 
ENDROOT
BRANCH   8  12
ATOM     12  C   UNL     1       1.176   1.783   0.000  0.00  0.00    -0.038 A 
ATOM     13  C   UNL     1      -0.013   1.076   0.008  0.00  0.00    +0.008 A 
ATOM     14  C   UNL     1      -1.218   1.750   0.017  0.00  0.00    +0.046 A 
ATOM     15  C   UNL     1      -1.237   3.137   0.031  0.00  0.00    +0.121 A 
ATOM     16  C   UNL     1      -0.043   3.844   0.023  0.00  0.00    +0.046 A 
ATOM     17  C   UNL     1       1.160   3.165   0.007  0.00  0.00    +0.008 A 
BRANCH  15  18
ATOM     18  O   UNL     1      -2.422   3.802   0.046  0.00  0.00    -0.483 OA
BRANCH  18  19
ATOM     19  C   UNL     1      -3.611   3.009   0.054  0.00  0.00    +0.324 C 
BRANCH  19  20
ATOM     20  C   UNL     1      -4.817   3.913   0.070  0.00  0.00    +0.248 C 
ATOM     21  O   UNL     1      -4.672   5.117   0.075  0.00  0.00    -0.272 OA
ATOM     22  N   UNL     1      -6.056   3.382   0.080  0.00  0.00    -0.327 N 
ATOM     23  H   UNL     1      -6.936   4.042   0.092  0.00  0.00    +0.145 HD
ATOM     24  H   UNL     1      -6.186   2.290   0.075  0.00  0.00    +0.145 HD
ENDBRANCH  19  20
ENDBRANCH  18  19
ENDBRANCH  15  18
ENDBRANCH   8  12
BRANCH  10  25
ATOM     25  N   UNL     1       5.106   1.914  -2.544  0.00  0.00    -0.358 N 
ATOM     26  H   UNL     1       6.187   2.096  -2.632  0.00  0.00    +0.142 HD
ATOM     27  H   UNL     1       4.464   1.966  -3.436  0.00  0.00    +0.142 HD
ENDBRANCH  10  25
BRANCH  11  28
ATOM     28  C   UNL     1       5.914   2.919   0.224  0.00  0.00    +0.095 C 
ATOM     29  N   UNL     1       6.254   3.968   0.498  0.00  0.00    -0.194 NA
ENDBRANCH  11  28
BRANCH  11  30
ATOM     30  C   UNL     1       6.643   0.724  -0.449  0.00  0.00    +0.095 C 
ATOM     31  N   UNL     1       7.546   0.080  -0.695  0.00  0.00    -0.194 NA
ENDBRANCH  11  30
BRANCH   9  32
ATOM     32  C   UNL     1       2.497   1.532  -2.474  0.00  0.00    +0.097 C 
ATOM     33  N   UNL     1       1.903   1.631  -3.437  0.00  0.00    -0.191 NA
ENDBRANCH   9  32
TORSDOF 8
