REMARK  Name = ZINC41773442
REMARK  10 active torsions:
REMARK  status: ('A' for Active; 'I' for Inactive)
REMARK    1  A    between atoms: C_1  and  C_2
REMARK    2  A    between atoms: C_2  and  C_3
REMARK    3  A    between atoms: N_5  and  C_6
REMARK    4  A    between atoms: C_9  and  C_12
REMARK    5  A    between atoms: C_12  and  C_14
REMARK    6  A    between atoms: C_12  and  N_15
REMARK    7  A    between atoms: C_16  and  C_18
REMARK    8  A    between atoms: N_20  and  C_21
REMARK    9  A    between atoms: C_26  and  C_27
REMARK   10  A    between atoms: C_27  and  C_28
REMARK                            x       y       z     vdW  Elec       q    Type
REMARK                         _______ _______ _______ _____ _____    ______ ____
ROOT
ATOM      1  N   UNL     1      -7.229  -4.753   0.568  0.00  0.00    -0.301 N 
ATOM      2  C   UNL     1      -8.457  -5.020   1.056  0.00  0.00    +0.300 C 
ATOM      3  O   UNL     1      -9.399  -4.321   0.745  0.00  0.00    -0.265 OA
ATOM      4  H   UNL     1      -6.476  -5.312   0.817  0.00  0.00    +0.150 HD
ENDROOT
BRANCH   2   5
ATOM      5  C   UNL     1      -8.658  -6.176   1.980  0.00  0.00    +0.303 C 
ATOM      6  O   UNL     1      -7.716  -6.875   2.292  0.00  0.00    -0.265 OA
ATOM      7  N   UNL     1      -9.885  -6.442   2.469  0.00  0.00    -0.277 N 
ATOM      8  H   UNL     1     -10.649  -5.926   2.169  0.00  0.00    +0.155 HD
BRANCH   7   9
ATOM      9  C   UNL     1     -10.057  -7.463   3.407  0.00  0.00    +0.037 A 
ATOM     10  C   UNL     1      -9.279  -8.612   3.337  0.00  0.00    +0.023 A 
ATOM     11  C   UNL     1      -9.452  -9.619   4.265  0.00  0.00    +0.002 A 
ATOM     12  C   UNL     1     -10.398  -9.486   5.265  0.00  0.00    +0.000 A 
ATOM     13  C   UNL     1     -11.175  -8.344   5.337  0.00  0.00    +0.006 A 
ATOM     14  C   UNL     1     -11.003  -7.330   4.415  0.00  0.00    -0.017 A 
BRANCH  14  15
ATOM     15  C   UNL     1     -11.846  -6.083   4.499  0.00  0.00    +0.132 C 
BRANCH  15  16
ATOM     16  C   UNL     1     -13.042  -6.223   3.594  0.00  0.00    +0.215 C 
ATOM     17  O   UNL     1     -13.196  -7.236   2.945  0.00  0.00    -0.276 OA
ATOM     18  N   UNL     1     -13.941  -5.223   3.506  0.00  0.00    -0.329 N 
ATOM     19  H   UNL     1     -13.818  -4.413   4.026  0.00  0.00    +0.145 HD
ATOM     20  H   UNL     1     -14.712  -5.313   2.924  0.00  0.00    +0.145 HD
ENDBRANCH  15  16
ENDBRANCH  14  15
ENDBRANCH   7   9
ENDBRANCH   2   5
BRANCH   1  21
ATOM     21  C   UNL     1      -7.032  -3.620  -0.339  0.00  0.00    +0.101 C 
ATOM     22  C   UNL     1      -7.347  -4.052  -1.772  0.00  0.00    +0.033 C 
BRANCH  21  26
ATOM     23  C   UNL     1      -2.972  -2.302  -0.110  0.00  0.00    +0.033 A 
ATOM     24  C   UNL     1      -4.001  -1.374  -0.201  0.00  0.00    +0.023 A 
ATOM     25  C   UNL     1      -5.312  -1.803  -0.275  0.00  0.00    +0.007 A 
ATOM     26  C   UNL     1      -5.600  -3.155  -0.258  0.00  0.00    -0.027 A 
ATOM     27  C   UNL     1      -4.578  -4.082  -0.167  0.00  0.00    +0.007 A 
ATOM     28  C   UNL     1      -3.265  -3.660  -0.099  0.00  0.00    +0.023 A 
BRANCH  23  31
ATOM     29  C   UNL     1      -0.668  -2.586  -0.630  0.00  0.00    +0.217 C 
ATOM     30  O   UNL     1      -0.930  -3.645  -1.160  0.00  0.00    -0.275 OA
ATOM     31  N   UNL     1      -1.643  -1.871  -0.035  0.00  0.00    -0.286 N 
ATOM     32  H   UNL     1      -1.424  -1.057   0.446  0.00  0.00    +0.155 HD
BRANCH  29  34
ATOM     33  C   UNL     1       1.649  -3.063  -1.372  0.00  0.00    +0.013 C 
ATOM     34  C   UNL     1       0.747  -2.069  -0.638  0.00  0.00    +0.093 C 
ENDBRANCH  29  34
ENDBRANCH  23  31
ENDBRANCH  21  26
ENDBRANCH   1  21
TORSDOF 8
