REMARK  Name = ZINC37744544
REMARK  5 active torsions:
REMARK  status: ('A' for Active; 'I' for Inactive)
REMARK    1  A    between atoms: C_1  and  C_2
REMARK    2  A    between atoms: C_2  and  C_4
REMARK    3  A    between atoms: C_2  and  N_14
REMARK    4  A    between atoms: N_14  and  S_15
REMARK    5  A    between atoms: S_15  and  C_18
REMARK                            x       y       z     vdW  Elec       q    Type
REMARK                         _______ _______ _______ _____ _____    ______ ____
ROOT
ATOM      1  C   UNL     1      -0.019   1.526   0.010  0.00  0.00    +0.026 C 
ATOM      2  C   UNL     1       0.002  -0.004   0.002  0.00  0.00    +0.080 C 
ENDROOT
BRANCH   2   3
ATOM      3  C   UNL     1      -1.433  -0.534   0.013  0.00  0.00    -0.012 C 
ATOM      4  C   UNL     1      -2.149  -0.040   1.272  0.00  0.00    +0.012 C 
ATOM      5  C   UNL     1      -3.585  -0.570   1.282  0.00  0.00    -0.010 C 
ATOM      6  C   UNL     1      -4.325  -0.063   0.043  0.00  0.00    +0.007 C 
ATOM      7  C   UNL     1      -3.609  -0.556  -1.216  0.00  0.00    -0.010 C 
ATOM      8  C   UNL     1      -2.173  -0.027  -1.227  0.00  0.00    +0.012 C 
ATOM      9  C   UNL     1      -3.588  -2.086  -1.224  0.00  0.00    +0.007 C 
ATOM     10  C   UNL     1      -2.848  -2.593   0.015  0.00  0.00    -0.010 C 
ATOM     11  C   UNL     1      -3.564  -2.100   1.274  0.00  0.00    +0.007 C 
ATOM     12  C   UNL     1      -1.413  -2.063   0.004  0.00  0.00    +0.012 C 
ENDBRANCH   2   3
BRANCH   2  13
ATOM     13  N   UNL     1       0.711  -0.489   1.189  0.00  0.00    -0.187 NA
ATOM     14  H   UNL     1       0.236  -0.593   2.029  0.00  0.00    +0.148 HD
BRANCH  13  15
ATOM     15  S   UNL     1       2.322  -0.861   1.097  0.00  0.00    +0.062 S 
ATOM     16  O   UNL     1       2.719  -1.271   2.398  0.00  0.00    -0.153 OA
ATOM     17  O   UNL     1       2.483  -1.690  -0.045  0.00  0.00    -0.153 OA
BRANCH  15  18
ATOM     18  C   UNL     1       3.183   0.638   0.757  0.00  0.00    +0.142 A 
ATOM     19  C   UNL     1       3.465   1.133  -0.471  0.00  0.00    +0.133 A 
ATOM     20  N   UNL     1       4.133   2.293  -0.303  0.00  0.00    -0.283 N 
ATOM     21  H   UNL     1       4.462   2.870  -1.010  0.00  0.00    +0.188 HD
ATOM     22  N   UNL     1       4.267   2.518   1.073  0.00  0.00    -0.180 NA
ATOM     23  C   UNL     1       3.693   1.529   1.707  0.00  0.00    +0.162 A 
ENDBRANCH  15  18
ENDBRANCH  13  15
ENDBRANCH   2  13
TORSDOF 4
