REMARK  Name = ZINC08936950
REMARK  7 active torsions:
REMARK  status: ('A' for Active; 'I' for Inactive)
REMARK    1  A    between atoms: C_1  and  C_2
REMARK    2  A    between atoms: C_2  and  C_21
REMARK    3  A    between atoms: N_5  and  C_9
REMARK    4  A    between atoms: C_9  and  C_10
REMARK    5  A    between atoms: N_12  and  C_13
REMARK    6  A    between atoms: C_24  and  O_27
REMARK    7  A    between atoms: O_27  and  C_28
REMARK                            x       y       z     vdW  Elec       q    Type
REMARK                         _______ _______ _______ _____ _____    ______ ____
ROOT
ATOM      1  C   UNL     1      -2.382   7.629   1.147  0.00  0.00    +0.047 C 
ATOM      2  C   UNL     1      -1.113   7.111   1.828  0.00  0.00    +0.135 C 
ATOM      3  C   UNL     1       0.114   7.812   1.281  0.00  0.00    +0.251 C 
ATOM      4  O   UNL     1       0.515   7.801   0.137  0.00  0.00    -0.272 OA
ATOM      5  N   UNL     1       0.667   8.450   2.331  0.00  0.00    -0.215 N 
ATOM      6  C   UNL     1      -0.032   8.252   3.454  0.00  0.00    +0.310 C 
ATOM      7  O   UNL     1       0.270   8.725   4.531  0.00  0.00    -0.252 OA
ATOM      8  N   UNL     1      -1.109   7.469   3.257  0.00  0.00    -0.281 N 
ATOM      9  H   UNL     1      -1.755   7.193   3.925  0.00  0.00    +0.152 HD
ENDROOT
BRANCH   2  10
ATOM     10  C   UNL     1      -0.993   5.619   1.654  0.00  0.00    -0.015 A 
ATOM     11  C   UNL     1      -1.526   4.768   2.605  0.00  0.00    +0.010 A 
ATOM     12  C   UNL     1      -1.416   3.400   2.448  0.00  0.00    +0.046 A 
ATOM     13  C   UNL     1      -0.771   2.880   1.336  0.00  0.00    +0.127 A 
ATOM     14  C   UNL     1      -0.232   3.736   0.386  0.00  0.00    +0.046 A 
ATOM     15  C   UNL     1      -0.348   5.103   0.545  0.00  0.00    +0.010 A 
BRANCH  13  16
ATOM     16  O   UNL     1      -0.662   1.534   1.179  0.00  0.00    -0.434 OA
BRANCH  16  17
ATOM     17  C   UNL     1       0.015   1.070   0.010  0.00  0.00    +0.541 C 
ATOM     18  F   UNL     1       1.327   1.556   0.007  0.00  0.00    -0.166 F 
ATOM     19  F   UNL     1      -0.654   1.528  -1.130  0.00  0.00    -0.166 F 
ENDBRANCH  16  17
ENDBRANCH  13  16
ENDBRANCH   2  10
BRANCH   5  20
ATOM     20  C   UNL     1       1.885   9.261   2.253  0.00  0.00    +0.214 C 
BRANCH  20  21
ATOM     21  C   UNL     1       3.087   8.389   2.511  0.00  0.00    +0.235 C 
ATOM     22  O   UNL     1       2.940   7.206   2.739  0.00  0.00    -0.274 OA
ATOM     23  N   UNL     1       4.324   8.922   2.490  0.00  0.00    -0.283 N 
ATOM     24  H   UNL     1       4.447   9.853   2.245  0.00  0.00    +0.155 HD
BRANCH  23  25
ATOM     25  C   UNL     1       5.432   8.134   2.823  0.00  0.00    +0.053 A 
ATOM     26  C   UNL     1       5.454   6.787   2.485  0.00  0.00    +0.044 A 
ATOM     27  C   UNL     1       6.552   6.013   2.809  0.00  0.00    +0.043 A 
ATOM     28  C   UNL     1       7.624   6.576   3.480  0.00  0.00    +0.021 A 
ATOM     29  C   UNL     1       7.602   7.915   3.823  0.00  0.00    +0.023 A 
ATOM     30  C   UNL     1       6.510   8.696   3.496  0.00  0.00    +0.062 A 
ATOM     31 CL   UNL     1       6.484  10.378   3.926  0.00  0.00    -0.082 Cl
ATOM     32 CL   UNL     1       6.583   4.331   2.382  0.00  0.00    -0.083 Cl
ENDBRANCH  23  25
ENDBRANCH  20  21
ENDBRANCH   5  20
TORSDOF 6
