REMARK  Name = ZINC04644654
REMARK  5 active torsions:
REMARK  status: ('A' for Active; 'I' for Inactive)
REMARK    1  A    between atoms: C_5  and  C_7
REMARK    2  A    between atoms: C_10  and  C_19
REMARK    3  A    between atoms: C_11  and  C_17
REMARK    4  A    between atoms: C_12  and  N_16
REMARK    5  A    between atoms: C_13  and  C_14
REMARK                            x       y       z     vdW  Elec       q    Type
REMARK                         _______ _______ _______ _____ _____    ______ ____
ROOT
ATOM      1  C   UNL     1       1.229  -2.186  -0.022  0.00  0.00    +0.067 C 
ATOM      2  C   UNL     1       0.509  -2.695  -1.269  0.00  0.00    +0.046 C 
ATOM      3  C   UNL     1      -0.971  -2.438  -1.160  0.00  0.00    -0.046 C 
ATOM      4  C   UNL     1      -1.592  -2.534   0.030  0.00  0.00    +0.073 C 
ATOM      5  C   UNL     1      -0.807  -2.844   1.242  0.00  0.00    +0.056 C 
ATOM      6  C   UNL     1       0.543  -2.702   1.217  0.00  0.00    +0.059 C 
ENDROOT
BRANCH   1  11
ATOM      7  C   UNL     1      -0.017   1.378   0.010  0.00  0.00    +0.000 A 
ATOM      8  C   UNL     1       1.171   2.086   0.002  0.00  0.00    +0.001 A 
ATOM      9  C   UNL     1       2.377   1.412  -0.013  0.00  0.00    +0.020 A 
ATOM     10  C   UNL     1       2.397   0.029  -0.021  0.00  0.00    +0.045 A 
ATOM     11  C   UNL     1       1.208  -0.679  -0.013  0.00  0.00    -0.021 A 
ATOM     12  C   UNL     1       0.002  -0.004   0.002  0.00  0.00    +0.006 A 
ATOM     13 CL   UNL     1       3.912  -0.818  -0.041  0.00  0.00    -0.083 Cl
ENDBRANCH   1  11
BRANCH   5  14
ATOM     14  N   UNL     1      -1.441  -3.275   2.389  0.00  0.00    -0.356 N 
ATOM     15  H   UNL     1      -2.406  -3.375   2.401  0.00  0.00    +0.142 HD
ATOM     16  H   UNL     1      -0.922  -3.478   3.183  0.00  0.00    +0.142 HD
ENDBRANCH   5  14
BRANCH   3  17
ATOM     17  C   UNL     1      -1.760  -2.071  -2.390  0.00  0.00    +0.016 C 
ATOM     18  C   UNL     1      -1.050  -2.173  -3.741  0.00  0.00    +0.008 C 
ATOM     19  C   UNL     1      -1.353  -0.800  -3.138  0.00  0.00    +0.008 C 
ENDBRANCH   3  17
BRANCH   6  20
ATOM     20  C   UNL     1       1.316  -3.042   2.373  0.00  0.00    +0.097 C 
ATOM     21  N   UNL     1       1.929  -3.311   3.291  0.00  0.00    -0.191 NA
ENDBRANCH   6  20
BRANCH   4  22
ATOM     22  C   UNL     1      -3.007  -2.336   0.120  0.00  0.00    +0.101 C 
ATOM     23  N   UNL     1      -4.130  -2.178   0.192  0.00  0.00    -0.191 NA
ENDBRANCH   4  22
TORSDOF 5
