REMARK  Name = ZINC63641746
REMARK  6 active torsions:
REMARK  status: ('A' for Active; 'I' for Inactive)
REMARK    1  A    between atoms: C_4  and  O_7
REMARK    2  A    between atoms: O_7  and  C_8
REMARK    3  A    between atoms: C_8  and  C_9
REMARK    4  A    between atoms: C_9  and  N_10
REMARK    5  A    between atoms: C_12  and  C_20
REMARK    6  A    between atoms: N_21  and  N_22
REMARK                            x       y       z     vdW  Elec       q    Type
REMARK                         _______ _______ _______ _____ _____    ______ ____
ROOT
ATOM      1  N   UNL     1       5.636  -2.268   1.185  0.00  0.00    -0.326 N 
ATOM      2  C   UNL     1       6.418  -1.047   1.395  0.00  0.00    +0.119 C 
ATOM      3  C   UNL     1       6.922  -1.136   2.845  0.00  0.00    +0.081 C 
ATOM      4  C   UNL     1       6.367  -2.445   3.360  0.00  0.00    -0.017 A 
ATOM      5  C   UNL     1       5.630  -3.040   2.348  0.00  0.00    +0.034 A 
ATOM      6  C   UNL     1       5.011  -4.267   2.593  0.00  0.00    +0.023 A 
ATOM      7  C   UNL     1       5.129  -4.872   3.826  0.00  0.00    +0.002 A 
ATOM      8  C   UNL     1       5.863  -4.268   4.830  0.00  0.00    +0.000 A 
ATOM      9  C   UNL     1       6.487  -3.057   4.593  0.00  0.00    +0.006 A 
ENDROOT
BRANCH   3  10
ATOM     10  C   UNL     1       8.429  -1.151   2.878  0.00  0.00    +0.117 C 
ATOM     11  N   UNL     1       9.072  -0.221   3.508  0.00  0.00    -0.159 NA
BRANCH  11  12
ATOM     12  N   UNL     1      10.472  -0.235   3.538  0.00  0.00    -0.124 NA
ATOM     13  C   UNL     1      11.128   0.714   4.180  0.00  0.00    +0.193 A 
ATOM     14  N   UNL     1      12.481   0.878   4.320  0.00  0.00    -0.332 N 
ATOM     15  H   UNL     1      13.091   0.243   3.914  0.00  0.00    +0.168 HD
ATOM     16  C   UNL     1      12.979   1.951   5.040  0.00  0.00    +0.055 A 
ATOM     17  C   UNL     1      14.326   2.267   5.281  0.00  0.00    +0.027 A 
ATOM     18  C   UNL     1      14.671   3.374   6.021  0.00  0.00    +0.002 A 
ATOM     19  C   UNL     1      13.705   4.211   6.552  0.00  0.00    +0.001 A 
ATOM     20  C   UNL     1      12.369   3.925   6.331  0.00  0.00    +0.017 A 
ATOM     21  C   UNL     1      12.025   2.818   5.592  0.00  0.00    +0.039 A 
ATOM     22  S   UNL     1      10.477   2.111   5.080  0.00  0.00    -0.048 S 
ENDBRANCH  11  12
ENDBRANCH   3  10
BRANCH   1  23
ATOM     23  C   UNL     1       4.954  -2.624  -0.061  0.00  0.00    +0.146 C 
BRANCH  23  24
ATOM     24  C   UNL     1       3.531  -2.060  -0.044  0.00  0.00    +0.248 C 
BRANCH  24  25
ATOM     25  O   UNL     1       3.586  -0.632  -0.037  0.00  0.00    -0.490 OA
BRANCH  25  29
ATOM     26  C   UNL     1      -0.017   1.378   0.010  0.00  0.00    +0.000 A 
ATOM     27  C   UNL     1       1.170   2.088   0.002  0.00  0.00    +0.004 A 
ATOM     28  C   UNL     1       2.377   1.417  -0.013  0.00  0.00    +0.045 A 
ATOM     29  C   UNL     1       2.399   0.030  -0.021  0.00  0.00    +0.121 A 
ATOM     30  C   UNL     1       1.207  -0.680  -0.013  0.00  0.00    +0.045 A 
ATOM     31  C   UNL     1       0.002  -0.004   0.002  0.00  0.00    +0.004 A 
ENDBRANCH  25  29
ENDBRANCH  24  25
ENDBRANCH  23  24
ENDBRANCH   1  23
TORSDOF 6
