REMARK  Name = ZINC37203668
REMARK  2 active torsions:
REMARK  status: ('A' for Active; 'I' for Inactive)
REMARK    1  A    between atoms: C_6  and  N_7
REMARK    2  A    between atoms: N_7  and  C_8
REMARK                            x       y       z     vdW  Elec       q    Type
REMARK                         _______ _______ _______ _____ _____    ______ ____
ROOT
ATOM      1  C   UNL     1      -1.176  -2.185   0.002  0.00  0.00    +0.104 C 
ATOM      2  C   UNL     1      -2.471  -2.720   0.614  0.00  0.00    +0.030 C 
ATOM      3  C   UNL     1      -2.276  -4.132   1.146  0.00  0.00    +0.043 C 
ATOM      4  C   UNL     1      -2.038  -5.159   0.058  0.00  0.00    +0.229 C 
ATOM      5  O   UNL     1      -0.802  -4.908  -0.619  0.00  0.00    -0.492 OA
ATOM      6  C   UNL     1      -0.868  -4.031  -1.657  0.00  0.00    +0.126 A 
ATOM      7  C   UNL     1      -1.066  -2.685  -1.427  0.00  0.00    +0.014 A 
ATOM      8  C   UNL     1      -1.162  -1.798  -2.479  0.00  0.00    +0.010 A 
ATOM      9  C   UNL     1      -1.039  -2.261  -3.777  0.00  0.00    +0.016 A 
ATOM     10  C   UNL     1      -0.818  -3.606  -4.015  0.00  0.00    +0.021 A 
ATOM     11  C   UNL     1      -0.738  -4.495  -2.960  0.00  0.00    +0.061 A 
ATOM     12 BR   UNL     1      -0.635  -4.232  -5.790  0.00  0.00    -0.050 Br
ENDROOT
BRANCH   1  13
ATOM     13  N   UNL     1      -1.198  -0.720   0.010  0.00  0.00    -0.337 N 
ATOM     14  H   UNL     1      -2.045  -0.248   0.021  0.00  0.00    +0.147 HD
BRANCH  13  20
ATOM     15  C   UNL     1      -0.017   1.385   0.010  0.00  0.00    +0.024 A 
ATOM     16  C   UNL     1       1.171   2.090   0.002  0.00  0.00    +0.017 A 
ATOM     17  C   UNL     1       2.378   1.415  -0.013  0.00  0.00    +0.018 A 
ATOM     18  C   UNL     1       2.400   0.031  -0.021  0.00  0.00    +0.017 A 
ATOM     19  C   UNL     1       1.216  -0.679  -0.014  0.00  0.00    +0.024 A 
ATOM     20  C   UNL     1       0.002  -0.004   0.002  0.00  0.00    +0.028 A 
ATOM     21 BR   UNL     1       4.002   2.384  -0.025  0.00  0.00    -0.050 Br
ENDBRANCH  13  20
ENDBRANCH   1  13
TORSDOF 2
