REMARK  Name = ZINC27550698
REMARK  12 active torsions:
REMARK  status: ('A' for Active; 'I' for Inactive)
REMARK    1  A    between atoms: C_1  and  C_2
REMARK    2  A    between atoms: C_2  and  C_3
REMARK    3  A    between atoms: C_5  and  C_11
REMARK    4  A    between atoms: C_6  and  S_8
REMARK    5  A    between atoms: S_8  and  C_9
REMARK    6  A    between atoms: C_9  and  C_10
REMARK    7  A    between atoms: C_13  and  C_35
REMARK    8  A    between atoms: C_14  and  N_34
REMARK    9  A    between atoms: N_15  and  C_25
REMARK   10  A    between atoms: C_21  and  C_23
REMARK   11  A    between atoms: C_21  and  C_24
REMARK   12  A    between atoms: C_28  and  N_31
REMARK                            x       y       z     vdW  Elec       q    Type
REMARK                         _______ _______ _______ _____ _____    ______ ____
ROOT
ATOM      1  C   UNL     1       2.922   1.518   4.944  0.00  0.00    +0.099 C 
ATOM      2  C   UNL     1       2.048   2.698   5.250  0.00  0.00    +0.077 C 
ATOM      3  C   UNL     1       2.320   3.925   4.735  0.00  0.00    +0.107 C 
ATOM      4  N   UNL     1       3.417   4.106   3.923  0.00  0.00    -0.260 N 
ATOM      5  C   UNL     1       4.448   3.204   3.936  0.00  0.00    +0.025 C 
ATOM      6  C   UNL     1       4.266   1.957   4.420  0.00  0.00    +0.025 C 
ATOM      7  C   UNL     1       5.324   1.031   4.452  0.00  0.00    +0.162 C 
ATOM      8  O   UNL     1       5.125  -0.086   4.888  0.00  0.00    -0.292 OA
ATOM      9  C   UNL     1       6.696   1.395   3.957  0.00  0.00    +0.086 C 
ATOM     10  C   UNL     1       6.906   2.903   4.133  0.00  0.00    -0.023 C 
ATOM     11  C   UNL     1       5.787   3.639   3.392  0.00  0.00    +0.058 C 
ATOM     12  C   UNL     1       6.858   3.258   5.620  0.00  0.00    +0.011 C 
ATOM     13  C   UNL     1       8.264   3.304   3.552  0.00  0.00    +0.011 C 
ENDROOT
BRANCH   4  14
ATOM     14  C   UNL     1       3.479   5.220   3.078  0.00  0.00    +0.040 A 
ATOM     15  C   UNL     1       3.988   6.423   3.550  0.00  0.00    +0.026 A 
ATOM     16  C   UNL     1       4.053   7.519   2.712  0.00  0.00    +0.034 A 
ATOM     17  C   UNL     1       3.601   7.423   1.408  0.00  0.00    +0.126 A 
ATOM     18  C   UNL     1       3.089   6.227   0.937  0.00  0.00    +0.034 A 
ATOM     19  C   UNL     1       3.027   5.126   1.768  0.00  0.00    +0.026 A 
BRANCH  17  20
ATOM     20  N   UNL     1       3.666   8.601   0.515  0.00  0.00    +0.056 N 
ATOM     21  O   UNL     1       3.269   8.517  -0.634  0.00  0.00    -0.126 OA
ATOM     22  O   UNL     1       4.117   9.654   0.928  0.00  0.00    -0.126 OA
ENDBRANCH  17  20
ENDBRANCH   4  14
BRANCH   1  25
ATOM     23  C   UNL     1       1.325   0.367   1.756  0.00  0.00    -0.009 A 
ATOM     24  C   UNL     1       1.933   1.169   2.662  0.00  0.00    +0.017 A 
ATOM     25  C   UNL     1       2.246   0.657   3.909  0.00  0.00    -0.014 A 
ATOM     26  C   UNL     1       1.932  -0.641   4.183  0.00  0.00    +0.049 A 
ATOM     27  S   UNL     1       1.167  -1.165   2.657  0.00  0.00    -0.087 S 
BRANCH  23  29
ATOM     28  C   UNL     1       2.030   0.380  -0.622  0.00  0.00    +0.009 C 
ATOM     29  C   UNL     1       0.889   0.688   0.349  0.00  0.00    +0.039 C 
ENDBRANCH  23  29
BRANCH  26  30
ATOM     30  S   UNL     1       2.203  -1.560   5.662  0.00  0.00    -0.118 S 
BRANCH  30  31
ATOM     31  C   UNL     1       1.528  -3.202   5.288  0.00  0.00    +0.071 C 
ATOM     32  C   UNL     1       1.701  -4.114   6.504  0.00  0.00    +0.015 C 
ENDBRANCH  30  31
ENDBRANCH  26  30
ENDBRANCH   1  25
BRANCH   3  33
ATOM     33  N   UNL     1       1.498   4.988   5.025  0.00  0.00    -0.345 N 
ATOM     34  H   UNL     1       1.717   5.982   4.608  0.00  0.00    +0.144 HD
ATOM     35  H   UNL     1       0.622   4.845   5.674  0.00  0.00    +0.144 HD
ENDBRANCH   3  33
BRANCH   2  36
ATOM     36  C   UNL     1       0.908   2.528   6.099  0.00  0.00    +0.099 C 
ATOM     37  N   UNL     1       0.003   2.393   6.773  0.00  0.00    -0.191 NA
ENDBRANCH   2  36
TORSDOF 8
