REMARK  Name = ZINC39361872
REMARK  9 active torsions:
REMARK  status: ('A' for Active; 'I' for Inactive)
REMARK    1  A    between atoms: C_1  and  C_2
REMARK    2  A    between atoms: C_5  and  C_36
REMARK    3  A    between atoms: C_6  and  N_8
REMARK    4  A    between atoms: C_9  and  C_27
REMARK    5  A    between atoms: C_13  and  S_14
REMARK    6  A    between atoms: S_14  and  C_15
REMARK    7  A    between atoms: C_15  and  C_16
REMARK    8  A    between atoms: N_18  and  C_19
REMARK    9  A    between atoms: C_27  and  C_28
REMARK                            x       y       z     vdW  Elec       q    Type
REMARK                         _______ _______ _______ _____ _____    ______ ____
ROOT
ATOM      1  N   UNL     1       0.050  -2.839   2.362  0.00  0.00    -0.258 N 
ATOM      2  C   UNL     1       1.240  -3.273   3.114  0.00  0.00    +0.187 C 
ATOM      3  N   UNL     1       0.684  -3.967   4.288  0.00  0.00    -0.246 N 
ATOM      4  N   UNL     1      -0.708  -3.900   4.158  0.00  0.00    -0.162 NA
ATOM      5  C   UNL     1      -1.053  -3.266   3.088  0.00  0.00    +0.180 C 
ATOM      6  H   UNL     1       1.183  -4.387   5.007  0.00  0.00    +0.170 HD
ENDROOT
BRANCH   1  12
ATOM      7  C   UNL     1      -0.000   1.462  -0.016  0.00  0.00    +0.044 C 
ATOM      8  C   UNL     1       0.010  -0.045  -0.025  0.00  0.00    -0.049 A 
ATOM      9  C   UNL     1       0.003  -0.729  -1.227  0.00  0.00    +0.004 A 
ATOM     10  C   UNL     1       0.012  -2.112  -1.240  0.00  0.00    +0.005 A 
ATOM     11  C   UNL     1       0.028  -2.815  -0.051  0.00  0.00    -0.029 A 
ATOM     12  C   UNL     1       0.035  -2.131   1.158  0.00  0.00    +0.041 A 
ATOM     13  C   UNL     1       0.031  -0.742   1.167  0.00  0.00    +0.027 A 
ATOM     14  C   UNL     1       0.036  -4.322  -0.066  0.00  0.00    +0.045 C 
ENDBRANCH   1  12
BRANCH   5  15
ATOM     15  S   UNL     1      -2.723  -2.981   2.605  0.00  0.00    -0.079 S 
BRANCH  15  16
ATOM     16  C   UNL     1      -3.700  -3.756   3.922  0.00  0.00    +0.173 C 
BRANCH  16  17
ATOM     17  C   UNL     1      -5.168  -3.582   3.628  0.00  0.00    +0.228 C 
ATOM     18  O   UNL     1      -5.520  -2.993   2.628  0.00  0.00    -0.275 OA
ATOM     19  N   UNL     1      -6.089  -4.081   4.476  0.00  0.00    -0.283 N 
ATOM     20  H   UNL     1      -5.809  -4.607   5.242  0.00  0.00    +0.155 HD
BRANCH  19  21
ATOM     21  C   UNL     1      -7.451  -3.839   4.252  0.00  0.00    +0.069 A 
ATOM     22  C   UNL     1      -7.940  -3.767   2.956  0.00  0.00    +0.029 A 
ATOM     23  C   UNL     1      -9.283  -3.529   2.737  0.00  0.00    +0.040 A 
ATOM     24  C   UNL     1     -10.142  -3.362   3.810  0.00  0.00    +0.126 A 
ATOM     25  C   UNL     1      -9.658  -3.433   5.105  0.00  0.00    +0.078 A 
ATOM     26  C   UNL     1      -8.315  -3.677   5.329  0.00  0.00    +0.147 A 
ATOM     27  F   UNL     1      -7.843  -3.752   6.593  0.00  0.00    -0.203 F 
ATOM     28  F   UNL     1     -11.455  -3.129   3.592  0.00  0.00    -0.205 F 
ENDBRANCH  19  21
ENDBRANCH  16  17
ENDBRANCH  15  16
ENDBRANCH   5  15
BRANCH   2  29
ATOM     29  C   UNL     1       2.073  -2.065   3.545  0.00  0.00    +0.097 C 
BRANCH  29  30
ATOM     30  C   UNL     1       3.344  -2.539   4.202  0.00  0.00    +0.029 A 
ATOM     31  N   UNL     1       3.352  -2.859   5.533  0.00  0.00    -0.311 N 
ATOM     32  C   UNL     1       4.480  -3.284   6.129  0.00  0.00    +0.327 A 
ATOM     33  O   UNL     1       4.465  -3.563   7.312  0.00  0.00    -0.247 OA
ATOM     34  N   UNL     1       5.627  -3.405   5.434  0.00  0.00    -0.275 N 
ATOM     35  C   UNL     1       5.660  -3.099   4.121  0.00  0.00    +0.254 A 
ATOM     36  O   UNL     1       6.697  -3.208   3.491  0.00  0.00    -0.268 OA
ATOM     37  C   UNL     1       4.479  -2.655   3.480  0.00  0.00    +0.091 A 
ATOM     38  H   UNL     1       6.431  -3.712   5.879  0.00  0.00    +0.173 HD
ATOM     39  H   UNL     1       2.535  -2.779   6.051  0.00  0.00    +0.170 HD
ENDBRANCH  29  30
ENDBRANCH   2  29
TORSDOF 7
