REMARK  Name = ZINC35711796
REMARK  12 active torsions:
REMARK  status: ('A' for Active; 'I' for Inactive)
REMARK    1  A    between atoms: C_1  and  C_2
REMARK    2  A    between atoms: C_2  and  C_3
REMARK    3  A    between atoms: C_3  and  N_4
REMARK    4  A    between atoms: C_5  and  C_35
REMARK    5  A    between atoms: C_6  and  C_29
REMARK    6  A    between atoms: C_7  and  C_12
REMARK    7  A    between atoms: C_15  and  N_18
REMARK    8  A    between atoms: N_21  and  C_22
REMARK    9  A    between atoms: C_29  and  O_31
REMARK   10  A    between atoms: O_31  and  C_32
REMARK   11  A    between atoms: C_32  and  C_33
REMARK   12  A    between atoms: C_32  and  C_34
REMARK                            x       y       z     vdW  Elec       q    Type
REMARK                         _______ _______ _______ _____ _____    ______ ____
ROOT
ATOM      1  C   UNL     1       0.305  -5.467  -0.281  0.00  0.00    -0.022 A 
ATOM      2  C   UNL     1      -0.486  -4.945   0.726  0.00  0.00    +0.007 A 
ATOM      3  C   UNL     1      -0.865  -5.739   1.790  0.00  0.00    +0.024 A 
ATOM      4  C   UNL     1      -0.452  -7.064   1.848  0.00  0.00    +0.035 A 
ATOM      5  C   UNL     1       0.342  -7.585   0.835  0.00  0.00    +0.024 A 
ATOM      6  C   UNL     1       0.714  -6.787  -0.229  0.00  0.00    +0.007 A 
ENDROOT
BRANCH   1  10
ATOM      7  N   UNL     1       0.601  -1.836  -1.529  0.00  0.00    -0.259 N 
ATOM      8  C   UNL     1       1.753  -2.405  -1.067  0.00  0.00    +0.024 C 
ATOM      9  C   UNL     1       1.888  -3.746  -0.994  0.00  0.00    +0.078 C 
ATOM     10  C   UNL     1       0.717  -4.598  -1.441  0.00  0.00    +0.143 C 
ATOM     11  N   UNL     1      -0.480  -3.887  -1.922  0.00  0.00    -0.288 N 
ATOM     12  C   UNL     1      -0.465  -2.539  -1.932  0.00  0.00    +0.307 C 
ATOM     13  O   UNL     1      -1.449  -1.943  -2.323  0.00  0.00    -0.252 OA
ATOM     14  C   UNL     1       2.894  -1.520  -0.632  0.00  0.00    +0.061 C 
ATOM     15  H   UNL     1      -1.261  -4.377  -2.222  0.00  0.00    +0.151 HD
BRANCH   9  16
ATOM     16  C   UNL     1       3.081  -4.337  -0.516  0.00  0.00    +0.339 C 
ATOM     17  O   UNL     1       4.009  -3.633  -0.163  0.00  0.00    -0.245 OA
BRANCH  16  18
ATOM     18  O   UNL     1       3.191  -5.680  -0.453  0.00  0.00    -0.459 OA
BRANCH  18  19
ATOM     19  C   UNL     1       4.424  -6.208   0.039  0.00  0.00    +0.171 C 
ATOM     20  C   UNL     1       4.337  -6.376   1.558  0.00  0.00    +0.052 C 
ATOM     21  C   UNL     1       4.692  -7.567  -0.610  0.00  0.00    +0.052 C 
ENDBRANCH  18  19
ENDBRANCH  16  18
ENDBRANCH   9  16
BRANCH   7  22
ATOM     22  C   UNL     1       0.524  -0.374  -1.581  0.00  0.00    +0.114 C 
BRANCH  22  24
ATOM     23  C   UNL     1       1.078   1.651  -2.936  0.00  0.00    +0.005 C 
ATOM     24  C   UNL     1       1.159   0.124  -2.882  0.00  0.00    +0.016 C 
ENDBRANCH  22  24
ENDBRANCH   7  22
ENDBRANCH   1  10
BRANCH   4  25
ATOM     25  N   UNL     1      -0.835  -7.871   2.925  0.00  0.00    -0.269 N 
ATOM     26  C   UNL     1      -2.050  -7.714   3.487  0.00  0.00    +0.308 C 
ATOM     27  O   UNL     1      -2.783  -6.820   3.110  0.00  0.00    -0.252 OA
ATOM     28  N   UNL     1      -2.452  -8.547   4.467  0.00  0.00    -0.267 N 
ATOM     29  H   UNL     1      -0.226  -8.544   3.267  0.00  0.00    +0.156 HD
ATOM     30  H   UNL     1      -1.838  -9.207   4.825  0.00  0.00    +0.156 HD
BRANCH  28  31
ATOM     31  C   UNL     1      -3.757  -8.461   4.968  0.00  0.00    +0.070 A 
ATOM     32  C   UNL     1      -4.804  -8.112   4.126  0.00  0.00    +0.026 A 
ATOM     33  C   UNL     1      -6.090  -8.027   4.622  0.00  0.00    +0.002 A 
ATOM     34  C   UNL     1      -6.337  -8.290   5.957  0.00  0.00    +0.003 A 
ATOM     35  C   UNL     1      -5.297  -8.637   6.801  0.00  0.00    +0.040 A 
ATOM     36  C   UNL     1      -4.008  -8.730   6.309  0.00  0.00    +0.145 A 
ATOM     37  F   UNL     1      -2.993  -9.076   7.131  0.00  0.00    -0.204 F 
ENDBRANCH  28  31
ENDBRANCH   4  25
TORSDOF 8
