REMARK  Name = ZINC56653184
REMARK  5 active torsions:
REMARK  status: ('A' for Active; 'I' for Inactive)
REMARK    1  A    between atoms: C_1  and  C_2
REMARK    2  A    between atoms: N_14  and  C_15
REMARK    3  A    between atoms: C_20  and  C_21
REMARK    4  A    between atoms: N_23  and  C_24
REMARK    5  A    between atoms: N_23  and  C_25
REMARK                            x       y       z     vdW  Elec       q    Type
REMARK                         _______ _______ _______ _____ _____    ______ ____
ROOT
ATOM      1  C   UNL     1      -0.190   1.812   0.232  0.00  0.00    +0.033 C 
ATOM      2  C   UNL     1      -0.206   0.283   0.169  0.00  0.00    +0.105 C 
ATOM      3  C   UNL     1      -1.634  -0.227   0.358  0.00  0.00    -0.017 A 
ATOM      4  C   UNL     1      -2.729   0.295  -0.328  0.00  0.00    +0.013 A 
ATOM      5  C   UNL     1      -3.965  -0.209  -0.113  0.00  0.00    +0.046 A 
ATOM      6  S   UNL     1      -3.639  -1.480   1.099  0.00  0.00    -0.101 S 
ATOM      7  C   UNL     1      -1.886  -1.241   1.230  0.00  0.00    -0.004 A 
ATOM      8  C   UNL     1      -0.912  -1.973   2.094  0.00  0.00    +0.062 C 
ATOM      9  C   UNL     1       0.509  -1.699   1.577  0.00  0.00    +0.115 C 
ATOM     10  N   UNL     1       0.616  -0.268   1.255  0.00  0.00    -0.278 N 
ATOM     11  C   UNL     1       1.456   0.527   1.947  0.00  0.00    +0.307 C 
ATOM     12  O   UNL     1       1.476   1.724   1.733  0.00  0.00    -0.252 OA
ATOM     13  N   UNL     1       2.276  -0.004   2.875  0.00  0.00    -0.269 N 
ATOM     14  H   UNL     1       2.312  -0.966   2.996  0.00  0.00    +0.156 HD
ENDROOT
BRANCH  13  15
ATOM     15  C   UNL     1       3.069   0.827   3.662  0.00  0.00    +0.048 A 
ATOM     16  C   UNL     1       3.586   2.002   3.134  0.00  0.00    +0.044 A 
ATOM     17  C   UNL     1       4.372   2.825   3.916  0.00  0.00    +0.043 A 
ATOM     18  C   UNL     1       4.652   2.485   5.231  0.00  0.00    +0.021 A 
ATOM     19  C   UNL     1       4.149   1.323   5.771  0.00  0.00    +0.016 A 
ATOM     20  C   UNL     1       3.346   0.484   4.994  0.00  0.00    +0.058 A 
ATOM     21 CL   UNL     1       5.015   4.293   3.248  0.00  0.00    -0.083 Cl
BRANCH  20  22
ATOM     22  C   UNL     1       2.797  -0.758   5.569  0.00  0.00    +0.248 C 
ATOM     23  O   UNL     1       1.605  -0.988   5.496  0.00  0.00    -0.270 OA
ATOM     24  N   UNL     1       3.617  -1.640   6.175  0.00  0.00    -0.304 N 
ATOM     25  C   UNL     1       3.092  -2.923   6.649  0.00  0.00    +0.132 C 
ATOM     26  C   UNL     1       5.034  -1.316   6.359  0.00  0.00    +0.132 C 
ENDBRANCH  20  22
ENDBRANCH  13  15
TORSDOF 2
