REMARK  Name = ZINC47156708
REMARK  8 active torsions:
REMARK  status: ('A' for Active; 'I' for Inactive)
REMARK    1  A    between atoms: C_1  and  C_2
REMARK    2  A    between atoms: C_2  and  C_3
REMARK    3  A    between atoms: C_2  and  N_4
REMARK    4  A    between atoms: N_4  and  S_5
REMARK    5  A    between atoms: S_5  and  C_8
REMARK    6  A    between atoms: C_10  and  C_16
REMARK    7  A    between atoms: N_18  and  C_19
REMARK    8  A    between atoms: C_24  and  N_25
REMARK                            x       y       z     vdW  Elec       q    Type
REMARK                         _______ _______ _______ _____ _____    ______ ____
ROOT
ATOM      1  C   UNL     1      -0.994  -3.122  -0.050  0.00  0.00    +0.124 A 
ATOM      2  C   UNL     1      -1.681  -4.176   0.513  0.00  0.00    +0.044 A 
ATOM      3  C   UNL     1      -0.997  -5.127   1.273  0.00  0.00    +0.057 A 
ATOM      4  C   UNL     1       0.383  -5.002   1.458  0.00  0.00    +0.055 A 
ATOM      5  C   UNL     1       1.060  -3.942   0.889  0.00  0.00    +0.042 A 
ATOM      6  C   UNL     1       0.374  -3.006   0.133  0.00  0.00    +0.069 A 
ATOM      7 CL   UNL     1       1.232  -1.679  -0.586  0.00  0.00    -0.081 Cl
ATOM      8 CL   UNL     1       1.244  -6.178   2.402  0.00  0.00    -0.083 Cl
ENDROOT
BRANCH   3   9
ATOM      9  C   UNL     1      -1.727  -6.258   1.879  0.00  0.00    +0.250 C 
ATOM     10  O   UNL     1      -1.128  -7.084   2.540  0.00  0.00    -0.270 OA
ATOM     11  N   UNL     1      -3.058  -6.375   1.699  0.00  0.00    -0.280 N 
ATOM     12  H   UNL     1      -3.548  -5.677   1.237  0.00  0.00    +0.155 HD
BRANCH  11  13
ATOM     13  C   UNL     1      -3.732  -7.503   2.179  0.00  0.00    +0.064 A 
ATOM     14  C   UNL     1      -3.064  -8.715   2.297  0.00  0.00    +0.027 A 
ATOM     15  C   UNL     1      -3.731  -9.827   2.772  0.00  0.00    +0.022 A 
ATOM     16  C   UNL     1      -5.066  -9.734   3.128  0.00  0.00    +0.043 A 
ATOM     17  C   UNL     1      -5.734  -8.528   3.011  0.00  0.00    +0.054 A 
ATOM     18  C   UNL     1      -5.069  -7.412   2.542  0.00  0.00    +0.149 A 
ATOM     19 CL   UNL     1      -5.902 -11.134   3.724  0.00  0.00    -0.083 Cl
BRANCH  18  20
ATOM     20  N   UNL     1      -5.782  -6.121   2.423  0.00  0.00    +0.058 N 
ATOM     21  O   UNL     1      -6.924  -6.023   2.809  0.00  0.00    -0.126 OA
ATOM     22  O   UNL     1      -5.224  -5.164   1.939  0.00  0.00    -0.126 OA
ENDBRANCH  18  20
ENDBRANCH  11  13
ENDBRANCH   3   9
BRANCH   1  23
ATOM     23  S   UNL     1      -1.857  -1.922  -1.009  0.00  0.00    +0.060 S 
ATOM     24  O   UNL     1      -1.451  -0.648  -0.528  0.00  0.00    -0.153 OA
ATOM     25  O   UNL     1      -3.219  -2.327  -1.036  0.00  0.00    -0.153 OA
BRANCH  23  26
ATOM     26  N   UNL     1      -1.297  -2.043  -2.563  0.00  0.00    -0.187 NA
ATOM     27  H   UNL     1      -0.799  -1.310  -2.957  0.00  0.00    +0.148 HD
BRANCH  26  29
ATOM     28  C   UNL     1      -1.788  -2.883  -4.807  0.00  0.00    +0.025 C 
ATOM     29  C   UNL     1      -1.553  -3.257  -3.342  0.00  0.00    +0.070 C 
ATOM     30  C   UNL     1      -0.346  -4.191  -3.241  0.00  0.00    +0.025 C 
ENDBRANCH  26  29
ENDBRANCH  23  26
ENDBRANCH   1  23
TORSDOF 6
