REMARK  Name = ZINC20751447
REMARK  7 active torsions:
REMARK  status: ('A' for Active; 'I' for Inactive)
REMARK    1  A    between atoms: C_1  and  C_2
REMARK    2  A    between atoms: C_2  and  N_3
REMARK    3  A    between atoms: N_3  and  C_4
REMARK    4  A    between atoms: N_3  and  S_10
REMARK    5  A    between atoms: S_10  and  C_13
REMARK    6  A    between atoms: C_26  and  C_29
REMARK    7  A    between atoms: C_38  and  O_39
REMARK                            x       y       z     vdW  Elec       q    Type
REMARK                         _______ _______ _______ _____ _____    ______ ____
ROOT
ATOM      1  C   UNL     1       0.357  -0.205  -0.153  0.00  0.00    +0.109 A 
ATOM      2  C   UNL     1       0.539  -0.989   0.972  0.00  0.00    +0.030 A 
ATOM      3  C   UNL     1       0.762  -2.344   0.833  0.00  0.00    +0.025 A 
ATOM      4  C   UNL     1       0.804  -2.915  -0.433  0.00  0.00    +0.031 A 
ATOM      5  C   UNL     1       0.620  -2.134  -1.563  0.00  0.00    -0.018 A 
ATOM      6  C   UNL     1       0.392  -0.773  -1.410  0.00  0.00    +0.034 A 
ATOM      7  C   UNL     1       0.650  -2.705  -2.946  0.00  0.00    +0.049 C 
ATOM      8  C   UNL     1       1.936  -2.360  -3.658  0.00  0.00    -0.023 C 
ATOM      9  C   UNL     1       2.318  -3.359  -4.415  0.00  0.00    -0.030 C 
ATOM     10  C   UNL     1       1.333  -4.508  -4.314  0.00  0.00    +0.033 C 
ATOM     11  C   UNL     1       0.610  -4.245  -2.960  0.00  0.00    +0.029 C 
ATOM     12  C   UNL     1       1.507  -4.801  -1.850  0.00  0.00    +0.109 C 
ATOM     13  N   UNL     1       1.036  -4.289  -0.559  0.00  0.00    -0.336 N 
ATOM     14  H   UNL     1       0.875  -4.980   0.281  0.00  0.00    +0.147 HD
ENDROOT
BRANCH  12  15
ATOM     15  C   UNL     1       1.438  -6.306  -1.851  0.00  0.00    +0.022 A 
ATOM     16  C   UNL     1       2.507  -7.062  -2.358  0.00  0.00    -0.009 A 
ATOM     17  C   UNL     1       3.659  -6.442  -2.873  0.00  0.00    +0.009 A 
ATOM     18  C   UNL     1       4.676  -7.206  -3.356  0.00  0.00    +0.001 A 
ATOM     19  C   UNL     1       4.595  -8.597  -3.348  0.00  0.00    +0.001 A 
ATOM     20  C   UNL     1       3.496  -9.232  -2.858  0.00  0.00    +0.008 A 
ATOM     21  C   UNL     1       2.425  -8.477  -2.351  0.00  0.00    -0.017 A 
ATOM     22  C   UNL     1       1.274  -9.100  -1.836  0.00  0.00    +0.012 A 
ATOM     23  C   UNL     1       0.255  -8.340  -1.352  0.00  0.00    +0.046 A 
ATOM     24  C   UNL     1       0.337  -6.944  -1.354  0.00  0.00    +0.122 A 
BRANCH  24  25
ATOM     25  O   UNL     1      -0.695  -6.211  -0.858  0.00  0.00    -0.506 OA
ATOM     26  H   UNL     1      -1.585  -6.717  -0.456  0.00  0.00    +0.292 HD
ENDBRANCH  24  25
ENDBRANCH  12  15
BRANCH   1  27
ATOM     27  S   UNL     1       0.074   1.526   0.020  0.00  0.00    +0.075 S 
ATOM     28  O   UNL     1      -0.608   1.945  -1.154  0.00  0.00    -0.150 OA
ATOM     29  O   UNL     1      -0.461   1.721   1.323  0.00  0.00    -0.150 OA
BRANCH  27  30
ATOM     30  N   UNL     1       1.553   2.269  -0.001  0.00  0.00    -0.203 N 
BRANCH  30  31
ATOM     31  C   UNL     1       2.196   2.578   1.200  0.00  0.00    +0.051 A 
ATOM     32  C   UNL     1       3.442   2.031   1.484  0.00  0.00    +0.025 A 
ATOM     33  C   UNL     1       4.077   2.343   2.670  0.00  0.00    +0.002 A 
ATOM     34  C   UNL     1       3.470   3.190   3.579  0.00  0.00    +0.000 A 
ATOM     35  C   UNL     1       2.229   3.732   3.302  0.00  0.00    +0.002 A 
ATOM     36  C   UNL     1       1.590   3.429   2.116  0.00  0.00    +0.025 A 
ENDBRANCH  30  31
BRANCH  30  38
ATOM     37  C   UNL     1       1.862   4.051  -1.647  0.00  0.00    +0.026 C 
ATOM     38  C   UNL     1       2.188   2.602  -1.278  0.00  0.00    +0.128 C 
ENDBRANCH  30  38
ENDBRANCH  27  30
ENDBRANCH   1  27
TORSDOF 6
