REMARK  Name = ZINC46768111
REMARK  6 active torsions:
REMARK  status: ('A' for Active; 'I' for Inactive)
REMARK    1  A    between atoms: C_4  and  O_22
REMARK    2  A    between atoms: C_5  and  C_7
REMARK    3  A    between atoms: N_9  and  N_10
REMARK    4  A    between atoms: C_11  and  C_13
REMARK    5  A    between atoms: O_22  and  C_23
REMARK    6  A    between atoms: C_23  and  C_24
REMARK                            x       y       z     vdW  Elec       q    Type
REMARK                         _______ _______ _______ _____ _____    ______ ____
ROOT
ATOM      1  C   UNL     1       1.250  -2.159  -0.022  0.00  0.00    +0.264 C 
ATOM      2  O   UNL     1       2.314  -2.748  -0.036  0.00  0.00    -0.269 OA
ATOM      3  N   UNL     1       0.095  -2.855  -0.014  0.00  0.00    -0.230 N 
ATOM      4  H   UNL     1      -0.754  -2.385  -0.003  0.00  0.00    +0.173 HD
ENDROOT
BRANCH   1   9
ATOM      5  C   UNL     1      -0.017   1.374   0.010  0.00  0.00    +0.001 A 
ATOM      6  C   UNL     1       1.170   2.089   0.002  0.00  0.00    +0.004 A 
ATOM      7  C   UNL     1       2.383   1.429  -0.013  0.00  0.00    +0.046 A 
ATOM      8  C   UNL     1       2.420   0.043  -0.021  0.00  0.00    +0.133 A 
ATOM      9  C   UNL     1       1.222  -0.684  -0.013  0.00  0.00    +0.080 A 
ATOM     10  C   UNL     1       0.002  -0.004   0.002  0.00  0.00    +0.017 A 
BRANCH   8  11
ATOM     11  O   UNL     1       3.611  -0.606  -0.037  0.00  0.00    -0.487 OA
BRANCH  11  12
ATOM     12  C   UNL     1       4.790   0.201  -0.045  0.00  0.00    +0.264 C 
BRANCH  12  13
ATOM     13  C   UNL     1       6.008  -0.687  -0.062  0.00  0.00    -0.010 A 
ATOM     14  C   UNL     1       6.574  -1.106   1.127  0.00  0.00    +0.008 A 
ATOM     15  C   UNL     1       7.691  -1.921   1.112  0.00  0.00    +0.015 A 
ATOM     16  C   UNL     1       8.240  -2.318  -0.094  0.00  0.00    +0.018 A 
ATOM     17  C   UNL     1       7.672  -1.899  -1.284  0.00  0.00    +0.015 A 
ATOM     18  C   UNL     1       6.553  -1.088  -1.268  0.00  0.00    +0.008 A 
ATOM     19 BR   UNL     1       9.768  -3.433  -0.116  0.00  0.00    -0.050 Br
ENDBRANCH  12  13
ENDBRANCH  11  12
ENDBRANCH   8  11
ENDBRANCH   1   9
BRANCH   3  20
ATOM     20  N   UNL     1       0.121  -4.255  -0.022  0.00  0.00    -0.230 N 
ATOM     21  C   UNL     1      -1.033  -4.951  -0.015  0.00  0.00    +0.260 C 
ATOM     22  O   UNL     1      -2.097  -4.362  -0.001  0.00  0.00    -0.269 OA
ATOM     23  H   UNL     1       0.970  -4.725  -0.034  0.00  0.00    +0.173 HD
BRANCH  21  24
ATOM     24  C   UNL     1      -1.006  -6.427  -0.024  0.00  0.00    +0.042 A 
ATOM     25  C   UNL     1       0.216  -7.104  -0.034  0.00  0.00    +0.017 A 
ATOM     26  C   UNL     1       0.239  -8.482  -0.041  0.00  0.00    +0.050 A 
ATOM     27  C   UNL     1      -0.949  -9.201  -0.039  0.00  0.00    +0.166 A 
ATOM     28  C   UNL     1      -2.172  -8.530  -0.029  0.00  0.00    +0.167 A 
ATOM     29  C   UNL     1      -2.202  -7.149  -0.015  0.00  0.00    +0.062 A 
ATOM     30  O   UNL     1      -3.176  -9.456  -0.028  0.00  0.00    -0.453 OA
ATOM     31  C   UNL     1      -2.562 -10.688  -0.451  0.00  0.00    +0.466 C 
ATOM     32  O   UNL     1      -1.189 -10.543  -0.044  0.00  0.00    -0.453 OA
ENDBRANCH  21  24
ENDBRANCH   3  20
TORSDOF 6
