REMARK  Name = ZINC27090245
REMARK  1 active torsions:
REMARK  status: ('A' for Active; 'I' for Inactive)
REMARK    1  A    between atoms: C_6  and  N_7
REMARK                            x       y       z     vdW  Elec       q    Type
REMARK                         _______ _______ _______ _____ _____    ______ ____
ROOT
ATOM      1  N   UNL     1       2.508  -3.531  -1.602  0.00  0.00    -0.196 N 
ATOM      2  C   UNL     1       1.317  -3.318  -2.215  0.00  0.00    +0.282 A 
ATOM      3  C   UNL     1       0.807  -2.157  -1.696  0.00  0.00    +0.082 A 
ATOM      4  C   UNL     1       1.738  -1.662  -0.734  0.00  0.00    +0.081 A 
ATOM      5  N   UNL     1       2.735  -2.487  -0.693  0.00  0.00    -0.167 NA
ATOM      6  C   UNL     1       1.484  -0.398   0.024  0.00  0.00    +0.065 C 
ATOM      7  C   UNL     1       2.216   0.799  -0.621  0.00  0.00    +0.012 C 
ATOM      8  C   UNL     1       1.455   2.002  -0.001  0.00  0.00    +0.003 C 
ATOM      9  C   UNL     1      -0.019   1.544   0.011  0.00  0.00    +0.027 C 
ATOM     10  C   UNL     1       0.002  -0.004   0.002  0.00  0.00    +0.114 C 
ATOM     11  N   UNL     1      -0.736  -0.450  -1.164  0.00  0.00    -0.287 NA
ATOM     12  C   UNL     1      -0.436  -1.422  -1.960  0.00  0.00    +0.120 C 
ATOM     13  O   UNL     1       0.743  -4.102  -3.158  0.00  0.00    -0.265 OA
ENDROOT
BRANCH   1  19
ATOM     14  C   UNL     1       2.845  -5.868  -2.121  0.00  0.00    +0.029 A 
ATOM     15  C   UNL     1       3.694  -6.931  -2.359  0.00  0.00    +0.022 A 
ATOM     16  C   UNL     1       5.065  -6.749  -2.302  0.00  0.00    +0.041 A 
ATOM     17  C   UNL     1       5.588  -5.501  -2.014  0.00  0.00    +0.022 A 
ATOM     18  C   UNL     1       4.743  -4.433  -1.782  0.00  0.00    +0.029 A 
ATOM     19  C   UNL     1       3.368  -4.613  -1.837  0.00  0.00    +0.069 A 
ATOM     20 CL   UNL     1       6.130  -8.089  -2.594  0.00  0.00    -0.084 Cl
ENDBRANCH   1  19
TORSDOF 1
