REMARK  Name = ZINC21007484
REMARK  9 active torsions:
REMARK  status: ('A' for Active; 'I' for Inactive)
REMARK    1  A    between atoms: C_1  and  C_2
REMARK    2  A    between atoms: C_2  and  C_3
REMARK    3  A    between atoms: C_2  and  C_4
REMARK    4  A    between atoms: C_4  and  C_6
REMARK    5  A    between atoms: C_4  and  N_23
REMARK    6  A    between atoms: N_8  and  N_9
REMARK    7  A    between atoms: C_10  and  C_12
REMARK    8  A    between atoms: C_17  and  N_18
REMARK    9  A    between atoms: C_24  and  C_26
REMARK                            x       y       z     vdW  Elec       q    Type
REMARK                         _______ _______ _______ _____ _____    ______ ____
ROOT
ATOM      1  C   UNL     1      -2.127   7.923   0.178  0.00  0.00    +0.250 C 
ATOM      2  O   UNL     1      -3.003   7.171   0.551  0.00  0.00    -0.272 OA
ATOM      3  N   UNL     1      -0.957   7.425  -0.269  0.00  0.00    -0.233 N 
ATOM      4  H   UNL     1      -0.135   8.106  -0.533  0.00  0.00    +0.173 HD
ENDROOT
BRANCH   3   5
ATOM      5  N   UNL     1      -0.788   6.040  -0.397  0.00  0.00    -0.230 N 
ATOM      6  C   UNL     1       0.382   5.542  -0.845  0.00  0.00    +0.262 C 
ATOM      7  O   UNL     1       1.290   6.295  -1.137  0.00  0.00    -0.269 OA
ATOM      8  H   UNL     1      -1.611   5.359  -0.133  0.00  0.00    +0.173 HD
BRANCH   6   9
ATOM      9  C   UNL     1       0.559   4.083  -0.980  0.00  0.00    +0.062 A 
ATOM     10  C   UNL     1      -0.243   3.207  -0.245  0.00  0.00    +0.015 A 
ATOM     11  C   UNL     1      -0.076   1.846  -0.380  0.00  0.00    +0.001 A 
ATOM     12  C   UNL     1       0.892   1.341  -1.233  0.00  0.00    +0.002 A 
ATOM     13  C   UNL     1       1.692   2.196  -1.965  0.00  0.00    +0.027 A 
ATOM     14  C   UNL     1       1.534   3.569  -1.846  0.00  0.00    +0.058 A 
BRANCH  14  15
ATOM     15  N   UNL     1       2.343   4.435  -2.586  0.00  0.00    -0.322 N 
ATOM     16  C   UNL     1       1.899   5.407  -3.438  0.00  0.00    +0.091 A 
ATOM     17  C   UNL     1       2.974   6.032  -3.959  0.00  0.00    +0.019 A 
ATOM     18  C   UNL     1       4.124   5.421  -3.417  0.00  0.00    +0.019 A 
ATOM     19  C   UNL     1       3.709   4.448  -2.581  0.00  0.00    +0.091 A 
ENDBRANCH  14  15
ENDBRANCH   6   9
ENDBRANCH   3   5
BRANCH   1  20
ATOM     20  C   UNL     1      -2.347   9.413   0.215  0.00  0.00    +0.163 C 
BRANCH  20  21
ATOM     21  N   UNL     1      -3.779   9.693   0.347  0.00  0.00    -0.300 N 
ATOM     22  C   UNL     1      -4.280  10.865  -0.090  0.00  0.00    +0.250 C 
ATOM     23  O   UNL     1      -3.543  11.691  -0.594  0.00  0.00    -0.270 OA
ATOM     24  H   UNL     1      -4.445   8.945   0.802  0.00  0.00    +0.150 HD
BRANCH  22  25
ATOM     25  C   UNL     1      -5.722  11.146   0.042  0.00  0.00    +0.107 A 
ATOM     26  C   UNL     1      -6.215  11.764   1.196  0.00  0.00    +0.138 A 
ATOM     27  C   UNL     1      -7.567  12.029   1.310  0.00  0.00    +0.039 A 
ATOM     28  C   UNL     1      -8.433  11.675   0.291  0.00  0.00    +0.006 A 
ATOM     29  C   UNL     1      -7.955  11.058  -0.851  0.00  0.00    +0.039 A 
ATOM     30  C   UNL     1      -6.605  10.791  -0.983  0.00  0.00    +0.138 A 
ATOM     31  F   UNL     1      -6.140  10.189  -2.099  0.00  0.00    -0.205 F 
ATOM     32  F   UNL     1      -5.372  12.106   2.195  0.00  0.00    -0.205 F 
ENDBRANCH  22  25
ENDBRANCH  20  21
BRANCH  20  34
ATOM     33  C   UNL     1      -1.730  11.534   1.384  0.00  0.00    +0.009 C 
ATOM     34  C   UNL     1      -1.599  10.010   1.409  0.00  0.00    +0.012 C 
ATOM     35  C   UNL     1      -2.198   9.468   2.709  0.00  0.00    +0.009 C 
ENDBRANCH  20  34
ENDBRANCH   1  20
TORSDOF 7
