REMARK  Name = ZINC39661123
REMARK  4 active torsions:
REMARK  status: ('A' for Active; 'I' for Inactive)
REMARK    1  A    between atoms: C_2  and  C_12
REMARK    2  A    between atoms: C_6  and  C_7
REMARK    3  A    between atoms: C_16  and  C_25
REMARK    4  A    between atoms: N_27  and  C_28
REMARK                            x       y       z     vdW  Elec       q    Type
REMARK                         _______ _______ _______ _____ _____    ______ ____
ROOT
ATOM      1  C   UNL     1       1.167   3.573   0.007  0.00  0.00    +0.247 C 
ATOM      2  O   UNL     1       0.114   4.173  -0.090  0.00  0.00    -0.270 OA
ATOM      3  N   UNL     1       2.325   4.255   0.102  0.00  0.00    -0.296 N 
ATOM      4  C   UNL     1       3.703   3.710   0.099  0.00  0.00    +0.121 C 
ATOM      5  C   UNL     1       4.520   4.718  -0.740  0.00  0.00    +0.100 C 
ATOM      6  C   UNL     1       3.732   6.036  -0.646  0.00  0.00    -0.004 C 
ATOM      7  C   UNL     1       2.509   5.721   0.228  0.00  0.00    +0.115 C 
ATOM      8  C   UNL     1       4.586   7.117   0.010  0.00  0.00    -0.010 C 
ATOM      9  C   UNL     1       3.803   8.432   0.039  0.00  0.00    -0.082 C 
ATOM     10  N   UNL     1       3.448   8.824  -1.330  0.00  0.00    +0.379 N 
ATOM     11  C   UNL     1       2.551   7.823  -1.921  0.00  0.00    -0.082 C 
ATOM     12  C   UNL     1       3.282   6.482  -2.033  0.00  0.00    -0.010 C 
ATOM     13  H   UNL     1       2.986   9.720  -1.313  0.00  0.00    -0.086 HD
ATOM     14  H   UNL     1       4.287   8.892  -1.887  0.00  0.00    -0.086 HD
ENDROOT
BRANCH   1  16
ATOM     15  C   UNL     1       0.131   1.381  -0.568  0.00  0.00    +0.025 A 
ATOM     16  C   UNL     1       1.176   2.094   0.021  0.00  0.00    +0.040 A 
ATOM     17  C   UNL     1       2.231   1.406   0.622  0.00  0.00    +0.051 A 
ATOM     18  C   UNL     1       2.233   0.024   0.630  0.00  0.00    +0.125 A 
ATOM     19  C   UNL     1       1.192  -0.676   0.043  0.00  0.00    +0.050 A 
ATOM     20  C   UNL     1       0.144   0.002  -0.554  0.00  0.00    +0.058 A 
ATOM     21  F   UNL     1       3.253  -0.645   1.211  0.00  0.00    -0.205 F 
BRANCH  20  22
ATOM     22  C   UNL     1      -0.985  -0.767  -1.189  0.00  0.00    +0.418 C 
ATOM     23  F   UNL     1      -0.684  -1.012  -2.534  0.00  0.00    -0.166 F 
ATOM     24  F   UNL     1      -1.153  -1.985  -0.521  0.00  0.00    -0.166 F 
ATOM     25  F   UNL     1      -2.165  -0.021  -1.103  0.00  0.00    -0.166 F 
ENDBRANCH  20  22
ENDBRANCH   1  16
BRANCH   5  26
ATOM     26  C   UNL     1       4.609   4.259  -2.172  0.00  0.00    +0.219 C 
ATOM     27  O   UNL     1       3.674   3.678  -2.682  0.00  0.00    -0.275 OA
ATOM     28  N   UNL     1       5.727   4.494  -2.887  0.00  0.00    -0.304 N 
ATOM     29  H   UNL     1       6.474   4.958  -2.480  0.00  0.00    +0.149 HD
BRANCH  28  30
ATOM     30  C   UNL     1       5.813   4.047  -4.280  0.00  0.00    +0.151 C 
ATOM     31  C   UNL     1       6.787   4.954  -5.034  0.00  0.00    +0.042 C 
ATOM     32  C   UNL     1       7.307   4.170  -6.262  0.00  0.00    +0.079 C 
ATOM     33  S   UNL     1       7.231   2.439  -5.658  0.00  0.00    -0.086 S 
ATOM     34  C   UNL     1       6.253   2.602  -4.306  0.00  0.00    +0.209 C 
ATOM     35  O   UNL     1       5.957   1.734  -3.511  0.00  0.00    -0.283 OA
ENDBRANCH  28  30
ENDBRANCH   5  26
TORSDOF 4
