REMARK  Name = ZINC36066411
REMARK  13 active torsions:
REMARK  status: ('A' for Active; 'I' for Inactive)
REMARK    1  A    between atoms: C_1  and  C_2
REMARK    2  A    between atoms: C_2  and  C_3
REMARK    3  A    between atoms: C_3  and  C_4
REMARK    4  A    between atoms: C_4  and  C_5
REMARK    5  A    between atoms: C_5  and  C_6
REMARK    6  A    between atoms: C_6  and  N_7
REMARK    7  A    between atoms: C_8  and  C_33
REMARK    8  A    between atoms: C_16  and  C_22
REMARK    9  A    between atoms: N_24  and  C_25
REMARK   10  A    between atoms: C_29  and  O_31
REMARK   11  A    between atoms: O_31  and  C_32
REMARK   12  A    between atoms: N_35  and  C_36
REMARK   13  A    between atoms: C_42  and  C_44
REMARK                            x       y       z     vdW  Elec       q    Type
REMARK                         _______ _______ _______ _____ _____    ______ ____
ROOT
ATOM      1  N   UNL     1      -4.062  -5.174   0.417  0.00  0.00    -0.287 N 
ATOM      2  C   UNL     1      -4.980  -5.438   1.569  0.00  0.00    +0.198 C 
ATOM      3  C   UNL     1      -6.035  -6.292   0.935  0.00  0.00    +0.127 C 
ATOM      4  C   UNL     1      -5.542  -7.688   0.604  0.00  0.00    +0.009 C 
ATOM      5  C   UNL     1      -6.576  -8.316   0.064  0.00  0.00    +0.004 C 
ATOM      6  C   UNL     1      -7.694  -7.267   0.011  0.00  0.00    +0.155 C 
ATOM      7  O   UNL     1      -7.400  -6.467   1.231  0.00  0.00    -0.358 OA
ATOM      8  C   UNL     1      -7.207  -6.322  -1.155  0.00  0.00    +0.123 C 
ATOM      9  C   UNL     1      -6.175  -5.473  -0.411  0.00  0.00    +0.128 C 
ATOM     10  C   UNL     1      -4.756  -5.294  -0.763  0.00  0.00    +0.223 C 
ATOM     11  O   UNL     1      -4.288  -5.262  -1.882  0.00  0.00    -0.275 OA
ENDROOT
BRANCH   8  12
ATOM     12  C   UNL     1      -6.579  -7.118  -2.270  0.00  0.00    +0.224 C 
ATOM     13  O   UNL     1      -5.417  -6.935  -2.565  0.00  0.00    -0.275 OA
ATOM     14  N   UNL     1      -7.308  -8.032  -2.939  0.00  0.00    -0.285 N 
ATOM     15  H   UNL     1      -8.213  -8.233  -2.654  0.00  0.00    +0.155 HD
BRANCH  14  16
ATOM     16  C   UNL     1      -6.760  -8.692  -4.044  0.00  0.00    +0.037 A 
ATOM     17  C   UNL     1      -7.117 -10.006  -4.317  0.00  0.00    +0.023 A 
ATOM     18  C   UNL     1      -6.575 -10.657  -5.408  0.00  0.00    +0.005 A 
ATOM     19  C   UNL     1      -5.678 -10.004  -6.231  0.00  0.00    +0.046 A 
ATOM     20  C   UNL     1      -5.317  -8.691  -5.963  0.00  0.00    +0.122 A 
ATOM     21  C   UNL     1      -5.864  -8.032  -4.873  0.00  0.00    +0.069 A 
BRANCH  20  22
ATOM     22  O   UNL     1      -4.434  -8.049  -6.773  0.00  0.00    -0.495 OA
ATOM     23  C   UNL     1      -3.916  -8.787  -7.881  0.00  0.00    +0.277 C 
ENDBRANCH  20  22
ENDBRANCH  14  16
ENDBRANCH   8  12
BRANCH   2  24
ATOM     24  C   UNL     1      -5.569  -4.154   2.093  0.00  0.00    +0.237 C 
ATOM     25  O   UNL     1      -5.558  -3.156   1.405  0.00  0.00    -0.274 OA
ATOM     26  N   UNL     1      -6.109  -4.115   3.328  0.00  0.00    -0.311 N 
ATOM     27  H   UNL     1      -6.118  -4.913   3.879  0.00  0.00    +0.149 HD
BRANCH  26  28
ATOM     28  C   UNL     1      -6.682  -2.866   3.837  0.00  0.00    +0.076 C 
ATOM     29  C   UNL     1      -5.573  -2.011   4.455  0.00  0.00    +0.022 C 
ATOM     30  C   UNL     1      -4.917  -2.779   5.604  0.00  0.00    +0.002 C 
ATOM     31  C   UNL     1      -5.968  -3.097   6.670  0.00  0.00    +0.000 C 
ATOM     32  C   UNL     1      -7.077  -3.952   6.053  0.00  0.00    +0.005 C 
ATOM     33  C   UNL     1      -7.733  -3.185   4.903  0.00  0.00    +0.006 C 
ATOM     34  C   UNL     1      -8.841  -4.040   4.286  0.00  0.00    +0.009 C 
ENDBRANCH  26  28
ENDBRANCH   2  24
BRANCH   1  35
ATOM     35  C   UNL     1      -2.642  -4.834   0.530  0.00  0.00    +0.109 C 
BRANCH  35  36
ATOM     36  C   UNL     1      -2.488  -3.314   0.627  0.00  0.00    +0.019 C 
BRANCH  36  37
ATOM     37  C   UNL     1      -1.004  -2.959   0.745  0.00  0.00    +0.002 C 
BRANCH  37  38
ATOM     38  C   UNL     1      -0.850  -1.440   0.841  0.00  0.00    -0.000 C 
BRANCH  38  40
ATOM     39  C   UNL     1       0.787   0.435   1.056  0.00  0.00    +0.004 C 
ATOM     40  C   UNL     1       0.633  -1.084   0.960  0.00  0.00    -0.003 C 
ENDBRANCH  38  40
ENDBRANCH  37  38
ENDBRANCH  36  37
ENDBRANCH  35  36
ENDBRANCH   1  35
TORSDOF 10
