REMARK  Name = ZINC02640187
REMARK  8 active torsions:
REMARK  status: ('A' for Active; 'I' for Inactive)
REMARK    1  A    between atoms: C_1  and  C_2
REMARK    2  A    between atoms: C_2  and  N_3
REMARK    3  A    between atoms: N_3  and  C_4
REMARK    4  A    between atoms: C_7  and  S_21
REMARK    5  A    between atoms: C_9  and  N_10
REMARK    6  A    between atoms: N_10  and  S_11
REMARK    7  A    between atoms: S_11  and  C_14
REMARK    8  A    between atoms: S_21  and  C_24
REMARK                            x       y       z     vdW  Elec       q    Type
REMARK                         _______ _______ _______ _____ _____    ______ ____
ROOT
ATOM      1  C   UNL     1      -1.596  -1.709   0.269  0.00  0.00    +0.050 A 
ATOM      2  C   UNL     1      -0.475  -2.512   0.414  0.00  0.00    +0.027 A 
ATOM      3  C   UNL     1      -0.613  -3.887   0.470  0.00  0.00    +0.029 A 
ATOM      4  C   UNL     1      -1.866  -4.464   0.381  0.00  0.00    +0.099 A 
ATOM      5  C   UNL     1      -2.989  -3.670   0.235  0.00  0.00    +0.053 A 
ATOM      6  C   UNL     1      -2.860  -2.291   0.185  0.00  0.00    +0.071 A 
ENDROOT
BRANCH   4   7
ATOM      7  S   UNL     1      -2.033  -6.217   0.453  0.00  0.00    +0.091 S 
ATOM      8  O   UNL     1      -3.235  -6.496  -0.253  0.00  0.00    -0.161 OA
ATOM      9  O   UNL     1      -0.787  -6.719  -0.012  0.00  0.00    -0.161 OA
BRANCH   7  10
ATOM     10  C   UNL     1      -2.241  -6.594   2.215  0.00  0.00    +0.526 C 
ATOM     11  F   UNL     1      -3.382  -5.945   2.699  0.00  0.00    -0.150 F 
ATOM     12  F   UNL     1      -2.383  -7.975   2.383  0.00  0.00    -0.150 F 
ATOM     13  F   UNL     1      -1.118  -6.151   2.922  0.00  0.00    -0.150 F 
ENDBRANCH   7  10
ENDBRANCH   4   7
BRANCH   1  14
ATOM     14  N   UNL     1      -1.458  -0.316   0.212  0.00  0.00    -0.343 N 
ATOM     15  H   UNL     1      -2.243   0.245   0.111  0.00  0.00    +0.146 HD
BRANCH  14  17
ATOM     16  C   UNL     1      -0.259   1.815   0.218  0.00  0.00    +0.024 C 
ATOM     17  C   UNL     1      -0.130   0.293   0.307  0.00  0.00    +0.098 C 
ENDBRANCH  14  17
ENDBRANCH   1  14
BRANCH   6  18
ATOM     18  N   UNL     1      -3.996  -1.484   0.044  0.00  0.00    -0.214 N 
ATOM     19  H   UNL     1      -3.951  -0.670  -0.480  0.00  0.00    +0.174 HD
BRANCH  18  20
ATOM     20  S   UNL     1      -5.418  -1.922   0.772  0.00  0.00    +0.072 S 
ATOM     21  O   UNL     1      -6.333  -0.858   0.550  0.00  0.00    -0.150 OA
ATOM     22  O   UNL     1      -5.689  -3.256   0.366  0.00  0.00    -0.150 OA
BRANCH  20  23
ATOM     23  C   UNL     1      -5.119  -1.975   2.508  0.00  0.00    +0.109 A 
ATOM     24  C   UNL     1      -4.698  -3.151   3.101  0.00  0.00    +0.030 A 
ATOM     25  C   UNL     1      -4.458  -3.191   4.461  0.00  0.00    +0.022 A 
ATOM     26  C   UNL     1      -4.650  -2.058   5.232  0.00  0.00    +0.041 A 
ATOM     27  C   UNL     1      -5.077  -0.884   4.639  0.00  0.00    +0.022 A 
ATOM     28  C   UNL     1      -5.312  -0.843   3.277  0.00  0.00    +0.030 A 
ATOM     29 CL   UNL     1      -4.356  -2.111   6.942  0.00  0.00    -0.084 Cl
ENDBRANCH  20  23
ENDBRANCH  18  20
ENDBRANCH   6  18
TORSDOF 7
