REMARK  Name = ZINC38937498
REMARK  10 active torsions:
REMARK  status: ('A' for Active; 'I' for Inactive)
REMARK    1  A    between atoms: C_1  and  C_2
REMARK    2  A    between atoms: C_2  and  C_3
REMARK    3  A    between atoms: C_2  and  C_4
REMARK    4  A    between atoms: C_2  and  C_5
REMARK    5  A    between atoms: C_8  and  C_11
REMARK    6  A    between atoms: N_13  and  C_14
REMARK    7  A    between atoms: N_13  and  C_27
REMARK    8  A    between atoms: C_14  and  C_15
REMARK    9  A    between atoms: C_30  and  O_33
REMARK   10  A    between atoms: O_33  and  C_34
REMARK                            x       y       z     vdW  Elec       q    Type
REMARK                         _______ _______ _______ _____ _____    ______ ____
ROOT
ATOM      1  C   UNL     1       2.711  -1.917  -4.711  0.00  0.00    +0.251 C 
ATOM      2  O   UNL     1       2.115  -1.479  -3.746  0.00  0.00    -0.270 OA
ATOM      3  N   UNL     1       4.007  -1.602  -4.902  0.00  0.00    -0.266 N 
ENDROOT
BRANCH   1   7
ATOM      4  C   UNL     1       0.706  -4.436  -7.481  0.00  0.00    -0.042 A 
ATOM      5  C   UNL     1       0.299  -4.404  -6.159  0.00  0.00    +0.005 A 
ATOM      6  C   UNL     1       0.946  -3.588  -5.254  0.00  0.00    +0.013 A 
ATOM      7  C   UNL     1       2.014  -2.794  -5.675  0.00  0.00    +0.037 A 
ATOM      8  C   UNL     1       2.420  -2.831  -7.010  0.00  0.00    +0.013 A 
ATOM      9  C   UNL     1       1.768  -3.655  -7.903  0.00  0.00    +0.005 A 
BRANCH   4  11
ATOM     10  C   UNL     1       0.988  -6.337  -9.048  0.00  0.00    +0.015 C 
ATOM     11  C   UNL     1      -0.005  -5.330  -8.464  0.00  0.00    -0.013 C 
ATOM     12  C   UNL     1      -0.594  -4.481  -9.592  0.00  0.00    +0.015 C 
ATOM     13  C   UNL     1      -1.130  -6.080  -7.749  0.00  0.00    +0.015 C 
ENDBRANCH   4  11
ENDBRANCH   1   7
BRANCH   3  14
ATOM     14  C   UNL     1       4.712  -0.904  -3.912  0.00  0.00    +0.037 A 
ATOM     15  C   UNL     1       6.086  -0.741  -4.023  0.00  0.00    +0.027 A 
ATOM     16  C   UNL     1       6.780  -0.052  -3.047  0.00  0.00    +0.047 A 
ATOM     17  C   UNL     1       6.104   0.475  -1.957  0.00  0.00    +0.120 A 
ATOM     18  C   UNL     1       4.731   0.311  -1.845  0.00  0.00    +0.047 A 
ATOM     19  C   UNL     1       4.035  -0.371  -2.823  0.00  0.00    +0.027 A 
BRANCH  17  20
ATOM     20  O   UNL     1       6.788   1.153  -0.996  0.00  0.00    -0.495 OA
ATOM     21  C   UNL     1       6.028   1.669   0.099  0.00  0.00    +0.277 C 
ENDBRANCH  17  20
ENDBRANCH   3  14
BRANCH   3  22
ATOM     22  C   UNL     1       4.680  -1.990  -6.144  0.00  0.00    +0.131 C 
BRANCH  22  23
ATOM     23  C   UNL     1       4.606  -0.836  -7.146  0.00  0.00    +0.116 C 
ATOM     24  C   UNL     1       5.112  -1.346  -8.481  0.00  0.00    -0.003 C 
ATOM     25  C   UNL     1       6.174  -0.696  -9.037  0.00  0.00    -0.007 A 
ATOM     26  C   UNL     1       6.725  -1.123 -10.323  0.00  0.00    +0.009 A 
ATOM     27  C   UNL     1       7.784  -0.446 -10.838  0.00  0.00    +0.001 A 
ATOM     28  C   UNL     1       8.350   0.638 -10.167  0.00  0.00    +0.002 A 
ATOM     29  C   UNL     1       7.885   1.083  -8.971  0.00  0.00    +0.024 A 
ATOM     30  C   UNL     1       6.790   0.452  -8.351  0.00  0.00    +0.040 A 
ATOM     31  N   UNL     1       6.342   0.898  -7.177  0.00  0.00    -0.284 N 
ATOM     32  C   UNL     1       5.322   0.351  -6.540  0.00  0.00    +0.226 C 
ATOM     33  O   UNL     1       4.958   0.801  -5.470  0.00  0.00    -0.275 OA
ATOM     34  H   UNL     1       6.787   1.659  -6.771  0.00  0.00    +0.155 HD
ENDBRANCH  22  23
ENDBRANCH   3  22
TORSDOF 6
