REMARK  Name = ZINC39850694
REMARK  9 active torsions:
REMARK  status: ('A' for Active; 'I' for Inactive)
REMARK    1  A    between atoms: C_1  and  C_2
REMARK    2  A    between atoms: C_2  and  O_3
REMARK    3  A    between atoms: O_3  and  C_4
REMARK    4  A    between atoms: C_4  and  C_6
REMARK    5  A    between atoms: C_9  and  N_12
REMARK    6  A    between atoms: C_13  and  C_15
REMARK    7  A    between atoms: C_18  and  C_21
REMARK    8  A    between atoms: C_21  and  S_22
REMARK    9  A    between atoms: S_22  and  C_23
REMARK                            x       y       z     vdW  Elec       q    Type
REMARK                         _______ _______ _______ _____ _____    ______ ____
ROOT
ATOM      1  C   UNL     1      -8.197  -5.972  -0.159  0.00  0.00    +0.037 A 
ATOM      2  C   UNL     1      -9.314  -5.136  -0.156  0.00  0.00    +0.013 A 
ATOM      3  C   UNL     1     -10.579  -5.679  -0.251  0.00  0.00    +0.005 A 
ATOM      4  C   UNL     1     -10.741  -7.049  -0.350  0.00  0.00    -0.037 A 
ATOM      5  C   UNL     1      -9.637  -7.884  -0.354  0.00  0.00    +0.005 A 
ATOM      6  C   UNL     1      -8.367  -7.354  -0.265  0.00  0.00    +0.013 A 
ENDROOT
BRANCH   1   8
ATOM      7  N   UNL     1      -6.678  -4.063   0.044  0.00  0.00    -0.282 N 
ATOM      8  C   UNL     1      -6.839  -5.397  -0.058  0.00  0.00    +0.248 C 
ATOM      9  O   UNL     1      -5.867  -6.128  -0.066  0.00  0.00    -0.270 OA
ATOM     10  H   UNL     1      -7.453  -3.486   0.128  0.00  0.00    +0.155 HD
BRANCH   7  14
ATOM     11  C   UNL     1      -2.853  -2.417  -0.002  0.00  0.00    +0.059 A 
ATOM     12  C   UNL     1      -3.132  -3.562  -0.755  0.00  0.00    +0.017 A 
ATOM     13  C   UNL     1      -4.397  -4.103  -0.737  0.00  0.00    +0.024 A 
ATOM     14  C   UNL     1      -5.398  -3.512   0.029  0.00  0.00    +0.034 A 
ATOM     15  C   UNL     1      -5.123  -2.373   0.779  0.00  0.00    +0.024 A 
ATOM     16  C   UNL     1      -3.859  -1.830   0.771  0.00  0.00    +0.017 A 
BRANCH  11  17
ATOM     17  C   UNL     1      -1.498  -1.835  -0.018  0.00  0.00    +0.339 C 
ATOM     18  O   UNL     1      -1.255  -0.843   0.640  0.00  0.00    -0.245 OA
BRANCH  17  19
ATOM     19  O   UNL     1      -0.529  -2.402  -0.764  0.00  0.00    -0.461 OA
BRANCH  19  21
ATOM     20  C   UNL     1       1.720  -2.564  -1.633  0.00  0.00    +0.048 C 
ATOM     21  C   UNL     1       0.759  -1.785  -0.732  0.00  0.00    +0.229 C 
ENDBRANCH  19  21
ENDBRANCH  17  19
ENDBRANCH  11  17
ENDBRANCH   7  14
ENDBRANCH   1   8
BRANCH   4  22
ATOM     22  C   UNL     1     -12.125  -7.636  -0.453  0.00  0.00    +0.112 C 
BRANCH  22  23
ATOM     23  S   UNL     1     -12.602  -7.758  -2.199  0.00  0.00    -0.080 S 
BRANCH  23  24
ATOM     24  C   UNL     1     -14.221  -8.451  -2.151  0.00  0.00    +0.207 C 
ATOM     25  N   UNL     1     -14.743  -8.723  -0.979  0.00  0.00    -0.227 NA
ATOM     26  C   UNL     1     -16.052  -9.370  -0.951  0.00  0.00    +0.252 C 
ATOM     27  C   UNL     1     -16.772  -8.935  -2.220  0.00  0.00    +0.117 C 
ATOM     28  C   UNL     1     -18.005  -8.520  -1.817  0.00  0.00    +0.025 A 
ATOM     29  C   UNL     1     -19.153  -8.108  -2.538  0.00  0.00    +0.012 A 
ATOM     30  C   UNL     1     -20.243  -7.734  -1.818  0.00  0.00    +0.001 A 
ATOM     31  C   UNL     1     -20.299  -7.730  -0.420  0.00  0.00    +0.002 A 
ATOM     32  C   UNL     1     -19.262  -8.111   0.372  0.00  0.00    +0.026 A 
ATOM     33  C   UNL     1     -18.037  -8.542  -0.322  0.00  0.00    +0.046 A 
ATOM     34  N   UNL     1     -16.910  -8.971   0.156  0.00  0.00    -0.358 N 
ATOM     35  N   UNL     1     -16.135  -8.884  -3.394  0.00  0.00    -0.147 NA
ATOM     36  N   UNL     1     -14.858  -8.668  -3.328  0.00  0.00    -0.122 NA
ATOM     37  H   UNL     1     -16.677  -9.020   1.097  0.00  0.00    +0.162 HD
ENDBRANCH  23  24
ENDBRANCH  22  23
ENDBRANCH   4  22
TORSDOF 8
