REMARK  Name = ZINC39665544
REMARK  9 active torsions:
REMARK  status: ('A' for Active; 'I' for Inactive)
REMARK    1  A    between atoms: C_1  and  C_2
REMARK    2  A    between atoms: C_2  and  C_4
REMARK    3  A    between atoms: C_2  and  O_29
REMARK    4  A    between atoms: C_4  and  N_5
REMARK    5  A    between atoms: C_6  and  C_8
REMARK    6  A    between atoms: C_19  and  C_21
REMARK    7  A    between atoms: O_29  and  C_30
REMARK    8  A    between atoms: C_33  and  O_36
REMARK    9  A    between atoms: O_36  and  C_37
REMARK                            x       y       z     vdW  Elec       q    Type
REMARK                         _______ _______ _______ _____ _____    ______ ____
ROOT
ATOM      1  C   UNL     1       1.386  -4.282   1.471  0.00  0.00    +0.100 C 
ATOM      2  C   UNL     1      -0.039  -4.842   1.259  0.00  0.00    +0.121 C 
ATOM      3  N   UNL     1      -0.009  -6.188   1.878  0.00  0.00    -0.296 N 
ATOM      4  C   UNL     1       0.804  -6.011   3.105  0.00  0.00    +0.115 C 
ATOM      5  C   UNL     1       1.935  -5.052   2.684  0.00  0.00    -0.004 C 
ATOM      6  C   UNL     1       3.178  -5.843   2.289  0.00  0.00    -0.010 C 
ATOM      7  C   UNL     1       3.739  -6.554   3.524  0.00  0.00    -0.082 C 
ATOM      8  N   UNL     1       4.073  -5.562   4.553  0.00  0.00    +0.379 N 
ATOM      9  C   UNL     1       2.856  -4.869   4.994  0.00  0.00    -0.082 C 
ATOM     10  C   UNL     1       2.258  -4.087   3.821  0.00  0.00    -0.010 C 
ATOM     11  C   UNL     1      -0.590  -7.317   1.427  0.00  0.00    +0.249 C 
ATOM     12  O   UNL     1      -0.473  -8.353   2.054  0.00  0.00    -0.270 OA
ATOM     13  H   UNL     1       4.498  -6.026   5.341  0.00  0.00    -0.086 HD
ATOM     14  H   UNL     1       4.721  -4.889   4.172  0.00  0.00    -0.086 HD
ENDROOT
BRANCH  11  15
ATOM     15  C   UNL     1      -1.367  -7.298   0.172  0.00  0.00    +0.073 A 
ATOM     16  C   UNL     1      -0.738  -7.559  -1.048  0.00  0.00    +0.054 A 
ATOM     17  C   UNL     1      -1.472  -7.540  -2.218  0.00  0.00    +0.021 A 
ATOM     18  C   UNL     1      -2.827  -7.262  -2.183  0.00  0.00    +0.003 A 
ATOM     19  C   UNL     1      -3.457  -7.002  -0.980  0.00  0.00    +0.021 A 
ATOM     20  C   UNL     1      -2.737  -7.024   0.199  0.00  0.00    +0.054 A 
ATOM     21 CL   UNL     1      -3.531  -6.704   1.709  0.00  0.00    -0.083 Cl
ATOM     22 CL   UNL     1       0.962  -7.908  -1.094  0.00  0.00    -0.083 Cl
ENDBRANCH  11  15
BRANCH   1  24
ATOM     23  N   UNL     1       2.377  -2.016   1.455  0.00  0.00    -0.312 N 
ATOM     24  C   UNL     1       1.331  -2.806   1.768  0.00  0.00    +0.218 C 
ATOM     25  O   UNL     1       0.344  -2.328   2.287  0.00  0.00    -0.275 OA
ATOM     26  H   UNL     1       3.166  -2.398   1.039  0.00  0.00    +0.149 HD
BRANCH  23  27
ATOM     27  C   UNL     1       2.324  -0.581   1.743  0.00  0.00    +0.148 C 
BRANCH  27  29
ATOM     28  C   UNL     1       3.625   1.552   1.706  0.00  0.00    +0.053 C 
ATOM     29  C   UNL     1       3.629   0.079   1.293  0.00  0.00    +0.187 C 
BRANCH  29  30
ATOM     30  O   UNL     1       3.746  -0.018  -0.128  0.00  0.00    -0.488 OA
BRANCH  30  31
ATOM     31  C   UNL     1       5.001   0.037  -0.648  0.00  0.00    +0.121 A 
ATOM     32  C   UNL     1       5.197  -0.158  -2.008  0.00  0.00    +0.049 A 
ATOM     33  C   UNL     1       6.472  -0.103  -2.537  0.00  0.00    +0.049 A 
ATOM     34  C   UNL     1       7.556   0.148  -1.709  0.00  0.00    +0.120 A 
ATOM     35  C   UNL     1       7.360   0.344  -0.350  0.00  0.00    +0.049 A 
ATOM     36  C   UNL     1       6.085   0.293   0.178  0.00  0.00    +0.049 A 
BRANCH  34  37
ATOM     37  O   UNL     1       8.811   0.202  -2.230  0.00  0.00    -0.495 OA
ATOM     38  C   UNL     1       9.880   0.465  -1.319  0.00  0.00    +0.277 C 
ENDBRANCH  34  37
ENDBRANCH  30  31
ENDBRANCH  29  30
ENDBRANCH  27  29
ENDBRANCH  23  27
ENDBRANCH   1  24
TORSDOF 7
