REMARK  Name = ZINC63437164
REMARK  12 active torsions:
REMARK  status: ('A' for Active; 'I' for Inactive)
REMARK    1  A    between atoms: C_1  and  C_2
REMARK    2  A    between atoms: C_5  and  C_8
REMARK    3  A    between atoms: C_8  and  C_10
REMARK    4  A    between atoms: C_8  and  N_22
REMARK    5  A    between atoms: N_12  and  C_13
REMARK    6  A    between atoms: C_16  and  C_19
REMARK    7  A    between atoms: C_19  and  C_20
REMARK    8  A    between atoms: C_19  and  C_21
REMARK    9  A    between atoms: N_22  and  C_23
REMARK   10  A    between atoms: C_23  and  C_24
REMARK   11  A    between atoms: C_29  and  C_31
REMARK   12  A    between atoms: C_31  and  C_32
REMARK                            x       y       z     vdW  Elec       q    Type
REMARK                         _______ _______ _______ _____ _____    ______ ____
ROOT
ATOM      1  C   UNL     1      -0.060  -3.773   0.215  0.00  0.00    +0.193 C 
ENDROOT
BRANCH   1   6
ATOM      2  C   UNL     1      -2.649   0.482  -2.715  0.00  0.00    +0.044 C 
ATOM      3  C   UNL     1      -1.973  -0.627  -1.951  0.00  0.00    -0.050 A 
ATOM      4  C   UNL     1      -1.450  -1.714  -2.627  0.00  0.00    +0.004 A 
ATOM      5  C   UNL     1      -0.831  -2.731  -1.926  0.00  0.00    +0.006 A 
ATOM      6  C   UNL     1      -0.734  -2.663  -0.549  0.00  0.00    -0.018 A 
ATOM      7  C   UNL     1      -1.256  -1.576   0.127  0.00  0.00    +0.006 A 
ATOM      8  C   UNL     1      -1.872  -0.556  -0.574  0.00  0.00    +0.004 A 
ENDBRANCH   1   6
BRANCH   1   9
ATOM      9  C   UNL     1       1.400  -3.444   0.396  0.00  0.00    +0.242 C 
ATOM     10  O   UNL     1       2.045  -4.000   1.260  0.00  0.00    -0.273 OA
ATOM     11  N   UNL     1       1.989  -2.531  -0.402  0.00  0.00    -0.284 N 
ATOM     12  H   UNL     1       1.492  -2.136  -1.135  0.00  0.00    +0.155 HD
BRANCH  11  13
ATOM     13  C   UNL     1       3.316  -2.153  -0.171  0.00  0.00    +0.033 A 
ATOM     14  C   UNL     1       3.712  -0.838  -0.382  0.00  0.00    +0.023 A 
ATOM     15  C   UNL     1       5.023  -0.468  -0.154  0.00  0.00    +0.006 A 
ATOM     16  C   UNL     1       5.941  -1.405   0.285  0.00  0.00    -0.045 A 
ATOM     17  C   UNL     1       5.550  -2.714   0.496  0.00  0.00    +0.006 A 
ATOM     18  C   UNL     1       4.239  -3.090   0.275  0.00  0.00    +0.023 A 
BRANCH  16  19
ATOM     19  C   UNL     1       7.370  -0.998   0.533  0.00  0.00    +0.013 C 
ATOM     20  C   UNL     1       7.728  -1.260   1.997  0.00  0.00    +0.012 C 
ATOM     21  C   UNL     1       8.297  -1.812  -0.372  0.00  0.00    +0.012 C 
ENDBRANCH  16  19
ENDBRANCH  11  13
ENDBRANCH   1   9
BRANCH   1  22
ATOM     22  N   UNL     1      -0.694  -3.918   1.528  0.00  0.00    -0.278 N 
ATOM     23  C   UNL     1      -2.012  -4.187   1.613  0.00  0.00    +0.221 C 
ATOM     24  O   UNL     1      -2.672  -4.309   0.603  0.00  0.00    -0.275 OA
BRANCH  22  25
ATOM     25  C   UNL     1       0.104  -3.770   2.747  0.00  0.00    +0.183 C 
BRANCH  25  26
ATOM     26  C   UNL     1       0.465  -2.320   2.939  0.00  0.00    +0.122 A 
ATOM     27  C   UNL     1      -0.210  -1.434   3.693  0.00  0.00    +0.046 A 
ATOM     28  C   UNL     1       0.473  -0.201   3.588  0.00  0.00    +0.041 A 
ATOM     29  C   UNL     1       1.525  -0.407   2.775  0.00  0.00    +0.195 A 
ATOM     30  O   UNL     1       1.518  -1.693   2.390  0.00  0.00    -0.466 OA
ENDBRANCH  25  26
ENDBRANCH  22  25
BRANCH  23  31
ATOM     31  C   UNL     1      -2.664  -4.336   2.963  0.00  0.00    +0.129 C 
BRANCH  31  32
ATOM     32  C   UNL     1      -4.131  -4.633   2.782  0.00  0.00    -0.033 C 
ATOM     33  C   UNL     1      -4.719  -5.851   2.771  0.00  0.00    -0.001 A 
ATOM     34  C   UNL     1      -4.190  -7.212   2.917  0.00  0.00    +0.010 A 
ATOM     35  C   UNL     1      -5.045  -8.258   2.859  0.00  0.00    +0.001 A 
ATOM     36  C   UNL     1      -6.421  -8.075   2.664  0.00  0.00    +0.002 A 
ATOM     37  C   UNL     1      -6.982  -6.855   2.522  0.00  0.00    +0.026 A 
ATOM     38  C   UNL     1      -6.176  -5.684   2.566  0.00  0.00    +0.043 A 
ATOM     39  N   UNL     1      -6.476  -4.413   2.455  0.00  0.00    -0.380 N 
ATOM     40  C   UNL     1      -5.244  -3.628   2.583  0.00  0.00    +0.145 C 
ATOM     41  H   UNL     1      -7.366  -4.052   2.316  0.00  0.00    +0.160 HD
ENDBRANCH  31  32
ENDBRANCH  23  31
ENDBRANCH   1  22
TORSDOF 9
