REMARK  Name = ZINC36597718
REMARK  12 active torsions:
REMARK  status: ('A' for Active; 'I' for Inactive)
REMARK    1  A    between atoms: C_1  and  C_2
REMARK    2  A    between atoms: C_5  and  C_7
REMARK    3  A    between atoms: C_7  and  N_8
REMARK    4  A    between atoms: N_8  and  C_9
REMARK    5  A    between atoms: C_9  and  C_11
REMARK    6  A    between atoms: C_9  and  C_20
REMARK    7  A    between atoms: C_11  and  C_13
REMARK    8  A    between atoms: C_11  and  C_14
REMARK    9  A    between atoms: N_22  and  C_23
REMARK   10  A    between atoms: C_29  and  C_31
REMARK   11  A    between atoms: C_35  and  O_38
REMARK   12  A    between atoms: C_36  and  O_37
REMARK                            x       y       z     vdW  Elec       q    Type
REMARK                         _______ _______ _______ _____ _____    ______ ____
ROOT
ATOM      1  N   UNL     1       1.790  -4.321  -2.259  0.00  0.00    -0.278 N 
ATOM      2  C   UNL     1       2.406  -5.472  -1.924  0.00  0.00    +0.251 C 
ATOM      3  O   UNL     1       3.408  -5.821  -2.517  0.00  0.00    -0.270 OA
ENDROOT
BRANCH   2   4
ATOM      4  C   UNL     1       1.863  -6.309  -0.837  0.00  0.00    +0.082 A 
ATOM      5  C   UNL     1       1.477  -5.725   0.374  0.00  0.00    +0.017 A 
ATOM      6  C   UNL     1       0.971  -6.510   1.386  0.00  0.00    +0.005 A 
ATOM      7  C   UNL     1       0.841  -7.878   1.213  0.00  0.00    +0.049 A 
ATOM      8  C   UNL     1       1.220  -8.471   0.021  0.00  0.00    +0.159 A 
ATOM      9  C   UNL     1       1.727  -7.691  -1.014  0.00  0.00    +0.171 A 
BRANCH   9  10
ATOM     10  O   UNL     1       2.094  -8.268  -2.187  0.00  0.00    -0.503 OA
ATOM     11  H   UNL     1       3.017  -8.555  -2.212  0.00  0.00    +0.292 HD
ENDBRANCH   9  10
BRANCH   8  12
ATOM     12  O   UNL     1       1.090  -9.815  -0.142  0.00  0.00    -0.503 OA
ATOM     13  H   UNL     1       0.236 -10.087  -0.506  0.00  0.00    +0.292 HD
ENDBRANCH   8  12
ENDBRANCH   2   4
BRANCH   1  14
ATOM     14  C   UNL     1       0.488  -3.989  -1.675  0.00  0.00    +0.183 C 
BRANCH  14  19
ATOM     15  C   UNL     1       1.915  -0.767   1.934  0.00  0.00    +0.086 C 
ATOM     16  C   UNL     1       1.232  -1.330   0.714  0.00  0.00    +0.102 A 
ATOM     17  C   UNL     1       0.384  -0.663  -0.090  0.00  0.00    +0.045 A 
ATOM     18  C   UNL     1      -0.015  -1.567  -1.102  0.00  0.00    +0.046 A 
ATOM     19  C   UNL     1       0.612  -2.731  -0.855  0.00  0.00    +0.122 A 
ATOM     20  O   UNL     1       1.370  -2.580   0.243  0.00  0.00    -0.463 OA
ENDBRANCH  14  19
ENDBRANCH   1  14
BRANCH   1  21
ATOM     21  C   UNL     1       2.422  -3.402  -3.208  0.00  0.00    +0.170 C 
BRANCH  21  22
ATOM     22  C   UNL     1       3.586  -2.714  -2.543  0.00  0.00    +0.234 C 
ATOM     23  O   UNL     1       3.783  -2.868  -1.356  0.00  0.00    -0.274 OA
ATOM     24  N   UNL     1       4.409  -1.929  -3.266  0.00  0.00    -0.311 N 
ATOM     25  H   UNL     1       4.169  -1.680  -4.172  0.00  0.00    +0.149 HD
BRANCH  24  26
ATOM     26  C   UNL     1       5.667  -1.453  -2.684  0.00  0.00    +0.073 C 
ATOM     27  C   UNL     1       5.404  -0.182  -1.875  0.00  0.00    +0.022 C 
ATOM     28  C   UNL     1       6.718   0.316  -1.267  0.00  0.00    +0.002 C 
ATOM     29  C   UNL     1       7.715   0.620  -2.387  0.00  0.00    +0.000 C 
ATOM     30  C   UNL     1       7.977  -0.652  -3.196  0.00  0.00    +0.002 C 
ATOM     31  C   UNL     1       6.664  -1.149  -3.804  0.00  0.00    +0.022 C 
ENDBRANCH  24  26
ENDBRANCH  21  22
BRANCH  21  32
ATOM     32  C   UNL     1       1.402  -2.354  -3.661  0.00  0.00    +0.045 C 
ATOM     33  C   UNL     1       2.110  -1.277  -4.485  0.00  0.00    +0.015 C 
BRANCH  32  34
ATOM     34  C   UNL     1       0.343  -3.016  -4.503  0.00  0.00    -0.042 A 
ATOM     35  C   UNL     1       0.706  -3.785  -5.593  0.00  0.00    +0.004 A 
ATOM     36  C   UNL     1      -0.266  -4.392  -6.366  0.00  0.00    +0.000 A 
ATOM     37  C   UNL     1      -1.602  -4.231  -6.048  0.00  0.00    +0.000 A 
ATOM     38  C   UNL     1      -1.965  -3.463  -4.958  0.00  0.00    +0.000 A 
ATOM     39  C   UNL     1      -0.993  -2.859  -4.183  0.00  0.00    +0.004 A 
ENDBRANCH  32  34
ENDBRANCH  21  32
ENDBRANCH   1  21
TORSDOF 10
