REMARK  Name = ZINC03292624
REMARK  10 active torsions:
REMARK  status: ('A' for Active; 'I' for Inactive)
REMARK    1  A    between atoms: C_1  and  C_2
REMARK    2  A    between atoms: C_5  and  C_8
REMARK    3  A    between atoms: C_11  and  S_14
REMARK    4  A    between atoms: N_12  and  N_13
REMARK    5  A    between atoms: S_14  and  C_15
REMARK    6  A    between atoms: C_15  and  C_16
REMARK    7  A    between atoms: N_18  and  C_19
REMARK    8  A    between atoms: C_19  and  C_20
REMARK    9  A    between atoms: C_19  and  C_21
REMARK   10  A    between atoms: C_19  and  C_22
REMARK                            x       y       z     vdW  Elec       q    Type
REMARK                         _______ _______ _______ _____ _____    ______ ____
ROOT
ATOM      1  C   UNL     1      -3.569  -1.401   0.230  0.00  0.00    +0.182 A 
ATOM      2  N   UNL     1      -3.883  -0.133   0.102  0.00  0.00    -0.127 NA
ATOM      3  N   UNL     1      -2.824   0.561  -0.115  0.00  0.00    -0.121 NA
ATOM      4  C   UNL     1      -1.769  -0.222  -0.149  0.00  0.00    +0.209 A 
ATOM      5  N   UNL     1      -2.205  -1.497   0.072  0.00  0.00    -0.224 N 
ENDROOT
BRANCH   1  10
ATOM      6  C   UNL     1      -7.208  -5.740   1.252  0.00  0.00    +0.044 C 
ATOM      7  C   UNL     1      -6.255  -4.604   0.985  0.00  0.00    -0.050 A 
ATOM      8  C   UNL     1      -4.899  -4.778   1.197  0.00  0.00    +0.004 A 
ATOM      9  C   UNL     1      -4.021  -3.742   0.954  0.00  0.00    +0.012 A 
ATOM     10  C   UNL     1      -4.504  -2.516   0.492  0.00  0.00    +0.021 A 
ATOM     11  C   UNL     1      -5.874  -2.346   0.286  0.00  0.00    +0.012 A 
ATOM     12  C   UNL     1      -6.740  -3.392   0.528  0.00  0.00    +0.004 A 
ENDBRANCH   1  10
BRANCH   5  13
ATOM     13  N   UNL     1      -1.446  -2.631   0.127  0.00  0.00    -0.295 N 
ATOM     14  H   UNL     1      -1.207  -2.861   1.080  0.00  0.00    +0.163 HD
ATOM     15  H   UNL     1      -1.916  -3.403  -0.324  0.00  0.00    +0.163 HD
ENDBRANCH   5  13
BRANCH   4  16
ATOM     16  S   UNL     1      -0.102   0.280  -0.421  0.00  0.00    -0.075 S 
BRANCH  16  17
ATOM     17  C   UNL     1      -0.341   2.062  -0.626  0.00  0.00    +0.173 C 
BRANCH  17  18
ATOM     18  C   UNL     1       0.991   2.721  -0.877  0.00  0.00    +0.224 C 
ATOM     19  O   UNL     1       2.002   2.052  -0.915  0.00  0.00    -0.275 OA
ATOM     20  N   UNL     1       1.059   4.055  -1.061  0.00  0.00    -0.310 N 
ATOM     21  H   UNL     1       0.251   4.590  -1.031  0.00  0.00    +0.149 HD
BRANCH  20  22
ATOM     22  C   UNL     1       2.354   4.696  -1.305  0.00  0.00    +0.026 C 
ATOM     23  C   UNL     1       2.978   4.115  -2.576  0.00  0.00    +0.031 C 
ATOM     24  C   UNL     1       2.153   6.202  -1.478  0.00  0.00    +0.031 C 
ATOM     25  C   UNL     1       3.283   4.438  -0.117  0.00  0.00    +0.031 C 
ENDBRANCH  20  22
ENDBRANCH  17  18
ENDBRANCH  16  17
ENDBRANCH   4  16
TORSDOF 6
