REMARK  Name = ZINC48892344
REMARK  7 active torsions:
REMARK  status: ('A' for Active; 'I' for Inactive)
REMARK    1  A    between atoms: C_1  and  N_2
REMARK    2  A    between atoms: N_2  and  C_3
REMARK    3  A    between atoms: N_2  and  C_11
REMARK    4  A    between atoms: C_3  and  C_4
REMARK    5  A    between atoms: C_11  and  C_13
REMARK    6  A    between atoms: C_11  and  C_15
REMARK    7  A    between atoms: C_13  and  N_14
REMARK                            x       y       z     vdW  Elec       q    Type
REMARK                         _______ _______ _______ _____ _____    ______ ____
ROOT
ATOM      1  C   UNL     1       0.532  -0.641  -1.222  0.00  0.00    +0.075 C 
ENDROOT
BRANCH   1   2
ATOM      2  C   UNL     1       0.075  -0.014  -2.514  0.00  0.00    +0.038 A 
ATOM      3  C   UNL     1      -1.267   0.260  -2.714  0.00  0.00    +0.131 A 
ATOM      4  C   UNL     1      -1.685   0.836  -3.902  0.00  0.00    +0.039 A 
ATOM      5  C   UNL     1      -0.763   1.137  -4.887  0.00  0.00    +0.006 A 
ATOM      6  C   UNL     1       0.577   0.864  -4.688  0.00  0.00    +0.039 A 
ATOM      7  C   UNL     1       0.998   0.293  -3.499  0.00  0.00    +0.131 A 
ATOM      8  F   UNL     1       2.309   0.031  -3.302  0.00  0.00    -0.205 F 
ATOM      9  F   UNL     1      -2.168  -0.035  -1.752  0.00  0.00    -0.205 F 
ENDBRANCH   1   2
BRANCH   1  11
ATOM     10  C   UNL     1       0.095   1.482  -0.141  0.00  0.00    +0.105 C 
ATOM     11  N   UNL     1      -0.126   0.030  -0.092  0.00  0.00    -0.296 NA
BRANCH  11  12
ATOM     12  C   UNL     1       0.328  -0.528   1.188  0.00  0.00    +0.121 C 
BRANCH  12  13
ATOM     13  C   UNL     1      -0.552  -0.016   2.299  0.00  0.00    -0.019 A 
ATOM     14  C   UNL     1      -0.126   1.035   3.090  0.00  0.00    +0.006 A 
ATOM     15  C   UNL     1      -0.933   1.506   4.108  0.00  0.00    +0.000 A 
ATOM     16  C   UNL     1      -2.167   0.925   4.338  0.00  0.00    +0.001 A 
ATOM     17  C   UNL     1      -2.594  -0.125   3.548  0.00  0.00    +0.015 A 
ATOM     18  C   UNL     1      -1.789  -0.593   2.525  0.00  0.00    +0.022 A 
ATOM     19 BR   UNL     1      -2.375  -2.026   1.440  0.00  0.00    -0.050 Br
ENDBRANCH  12  13
ENDBRANCH  11  12
ENDBRANCH   1  11
BRANCH   1  20
ATOM     20  C   UNL     1       0.164  -2.126  -1.217  0.00  0.00    -0.062 C 
BRANCH  20  21
ATOM     21  N   UNL     1       0.882  -2.812  -2.300  0.00  0.00    +0.379 N 
ATOM     22  H   UNL     1       1.872  -2.639  -2.209  0.00  0.00    -0.090 HD
ATOM     23  H   UNL     1       0.707  -3.804  -2.244  0.00  0.00    -0.090 HD
ATOM     24  H   UNL     1       0.560  -2.463  -3.190  0.00  0.00    -0.090 HD
ENDBRANCH  20  21
ENDBRANCH   1  20
TORSDOF 6
