REMARK  Name = ZINC39675876
REMARK  10 active torsions:
REMARK  status: ('A' for Active; 'I' for Inactive)
REMARK    1  A    between atoms: C_1  and  C_2
REMARK    2  A    between atoms: C_5  and  C_9
REMARK    3  A    between atoms: C_6  and  C_8
REMARK    4  A    between atoms: C_13  and  C_22
REMARK    5  A    between atoms: N_24  and  C_25
REMARK    6  A    between atoms: C_25  and  C_26
REMARK    7  A    between atoms: C_26  and  C_28
REMARK    8  A    between atoms: C_26  and  N_34
REMARK    9  A    between atoms: N_34  and  C_35
REMARK   10  A    between atoms: N_34  and  C_36
REMARK                            x       y       z     vdW  Elec       q    Type
REMARK                         _______ _______ _______ _____ _____    ______ ____
ROOT
ATOM      1  C   UNL     1       0.274  -4.830   0.086  0.00  0.00    +0.247 C 
ATOM      2  O   UNL     1       0.334  -5.537   1.074  0.00  0.00    -0.270 OA
ATOM      3  N   UNL     1       0.143  -5.386  -1.134  0.00  0.00    -0.296 N 
ATOM      4  C   UNL     1       0.165  -4.705  -2.450  0.00  0.00    +0.121 C 
ATOM      5  C   UNL     1       0.955  -5.662  -3.372  0.00  0.00    +0.100 C 
ATOM      6  C   UNL     1       0.805  -7.047  -2.720  0.00  0.00    -0.004 C 
ATOM      7  C   UNL     1      -0.048  -6.819  -1.464  0.00  0.00    +0.115 C 
ATOM      8  C   UNL     1       2.173  -7.597  -2.328  0.00  0.00    -0.010 C 
ATOM      9  C   UNL     1       2.004  -8.999  -1.735  0.00  0.00    -0.082 C 
ATOM     10  N   UNL     1       1.365  -9.877  -2.723  0.00  0.00    +0.379 N 
ATOM     11  C   UNL     1       0.013  -9.391  -3.025  0.00  0.00    -0.082 C 
ATOM     12  C   UNL     1       0.099  -8.006  -3.673  0.00  0.00    -0.010 C 
ATOM     13  H   UNL     1       1.915  -9.884  -3.569  0.00  0.00    -0.086 HD
ATOM     14  H   UNL     1       1.310 -10.813  -2.353  0.00  0.00    -0.086 HD
ENDROOT
BRANCH   1  19
ATOM     15  C   UNL     1       0.547   0.893   0.624  0.00  0.00    +0.044 C 
ATOM     16  C   UNL     1       0.475  -0.606   0.483  0.00  0.00    -0.050 A 
ATOM     17  C   UNL     1       1.318  -1.255  -0.401  0.00  0.00    +0.004 A 
ATOM     18  C   UNL     1       1.258  -2.627  -0.535  0.00  0.00    +0.013 A 
ATOM     19  C   UNL     1       0.344  -3.360   0.225  0.00  0.00    +0.040 A 
ATOM     20  C   UNL     1      -0.503  -2.698   1.115  0.00  0.00    -0.038 A 
ATOM     21  C   UNL     1      -0.429  -1.326   1.242  0.00  0.00    +0.007 A 
ATOM     22  C   UNL     1      -1.493  -3.481   1.939  0.00  0.00    +0.044 C 
ENDBRANCH   1  19
BRANCH   5  23
ATOM     23  C   UNL     1       0.361  -5.665  -4.757  0.00  0.00    +0.218 C 
ATOM     24  O   UNL     1      -0.834  -5.517  -4.905  0.00  0.00    -0.275 OA
ATOM     25  N   UNL     1       1.158  -5.831  -5.831  0.00  0.00    -0.316 N 
ATOM     26  H   UNL     1       2.114  -5.949  -5.712  0.00  0.00    +0.149 HD
BRANCH  25  27
ATOM     27  C   UNL     1       0.581  -5.834  -7.178  0.00  0.00    +0.093 C 
BRANCH  27  28
ATOM     28  C   UNL     1       1.674  -6.152  -8.200  0.00  0.00    -0.021 C 
BRANCH  28  29
ATOM     29  C   UNL     1       2.685  -5.035  -8.220  0.00  0.00    -0.059 A 
ATOM     30  C   UNL     1       2.415  -3.871  -8.915  0.00  0.00    +0.002 A 
ATOM     31  C   UNL     1       3.342  -2.846  -8.933  0.00  0.00    +0.000 A 
ATOM     32  C   UNL     1       4.539  -2.984  -8.255  0.00  0.00    +0.000 A 
ATOM     33  C   UNL     1       4.809  -4.148  -7.559  0.00  0.00    +0.000 A 
ATOM     34  C   UNL     1       3.880  -5.171  -7.538  0.00  0.00    +0.002 A 
ENDBRANCH  28  29
BRANCH  28  35
ATOM     35  N   UNL     1       1.072  -6.292  -9.533  0.00  0.00    +0.382 N 
ATOM     36  C   UNL     1       2.112  -6.659 -10.504  0.00  0.00    -0.096 C 
ATOM     37  C   UNL     1       0.043  -7.339  -9.498  0.00  0.00    -0.096 C 
ATOM     38  H   UNL     1       0.652  -5.416  -9.805  0.00  0.00    -0.082 HD
ENDBRANCH  28  35
ENDBRANCH  27  28
ENDBRANCH  25  27
ENDBRANCH   5  23
TORSDOF 6
