REMARK  Name = ZINC38685035
REMARK  12 active torsions:
REMARK  status: ('A' for Active; 'I' for Inactive)
REMARK    1  A    between atoms: C_1  and  C_2
REMARK    2  A    between atoms: C_2  and  C_3
REMARK    3  A    between atoms: C_3  and  C_4
REMARK    4  A    between atoms: C_4  and  O_5
REMARK    5  A    between atoms: O_5  and  C_6
REMARK    6  A    between atoms: C_10  and  C_12
REMARK    7  A    between atoms: C_17  and  O_26
REMARK    8  A    between atoms: C_21  and  N_25
REMARK    9  A    between atoms: C_22  and  C_23
REMARK   10  A    between atoms: O_26  and  C_27
REMARK   11  A    between atoms: C_27  and  C_29
REMARK   12  A    between atoms: C_32  and  C_35
REMARK                            x       y       z     vdW  Elec       q    Type
REMARK                         _______ _______ _______ _____ _____    ______ ____
ROOT
ATOM      1  C   UNL     1       3.000  -6.231  -5.111  0.00  0.00    +0.098 C 
ATOM      2  C   UNL     1       4.165  -7.073  -4.664  0.00  0.00    +0.008 A 
ATOM      3  C   UNL     1       5.359  -6.459  -4.327  0.00  0.00    +0.012 A 
ATOM      4  C   UNL     1       6.438  -7.215  -3.915  0.00  0.00    +0.047 A 
ATOM      5  C   UNL     1       6.328  -8.597  -3.837  0.00  0.00    +0.135 A 
ATOM      6  C   UNL     1       5.135  -9.214  -4.174  0.00  0.00    +0.093 A 
ATOM      7  C   UNL     1       4.050  -8.452  -4.589  0.00  0.00    +0.138 A 
ATOM      8  O   UNL     1       2.889  -9.072  -4.915  0.00  0.00    -0.441 OA
ATOM      9  C   UNL     1       1.977  -8.434  -5.667  0.00  0.00    +0.199 C 
ATOM     10  C   UNL     1       1.976  -7.090  -5.799  0.00  0.00    +0.098 C 
ENDROOT
BRANCH   1  15
ATOM     11  C   UNL     1       1.740  -3.585  -2.725  0.00  0.00    +0.121 A 
ATOM     12  C   UNL     1       1.216  -4.364  -1.703  0.00  0.00    +0.045 A 
ATOM     13  C   UNL     1       1.272  -5.742  -1.788  0.00  0.00    +0.004 A 
ATOM     14  C   UNL     1       1.849  -6.345  -2.891  0.00  0.00    +0.005 A 
ATOM     15  C   UNL     1       2.372  -5.571  -3.911  0.00  0.00    -0.031 A 
ATOM     16  C   UNL     1       2.313  -4.192  -3.833  0.00  0.00    +0.050 A 
BRANCH  11  17
ATOM     17  O   UNL     1       1.686  -2.230  -2.644  0.00  0.00    -0.492 OA
BRANCH  17  18
ATOM     18  C   UNL     1       1.081  -1.674  -1.475  0.00  0.00    +0.229 C 
BRANCH  18  19
ATOM     19  C   UNL     1       1.112  -0.146  -1.562  0.00  0.00    +0.041 C 
BRANCH  19  21
ATOM     20  C   UNL     1       0.495   1.976  -0.397  0.00  0.00    +0.004 C 
ATOM     21  C   UNL     1       0.465   0.449  -0.310  0.00  0.00    -0.000 C 
ENDBRANCH  19  21
ENDBRANCH  18  19
ENDBRANCH  17  18
ENDBRANCH  11  17
ENDBRANCH   1  15
BRANCH   9  22
ATOM     22  N   UNL     1       1.019  -9.169  -6.319  0.00  0.00    -0.328 N 
ATOM     23  H   UNL     1       1.008 -10.136  -6.233  0.00  0.00    +0.145 HD
ATOM     24  H   UNL     1       0.354  -8.723  -6.866  0.00  0.00    +0.145 HD
ENDBRANCH   9  22
BRANCH  10  25
ATOM     25  C   UNL     1       0.976  -6.471  -6.615  0.00  0.00    +0.101 C 
ATOM     26  N   UNL     1       0.182  -5.980  -7.263  0.00  0.00    -0.191 NA
ENDBRANCH  10  25
BRANCH   5  27
ATOM     27  O   UNL     1       7.390  -9.342  -3.432  0.00  0.00    -0.422 OA
BRANCH  27  28
ATOM     28  C   UNL     1       7.771  -9.252  -2.143  0.00  0.00    +0.344 C 
ATOM     29  O   UNL     1       7.109  -8.604  -1.358  0.00  0.00    -0.245 OA
BRANCH  28  30
ATOM     30  C   UNL     1       8.993  -9.943  -1.685  0.00  0.00    +0.059 A 
ATOM     31  C   UNL     1       9.760 -10.684  -2.586  0.00  0.00    +0.015 A 
ATOM     32  C   UNL     1      10.901 -11.326  -2.151  0.00  0.00    +0.004 A 
ATOM     33  C   UNL     1      11.286 -11.236  -0.825  0.00  0.00    -0.050 A 
ATOM     34  C   UNL     1      10.531 -10.503   0.073  0.00  0.00    +0.004 A 
ATOM     35  C   UNL     1       9.391  -9.852  -0.349  0.00  0.00    +0.015 A 
ATOM     36  C   UNL     1      12.534 -11.941  -0.357  0.00  0.00    +0.044 C 
ENDBRANCH  28  30
ENDBRANCH  27  28
ENDBRANCH   5  27
TORSDOF 10
