REMARK  Name = ZINC23967187
REMARK  8 active torsions:
REMARK  status: ('A' for Active; 'I' for Inactive)
REMARK    1  A    between atoms: C_1  and  C_2
REMARK    2  A    between atoms: C_2  and  C_4
REMARK    3  A    between atoms: C_2  and  N_14
REMARK    4  A    between atoms: C_15  and  C_17
REMARK    5  A    between atoms: C_17  and  C_19
REMARK    6  A    between atoms: C_17  and  S_20
REMARK    7  A    between atoms: S_20  and  C_21
REMARK    8  A    between atoms: C_24  and  C_27
REMARK                            x       y       z     vdW  Elec       q    Type
REMARK                         _______ _______ _______ _____ _____    ______ ____
ROOT
ATOM      1  N   UNL     1      -1.913   0.966  -1.601  0.00  0.00    -0.308 N 
ATOM      2  C   UNL     1      -0.836   1.615  -1.115  0.00  0.00    +0.227 C 
ATOM      3  O   UNL     1      -0.405   2.591  -1.691  0.00  0.00    -0.275 OA
ATOM      4  H   UNL     1      -2.304   0.080  -1.078  0.00  0.00    +0.149 HD
ENDROOT
BRANCH   1   6
ATOM      5  C   UNL     1      -3.606   2.501  -2.472  0.00  0.00    +0.033 C 
ATOM      6  C   UNL     1      -2.562   1.439  -2.826  0.00  0.00    +0.101 C 
BRANCH   6   7
ATOM      7  C   UNL     1      -3.237   0.282  -3.516  0.00  0.00    -0.020 A 
ATOM      8  C   UNL     1      -3.664  -0.790  -2.795  0.00  0.00    +0.006 A 
ATOM      9  C   UNL     1      -4.290  -1.869  -3.416  0.00  0.00    +0.001 A 
ATOM     10  C   UNL     1      -4.493  -1.882  -4.762  0.00  0.00    +0.008 A 
ATOM     11  C   UNL     1      -4.065  -0.793  -5.540  0.00  0.00    -0.018 A 
ATOM     12  C   UNL     1      -3.433   0.307  -4.907  0.00  0.00    -0.013 A 
ATOM     13  C   UNL     1      -3.010   1.399  -5.685  0.00  0.00    +0.009 A 
ATOM     14  C   UNL     1      -3.217   1.388  -7.030  0.00  0.00    +0.001 A 
ATOM     15  C   UNL     1      -3.843   0.308  -7.651  0.00  0.00    +0.001 A 
ATOM     16  C   UNL     1      -4.256  -0.771  -6.932  0.00  0.00    +0.008 A 
ENDBRANCH   6   7
ENDBRANCH   1   6
BRANCH   2  17
ATOM     17  C   UNL     1      -0.168   1.128   0.145  0.00  0.00    +0.137 C 
ATOM     18  C   UNL     1      -0.960   1.610   1.362  0.00  0.00    +0.029 C 
BRANCH  17  19
ATOM     19  S   UNL     1       1.518   1.781   0.225  0.00  0.00    -0.074 S 
BRANCH  19  20
ATOM     20  C   UNL     1       2.097   0.957   1.671  0.00  0.00    +0.185 A 
ATOM     21  N   UNL     1       3.340   1.072   2.226  0.00  0.00    -0.201 NA
ATOM     22  H   UNL     1       0.378  -0.237   2.311  0.00  0.00    +0.191 HD
ATOM     23  C   UNL     1       3.331   0.251   3.330  0.00  0.00    +0.182 A 
ATOM     24  N   UNL     1       2.143  -0.305   3.386  0.00  0.00    -0.152 NA
ATOM     25  N   UNL     1       1.414   0.116   2.415  0.00  0.00    -0.253 N 
BRANCH  23  26
ATOM     26  C   UNL     1       4.447   0.036   4.275  0.00  0.00    +0.021 A 
ATOM     27  C   UNL     1       5.666   0.687   4.078  0.00  0.00    +0.013 A 
ATOM     28  C   UNL     1       6.703   0.486   4.965  0.00  0.00    +0.021 A 
ATOM     29  C   UNL     1       6.540  -0.367   6.044  0.00  0.00    +0.041 A 
ATOM     30  C   UNL     1       5.334  -1.019   6.241  0.00  0.00    +0.021 A 
ATOM     31  C   UNL     1       4.289  -0.823   5.364  0.00  0.00    +0.013 A 
ATOM     32 CL   UNL     1       7.851  -0.619   7.153  0.00  0.00    -0.084 Cl
ENDBRANCH  23  26
ENDBRANCH  19  20
ENDBRANCH  17  19
ENDBRANCH   2  17
TORSDOF 6
