REMARK  Name = ZINC39041044
REMARK  6 active torsions:
REMARK  status: ('A' for Active; 'I' for Inactive)
REMARK    1  A    between atoms: C_1  and  C_2
REMARK    2  A    between atoms: C_2  and  C_3
REMARK    3  A    between atoms: C_2  and  C_4
REMARK    4  A    between atoms: C_4  and  C_5
REMARK    5  A    between atoms: C_7  and  C_11
REMARK    6  A    between atoms: C_15  and  C_20
REMARK                            x       y       z     vdW  Elec       q    Type
REMARK                         _______ _______ _______ _____ _____    ______ ____
ROOT
ATOM      1  C   UNL     1      -0.180  -5.030   0.698  0.00  0.00    +0.182 C 
ATOM      2  N   UNL     1      -0.057  -6.327  -0.020  0.00  0.00    -0.265 N 
ATOM      3  N   UNL     1       0.677  -6.282  -1.168  0.00  0.00    -0.220 N 
ATOM      4  C   UNL     1       0.811  -7.042  -2.326  0.00  0.00    +0.183 A 
ATOM      5  N   UNL     1       1.744  -6.489  -3.060  0.00  0.00    -0.127 NA
ATOM      6  N   UNL     1       2.200  -5.439  -2.474  0.00  0.00    -0.120 NA
ATOM      7  C   UNL     1       1.578  -5.263  -1.347  0.00  0.00    +0.211 A 
ATOM      8  S   UNL     1       1.373  -4.235   0.095  0.00  0.00    -0.058 S 
ATOM      9  H   UNL     1       0.280  -7.051   0.597  0.00  0.00    +0.168 HD
ENDROOT
BRANCH   4  10
ATOM     10  C   UNL     1       0.039  -8.256  -2.666  0.00  0.00    +0.035 A 
ATOM     11  C   UNL     1      -0.935  -8.736  -1.789  0.00  0.00    +0.013 A 
ATOM     12  C   UNL     1      -1.652  -9.869  -2.112  0.00  0.00    +0.001 A 
ATOM     13  C   UNL     1      -1.407 -10.531  -3.303  0.00  0.00    +0.001 A 
ATOM     14  C   UNL     1      -0.444 -10.061  -4.177  0.00  0.00    +0.016 A 
ATOM     15  C   UNL     1       0.277  -8.924  -3.869  0.00  0.00    +0.029 A 
ATOM     16 BR   UNL     1       1.588  -8.279  -5.069  0.00  0.00    -0.050 Br
ENDBRANCH   4  10
BRANCH   1  19
ATOM     17  C   UNL     1      -1.416  -2.035  -0.119  0.00  0.00    +0.062 C 
ATOM     18  C   UNL     1      -1.465  -2.886   0.907  0.00  0.00    +0.029 C 
ATOM     19  C   UNL     1      -1.420  -4.254   0.250  0.00  0.00    +0.185 C 
ATOM     20  N   UNL     1      -1.346  -3.930  -1.185  0.00  0.00    -0.177 NA
ATOM     21  N   UNL     1      -1.355  -2.701  -1.293  0.00  0.00    -0.159 NA
BRANCH  17  22
ATOM     22  C   UNL     1      -1.433  -0.534   0.013  0.00  0.00    +0.060 C 
BRANCH  22  24
ATOM     23  C   UNL     1      -0.019   1.526   0.010  0.00  0.00    +0.007 C 
ATOM     24  C   UNL     1       0.002  -0.004   0.002  0.00  0.00    -0.011 C 
ATOM     25  C   UNL     1       0.742  -0.511   1.242  0.00  0.00    +0.007 C 
ENDBRANCH  22  24
ENDBRANCH  17  22
ENDBRANCH   1  19
TORSDOF 4
