REMARK  Name = ZINC23410593
REMARK  8 active torsions:
REMARK  status: ('A' for Active; 'I' for Inactive)
REMARK    1  A    between atoms: C_3  and  O_30
REMARK    2  A    between atoms: C_6  and  C_7
REMARK    3  A    between atoms: N_8  and  N_9
REMARK    4  A    between atoms: C_10  and  C_12
REMARK    5  A    between atoms: C_12  and  N_13
REMARK    6  A    between atoms: N_13  and  C_14
REMARK    7  A    between atoms: N_13  and  S_20
REMARK    8  A    between atoms: S_20  and  C_23
REMARK                            x       y       z     vdW  Elec       q    Type
REMARK                         _______ _______ _______ _____ _____    ______ ____
ROOT
ATOM      1  N   UNL     1      -0.698   1.558   1.213  0.00  0.00    -0.165 NA
ENDROOT
BRANCH   1   2
ATOM      2  C   UNL     1      -0.401   2.888   1.752  0.00  0.00    +0.080 C 
ATOM      3  C   UNL     1      -0.729   3.949   0.700  0.00  0.00    +0.020 C 
ATOM      4  C   UNL     1      -0.418   5.338   1.262  0.00  0.00    +0.002 C 
ATOM      5  C   UNL     1       1.067   5.420   1.625  0.00  0.00    +0.000 C 
ATOM      6  C   UNL     1       1.394   4.359   2.677  0.00  0.00    +0.002 C 
ATOM      7  C   UNL     1       1.083   2.970   2.115  0.00  0.00    +0.020 C 
ENDBRANCH   1   2
BRANCH   1   8
ATOM      8  S   UNL     1      -1.810   0.590   1.967  0.00  0.00    +0.062 S 
ATOM      9  O   UNL     1      -2.673   1.452   2.696  0.00  0.00    -0.153 OA
ATOM     10  O   UNL     1      -2.292  -0.317   0.984  0.00  0.00    -0.153 OA
BRANCH   8  11
ATOM     11  C   UNL     1      -0.939  -0.375   3.157  0.00  0.00    +0.106 A 
ATOM     12  C   UNL     1      -0.419  -1.606   2.803  0.00  0.00    +0.029 A 
ATOM     13  C   UNL     1       0.268  -2.360   3.734  0.00  0.00    +0.017 A 
ATOM     14  C   UNL     1       0.427  -1.888   5.025  0.00  0.00    +0.018 A 
ATOM     15  C   UNL     1      -0.098  -0.659   5.381  0.00  0.00    +0.017 A 
ATOM     16  C   UNL     1      -0.780   0.098   4.447  0.00  0.00    +0.029 A 
ATOM     17 BR   UNL     1       1.362  -2.923   6.302  0.00  0.00    -0.050 Br
ENDBRANCH   8  11
ENDBRANCH   1   8
BRANCH   1  18
ATOM     18  C   UNL     1      -0.013   1.086   0.008  0.00  0.00    +0.207 C 
BRANCH  18  20
ATOM     19  N   UNL     1      -0.288   1.272  -2.443  0.00  0.00    -0.206 N 
ATOM     20  C   UNL     1      -0.742   1.585  -1.213  0.00  0.00    +0.248 C 
ATOM     21  O   UNL     1      -1.736   2.268  -1.088  0.00  0.00    -0.273 OA
ATOM     22  H   UNL     1       0.614   0.653  -2.556  0.00  0.00    +0.177 HD
BRANCH  19  24
ATOM     23  C   UNL     1      -0.530   1.435  -4.763  0.00  0.00    +0.138 C 
ATOM     24  N   UNL     1      -0.966   1.736  -3.578  0.00  0.00    -0.188 NA
BRANCH  23  30
ATOM     25  C   UNL     1      -2.392   2.706  -5.816  0.00  0.00    +0.013 A 
ATOM     26  C   UNL     1      -3.053   3.164  -6.935  0.00  0.00    +0.046 A 
ATOM     27  C   UNL     1      -2.584   2.841  -8.202  0.00  0.00    +0.117 A 
ATOM     28  C   UNL     1      -1.445   2.059  -8.347  0.00  0.00    +0.046 A 
ATOM     29  C   UNL     1      -0.775   1.601  -7.234  0.00  0.00    +0.013 A 
ATOM     30  C   UNL     1      -1.243   1.924  -5.957  0.00  0.00    -0.005 A 
BRANCH  27  31
ATOM     31  O   UNL     1      -3.241   3.291  -9.303  0.00  0.00    -0.507 OA
ATOM     32  H   UNL     1      -2.871   3.035 -10.307  0.00  0.00    +0.292 HD
ENDBRANCH  27  31
ENDBRANCH  23  30
ENDBRANCH  19  24
ENDBRANCH  18  20
ENDBRANCH   1  18
TORSDOF 8
