REMARK  Name = ZINC64093833
REMARK  6 active torsions:
REMARK  status: ('A' for Active; 'I' for Inactive)
REMARK    1  A    between atoms: C_1  and  C_2
REMARK    2  A    between atoms: C_3  and  C_10
REMARK    3  A    between atoms: N_6  and  C_8
REMARK    4  A    between atoms: C_10  and  N_11
REMARK    5  A    between atoms: C_24  and  C_26
REMARK    6  A    between atoms: C_30  and  O_32
REMARK                            x       y       z     vdW  Elec       q    Type
REMARK                         _______ _______ _______ _____ _____    ______ ____
ROOT
ATOM      1  N   UNL     1      -3.049  -0.298  -1.142  0.00  0.00    -0.289 NA
ATOM      2  C   UNL     1      -2.141   0.658  -1.782  0.00  0.00    +0.090 C 
ATOM      3  C   UNL     1      -2.270   0.570  -3.314  0.00  0.00    +0.049 C 
ATOM      4  C   UNL     1      -3.745   0.655  -3.618  0.00  0.00    -0.035 C 
ATOM      5  C   UNL     1      -4.441   1.399  -4.465  0.00  0.00    -0.001 A 
ATOM      6  C   UNL     1      -4.023   2.327  -5.529  0.00  0.00    +0.010 A 
ATOM      7  C   UNL     1      -5.023   2.956  -6.202  0.00  0.00    +0.001 A 
ATOM      8  C   UNL     1      -6.379   2.757  -5.928  0.00  0.00    +0.002 A 
ATOM      9  C   UNL     1      -6.854   1.915  -4.976  0.00  0.00    +0.026 A 
ATOM     10  C   UNL     1      -5.899   1.188  -4.208  0.00  0.00    +0.043 A 
ATOM     11  N   UNL     1      -6.072   0.306  -3.267  0.00  0.00    -0.376 N 
ATOM     12  C   UNL     1      -4.761  -0.202  -2.868  0.00  0.00    +0.128 C 
ATOM     13  C   UNL     1      -4.471   0.000  -1.380  0.00  0.00    +0.114 C 
ATOM     14  H   UNL     1      -6.924   0.033  -2.894  0.00  0.00    +0.160 HD
ENDROOT
BRANCH  13  15
ATOM     15  C   UNL     1      -4.763   1.427  -0.994  0.00  0.00    -0.025 A 
ATOM     16  C   UNL     1      -4.175   2.466  -1.693  0.00  0.00    +0.005 A 
ATOM     17  C   UNL     1      -4.440   3.776  -1.342  0.00  0.00    +0.004 A 
ATOM     18  C   UNL     1      -5.294   4.051  -0.291  0.00  0.00    +0.045 A 
ATOM     19  C   UNL     1      -5.885   3.012   0.412  0.00  0.00    +0.117 A 
ATOM     20  C   UNL     1      -5.621   1.697   0.054  0.00  0.00    +0.050 A 
BRANCH  19  21
ATOM     21  O   UNL     1      -6.724   3.280   1.446  0.00  0.00    -0.507 OA
ATOM     22  H   UNL     1      -7.652   3.369   1.187  0.00  0.00    +0.292 HD
ENDBRANCH  19  21
ENDBRANCH  13  15
BRANCH   1  23
ATOM     23  C   UNL     1      -2.768  -0.409   0.295  0.00  0.00    +0.120 C 
BRANCH  23  26
ATOM     24  C   UNL     1      -0.240   1.258   0.750  0.00  0.00    +0.062 C 
ATOM     25  C   UNL     1      -0.279  -0.247   0.691  0.00  0.00    +0.019 C 
ATOM     26  C   UNL     1      -1.376  -0.951   0.494  0.00  0.00    -0.005 C 
ATOM     27  C   UNL     1      -0.968  -2.409   0.506  0.00  0.00    +0.195 C 
ATOM     28  N   UNL     1       0.490  -2.377   0.736  0.00  0.00    -0.211 NA
ATOM     29  N   UNL     1       0.830  -1.058   0.830  0.00  0.00    -0.281 N 
ATOM     30  C   UNL     1       0.847  -3.106   1.960  0.00  0.00    +0.129 C 
ATOM     31 CL   UNL     1      -1.801  -3.286   1.843  0.00  0.00    -0.098 Cl
ATOM     32  H   UNL     1       1.732  -0.733   0.978  0.00  0.00    +0.166 HD
ENDBRANCH  23  26
ENDBRANCH   1  23
TORSDOF 4
