REMARK  Name = ZINC03550834
REMARK  8 active torsions:
REMARK  status: ('A' for Active; 'I' for Inactive)
REMARK    1  A    between atoms: C_1  and  C_2
REMARK    2  A    between atoms: C_2  and  C_20
REMARK    3  A    between atoms: N_5  and  C_9
REMARK    4  A    between atoms: C_9  and  C_10
REMARK    5  A    between atoms: N_15  and  C_16
REMARK    6  A    between atoms: C_16  and  C_17
REMARK    7  A    between atoms: C_16  and  C_18
REMARK    8  A    between atoms: C_16  and  C_19
REMARK                            x       y       z     vdW  Elec       q    Type
REMARK                         _______ _______ _______ _____ _____    ______ ____
ROOT
ATOM      1  C   UNL     1       8.778   0.310  -2.316  0.00  0.00    +0.047 C 
ATOM      2  C   UNL     1       8.218   0.041  -3.714  0.00  0.00    +0.136 C 
ATOM      3  C   UNL     1       6.815  -0.527  -3.627  0.00  0.00    +0.251 C 
ATOM      4  O   UNL     1       6.477  -1.566  -3.101  0.00  0.00    -0.272 OA
ATOM      5  N   UNL     1       6.022   0.363  -4.255  0.00  0.00    -0.215 N 
ATOM      6  C   UNL     1       6.722   1.401  -4.727  0.00  0.00    +0.310 C 
ATOM      7  O   UNL     1       6.227   2.330  -5.334  0.00  0.00    -0.252 OA
ATOM      8  N   UNL     1       8.035   1.303  -4.451  0.00  0.00    -0.281 N 
ATOM      9  H   UNL     1       8.727   1.938  -4.693  0.00  0.00    +0.152 HD
ENDROOT
BRANCH   2  10
ATOM     10  C   UNL     1       9.122  -0.895  -4.474  0.00  0.00    -0.008 A 
ATOM     11  C   UNL     1       9.687  -0.497  -5.647  0.00  0.00    +0.007 A 
ATOM     12  C   UNL     1      10.526  -1.348  -6.364  0.00  0.00    +0.001 A 
ATOM     13  C   UNL     1      10.805  -2.602  -5.912  0.00  0.00    +0.008 A 
ATOM     14  C   UNL     1      10.240  -3.047  -4.705  0.00  0.00    -0.018 A 
ATOM     15  C   UNL     1       9.391  -2.180  -3.974  0.00  0.00    -0.012 A 
ATOM     16  C   UNL     1       8.821  -2.628  -2.769  0.00  0.00    +0.009 A 
ATOM     17  C   UNL     1       9.100  -3.881  -2.318  0.00  0.00    +0.001 A 
ATOM     18  C   UNL     1       9.939  -4.732  -3.035  0.00  0.00    +0.001 A 
ATOM     19  C   UNL     1      10.504  -4.335  -4.208  0.00  0.00    +0.008 A 
ENDBRANCH   2  10
BRANCH   5  20
ATOM     20  C   UNL     1       4.573   0.210  -4.409  0.00  0.00    +0.214 C 
BRANCH  20  21
ATOM     21  C   UNL     1       3.874   0.844  -3.234  0.00  0.00    +0.238 C 
ATOM     22  O   UNL     1       4.522   1.372  -2.355  0.00  0.00    -0.274 OA
ATOM     23  N   UNL     1       2.529   0.825  -3.160  0.00  0.00    -0.239 N 
ATOM     24  C   UNL     1       1.903   1.392  -2.109  0.00  0.00    +0.306 C 
ATOM     25  O   UNL     1       2.553   1.921  -1.228  0.00  0.00    -0.252 OA
ATOM     26  N   UNL     1       0.557   1.372  -2.035  0.00  0.00    -0.294 N 
ATOM     27  H   UNL     1       2.010   0.403  -3.863  0.00  0.00    +0.159 HD
ATOM     28  H   UNL     1       0.039   0.950  -2.738  0.00  0.00    +0.151 HD
BRANCH  26  29
ATOM     29  C   UNL     1      -0.122   1.989  -0.893  0.00  0.00    +0.028 C 
ATOM     30  C   UNL     1       0.230   3.476  -0.832  0.00  0.00    +0.031 C 
ATOM     31  C   UNL     1       0.329   1.304   0.399  0.00  0.00    +0.031 C 
ATOM     32  C   UNL     1      -1.635   1.829  -1.053  0.00  0.00    +0.031 C 
ENDBRANCH  26  29
ENDBRANCH  20  21
ENDBRANCH   5  20
TORSDOF 4
