REMARK  Name = ZINC09439346
REMARK  11 active torsions:
REMARK  status: ('A' for Active; 'I' for Inactive)
REMARK    1  A    between atoms: C_1  and  C_2
REMARK    2  A    between atoms: C_3  and  C_32
REMARK    3  A    between atoms: C_4  and  C_22
REMARK    4  A    between atoms: C_10  and  C_11
REMARK    5  A    between atoms: C_12  and  C_13
REMARK    6  A    between atoms: C_25  and  O_28
REMARK    7  A    between atoms: O_28  and  C_29
REMARK    8  A    between atoms: C_29  and  C_31
REMARK    9  A    between atoms: C_32  and  O_34
REMARK   10  A    between atoms: O_34  and  C_35
REMARK   11  A    between atoms: C_35  and  C_36
REMARK                            x       y       z     vdW  Elec       q    Type
REMARK                         _______ _______ _______ _____ _____    ______ ____
ROOT
ATOM      1  C   UNL     1      -0.105   4.268   0.247  0.00  0.00    +0.066 C 
ATOM      2  C   UNL     1      -1.356   3.435   0.136  0.00  0.00    +0.053 C 
ATOM      3  C   UNL     1      -1.263   2.115  -0.207  0.00  0.00    +0.085 C 
ATOM      4  C   UNL     1      -2.541   1.316  -0.312  0.00  0.00    +0.162 C 
ATOM      5  N   UNL     1      -3.816   2.031  -0.021  0.00  0.00    -0.275 N 
ATOM      6  C   UNL     1      -5.043   1.496  -0.057  0.00  0.00    +0.268 A 
ATOM      7  O   UNL     1      -5.209   0.324  -0.342  0.00  0.00    -0.266 OA
ATOM      8  C   UNL     1      -6.184   2.366   0.256  0.00  0.00    +0.080 A 
ATOM      9  C   UNL     1      -7.516   2.071   0.288  0.00  0.00    +0.020 C 
ATOM     10  S   UNL     1      -5.356   3.914   0.583  0.00  0.00    -0.046 S 
ATOM     11  C   UNL     1      -3.684   3.360   0.307  0.00  0.00    +0.178 A 
ATOM     12  N   UNL     1      -2.538   3.989   0.373  0.00  0.00    -0.228 NA
ENDROOT
BRANCH   4  13
ATOM     13  C   UNL     1      -2.626   0.759  -1.710  0.00  0.00    -0.020 A 
ATOM     14  C   UNL     1      -3.065   1.561  -2.747  0.00  0.00    +0.009 A 
ATOM     15  C   UNL     1      -3.139   1.054  -4.030  0.00  0.00    +0.047 A 
ATOM     16  C   UNL     1      -2.781  -0.263  -4.275  0.00  0.00    +0.132 A 
ATOM     17  C   UNL     1      -2.346  -1.068  -3.232  0.00  0.00    +0.047 A 
ATOM     18  C   UNL     1      -2.270  -0.555  -1.952  0.00  0.00    +0.009 A 
BRANCH  16  19
ATOM     19  O   UNL     1      -2.857  -0.765  -5.536  0.00  0.00    -0.426 OA
BRANCH  19  20
ATOM     20  C   UNL     1      -3.903  -1.559  -5.814  0.00  0.00    +0.309 C 
ATOM     21  O   UNL     1      -4.676  -1.870  -4.939  0.00  0.00    -0.251 OA
ATOM     22  C   UNL     1      -4.115  -2.063  -7.219  0.00  0.00    +0.136 C 
ENDBRANCH  19  20
ENDBRANCH  16  19
ENDBRANCH   4  13
BRANCH   9  23
ATOM     23  C   UNL     1      -8.451   3.071   0.617  0.00  0.00    +0.002 C 
ATOM     24  C   UNL     1      -9.773   2.779   0.649  0.00  0.00    +0.008 C 
BRANCH  24  25
ATOM     25  C   UNL     1     -10.749   3.823   0.993  0.00  0.00    -0.025 A 
ATOM     26  C   UNL     1     -10.316   5.120   1.294  0.00  0.00    +0.008 A 
ATOM     27  C   UNL     1     -11.238   6.095   1.609  0.00  0.00    +0.001 A 
ATOM     28  C   UNL     1     -12.588   5.791   1.641  0.00  0.00    +0.000 A 
ATOM     29  C   UNL     1     -13.025   4.510   1.351  0.00  0.00    +0.001 A 
ATOM     30  C   UNL     1     -12.116   3.525   1.027  0.00  0.00    +0.008 A 
ENDBRANCH  24  25
ENDBRANCH   9  23
BRANCH   3  31
ATOM     31  C   UNL     1      -0.016   1.520  -0.460  0.00  0.00    +0.340 C 
ATOM     32  O   UNL     1       0.989   2.208  -0.504  0.00  0.00    -0.245 OA
BRANCH  31  33
ATOM     33  O   UNL     1       0.068   0.187  -0.659  0.00  0.00    -0.457 OA
BRANCH  33  34
ATOM     34  C   UNL     1       1.367  -0.350  -0.917  0.00  0.00    +0.259 C 
BRANCH  34  35
ATOM     35  C   UNL     1       1.265  -1.840  -1.113  0.00  0.00    +0.006 C 
ATOM     36  C   UNL     1       1.903  -2.417  -2.101  0.00  0.00    +0.007 C 
ENDBRANCH  34  35
ENDBRANCH  33  34
ENDBRANCH  31  33
ENDBRANCH   3  31
TORSDOF 9
