REMARK  Name = ZINC04571580
REMARK  8 active torsions:
REMARK  status: ('A' for Active; 'I' for Inactive)
REMARK    1  A    between atoms: C_1  and  C_2
REMARK    2  A    between atoms: C_2  and  O_3
REMARK    3  A    between atoms: O_3  and  C_4
REMARK    4  A    between atoms: C_7  and  C_12
REMARK    5  A    between atoms: C_9  and  O_10
REMARK    6  A    between atoms: O_10  and  C_11
REMARK    7  A    between atoms: C_21  and  C_25
REMARK    8  A    between atoms: C_26  and  O_28
REMARK                            x       y       z     vdW  Elec       q    Type
REMARK                         _______ _______ _______ _____ _____    ______ ____
ROOT
ATOM      1  C   UNL     1       1.107  -6.044  -1.844  0.00  0.00    +0.224 C 
ATOM      2  N   UNL     1      -0.040  -6.697  -1.186  0.00  0.00    -0.313 N 
ATOM      3  C   UNL     1      -1.204  -6.765  -1.917  0.00  0.00    +0.080 A 
ATOM      4  C   UNL     1      -1.202  -6.734  -3.316  0.00  0.00    +0.068 A 
ATOM      5  C   UNL     1      -2.507  -6.802  -3.948  0.00  0.00    -0.023 A 
ATOM      6  C   UNL     1      -3.545  -6.893  -3.085  0.00  0.00    -0.004 A 
ATOM      7  S   UNL     1      -2.799  -6.888  -1.478  0.00  0.00    -0.078 S 
ATOM      8  C   UNL     1      -4.999  -6.977  -3.431  0.00  0.00    +0.046 C 
ATOM      9  C   UNL     1      -5.170  -6.570  -4.902  0.00  0.00    -0.009 C 
ATOM     10  C   UNL     1      -4.136  -7.319  -5.747  0.00  0.00    +0.008 C 
ATOM     11  C   UNL     1      -2.735  -6.778  -5.453  0.00  0.00    +0.037 C 
ATOM     12  C   UNL     1      -6.580  -6.933  -5.373  0.00  0.00    +0.008 C 
ATOM     13  C   UNL     1       0.115  -6.645  -3.998  0.00  0.00    +0.220 C 
ATOM     14  N   UNL     1       1.155  -6.352  -3.267  0.00  0.00    -0.223 NA
ATOM     15  H   UNL     1       0.023  -7.059  -0.288  0.00  0.00    +0.149 HD
ENDROOT
BRANCH   1  19
ATOM     16  C   UNL     1       0.777  -1.811  -1.336  0.00  0.00    +0.162 A 
ATOM     17  C   UNL     1       0.243  -2.669  -0.388  0.00  0.00    +0.050 A 
ATOM     18  C   UNL     1       0.352  -4.037  -0.555  0.00  0.00    +0.011 A 
ATOM     19  C   UNL     1       0.992  -4.552  -1.667  0.00  0.00    -0.002 A 
ATOM     20  C   UNL     1       1.526  -3.702  -2.616  0.00  0.00    +0.056 A 
ATOM     21  C   UNL     1       1.416  -2.330  -2.458  0.00  0.00    +0.162 A 
BRANCH  21  22
ATOM     22  O   UNL     1       1.936  -1.492  -3.394  0.00  0.00    -0.491 OA
ATOM     23  C   UNL     1       2.578  -2.095  -4.520  0.00  0.00    +0.277 C 
ENDBRANCH  21  22
BRANCH  16  24
ATOM     24  O   UNL     1       0.671  -0.465  -1.174  0.00  0.00    -0.489 OA
BRANCH  24  26
ATOM     25  C   UNL     1      -0.019   1.526   0.010  0.00  0.00    +0.048 C 
ATOM     26  C   UNL     1       0.002  -0.004   0.002  0.00  0.00    +0.226 C 
ENDBRANCH  24  26
ENDBRANCH  16  24
ENDBRANCH   1  19
BRANCH  13  27
ATOM     27  O   UNL     1       0.231  -6.860  -5.329  0.00  0.00    -0.492 OA
ATOM     28  H   UNL     1       1.134  -6.776  -5.663  0.00  0.00    +0.294 HD
ENDBRANCH  13  27
TORSDOF 5
