REMARK  Name = ZINC09188930
REMARK  12 active torsions:
REMARK  status: ('A' for Active; 'I' for Inactive)
REMARK    1  A    between atoms: C_1  and  C_2
REMARK    2  A    between atoms: C_2  and  C_3
REMARK    3  A    between atoms: C_2  and  C_4
REMARK    4  A    between atoms: C_2  and  C_5
REMARK    5  A    between atoms: C_7  and  C_16
REMARK    6  A    between atoms: C_9  and  C_12
REMARK    7  A    between atoms: C_10  and  O_11
REMARK    8  A    between atoms: C_12  and  C_13
REMARK    9  A    between atoms: C_12  and  C_14
REMARK   10  A    between atoms: C_12  and  C_15
REMARK   11  A    between atoms: C_26  and  C_29
REMARK   12  A    between atoms: C_29  and  C_30
REMARK                            x       y       z     vdW  Elec       q    Type
REMARK                         _______ _______ _______ _____ _____    ______ ____
ROOT
ATOM      1  C   UNL     1      10.036   0.443  -6.502  0.00  0.00    +0.028 C 
ATOM      2  C   UNL     1       9.004   1.284  -6.241  0.00  0.00    +0.079 C 
ATOM      3  C   UNL     1       9.011   2.739  -5.959  0.00  0.00    +0.276 C 
ATOM      4  O   UNL     1      10.047   3.384  -5.931  0.00  0.00    -0.267 OA
ATOM      5  N   UNL     1       7.841   3.296  -5.740  0.00  0.00    -0.154 NA
ATOM      6  C   UNL     1       6.710   2.609  -5.767  0.00  0.00    +0.154 C 
ATOM      7  S   UNL     1       7.250   0.946  -6.134  0.00  0.00    -0.052 S 
ATOM      8  N   UNL     1       5.435   3.062  -5.559  0.00  0.00    -0.311 N 
ATOM      9  C   UNL     1       5.183   4.478  -5.260  0.00  0.00    +0.107 C 
ATOM     10  C   UNL     1       4.362   4.571  -3.970  0.00  0.00    +0.023 C 
ATOM     11  C   UNL     1       3.096   3.724  -4.113  0.00  0.00    -0.004 C 
ATOM     12  C   UNL     1       3.482   2.260  -4.335  0.00  0.00    +0.023 C 
ATOM     13  C   UNL     1       4.292   2.140  -5.630  0.00  0.00    +0.107 C 
ENDROOT
BRANCH   1  16
ATOM     14  C   UNL     1       8.222  -2.622  -7.666  0.00  0.00    +0.000 A 
ATOM     15  C   UNL     1       8.466  -1.329  -7.258  0.00  0.00    +0.015 A 
ATOM     16  C   UNL     1       9.771  -0.933  -6.938  0.00  0.00    -0.023 A 
ATOM     17  C   UNL     1      10.821  -1.854  -7.040  0.00  0.00    +0.015 A 
ATOM     18  C   UNL     1      10.565  -3.145  -7.443  0.00  0.00    +0.000 A 
ATOM     19  C   UNL     1       9.268  -3.532  -7.760  0.00  0.00    +0.124 A 
BRANCH  14  21
ATOM     20  C   UNL     1       5.865  -1.867  -7.826  0.00  0.00    +0.015 C 
ATOM     21  C   UNL     1       6.819  -3.049  -8.012  0.00  0.00    -0.009 C 
ATOM     22  C   UNL     1       6.773  -3.518  -9.467  0.00  0.00    +0.015 C 
ATOM     23  C   UNL     1       6.395  -4.196  -7.092  0.00  0.00    +0.015 C 
ENDBRANCH  14  21
BRANCH  18  24
ATOM     24  C   UNL     1      11.694  -4.138  -7.546  0.00  0.00    -0.009 C 
ATOM     25  C   UNL     1      13.007  -3.462  -7.144  0.00  0.00    +0.015 C 
ATOM     26  C   UNL     1      11.421  -5.319  -6.612  0.00  0.00    +0.015 C 
ATOM     27  C   UNL     1      11.800  -4.641  -8.987  0.00  0.00    +0.015 C 
ENDBRANCH  18  24
BRANCH  19  28
ATOM     28  O   UNL     1       9.023  -4.805  -8.163  0.00  0.00    -0.506 OA
ATOM     29  H   UNL     1       9.085  -4.934  -9.120  0.00  0.00    +0.292 HD
ENDBRANCH  19  28
ENDBRANCH   1  16
BRANCH  11  30
ATOM     30  C   UNL     1       2.257   3.842  -2.839  0.00  0.00    +0.038 C 
BRANCH  30  31
ATOM     31  C   UNL     1       0.954   3.108  -3.026  0.00  0.00    -0.047 A 
ATOM     32  C   UNL     1      -0.147   3.773  -3.533  0.00  0.00    +0.003 A 
ATOM     33  C   UNL     1      -1.342   3.099  -3.706  0.00  0.00    +0.000 A 
ATOM     34  C   UNL     1      -1.437   1.762  -3.368  0.00  0.00    +0.000 A 
ATOM     35  C   UNL     1      -0.337   1.098  -2.859  0.00  0.00    +0.000 A 
ATOM     36  C   UNL     1       0.859   1.771  -2.688  0.00  0.00    +0.003 A 
ENDBRANCH  30  31
ENDBRANCH  11  30
TORSDOF 6
