REMARK  Name = ZINC43264218
REMARK  6 active torsions:
REMARK  status: ('A' for Active; 'I' for Inactive)
REMARK    1  A    between atoms: C_1  and  C_2
REMARK    2  A    between atoms: C_7  and  O_8
REMARK    3  A    between atoms: O_8  and  C_9
REMARK    4  A    between atoms: C_9  and  C_11
REMARK    5  A    between atoms: C_9  and  C_13
REMARK    6  A    between atoms: C_11  and  N_12
REMARK                            x       y       z     vdW  Elec       q    Type
REMARK                         _______ _______ _______ _____ _____    ______ ____
ROOT
ATOM      1  C   UNL     1      -0.064  -0.816   3.572  0.00  0.00    +0.193 C 
ENDROOT
BRANCH   1   2
ATOM      2  C   UNL     1       0.548  -0.055   4.721  0.00  0.00    +0.029 A 
ATOM      3  C   UNL     1       1.331  -0.512   5.727  0.00  0.00    +0.016 A 
ATOM      4  C   UNL     1       1.784   0.378   6.683  0.00  0.00    +0.023 A 
ATOM      5  C   UNL     1       1.429   1.683   6.585  0.00  0.00    +0.055 A 
ATOM      6  S   UNL     1       0.433   1.685   5.103  0.00  0.00    -0.083 S 
ATOM      7 BR   UNL     1       1.880   3.128   7.719  0.00  0.00    -0.043 Br
ENDBRANCH   1   2
BRANCH   1   8
ATOM      8  O   UNL     1       0.025  -0.033   2.381  0.00  0.00    -0.485 OA
BRANCH   8  15
ATOM      9  C   UNL     1       0.031   1.487  -0.001  0.00  0.00    +0.047 C 
ATOM     10  C   UNL     1       0.169  -0.014   0.006  0.00  0.00    -0.007 A 
ATOM     11  C   UNL     1       0.311  -0.700  -1.185  0.00  0.00    +0.027 A 
ATOM     12  C   UNL     1       0.439  -2.078  -1.179  0.00  0.00    +0.041 A 
ATOM     13  C   UNL     1       0.423  -2.771   0.019  0.00  0.00    +0.023 A 
ATOM     14  C   UNL     1       0.281  -2.089   1.211  0.00  0.00    +0.047 A 
ATOM     15  C   UNL     1       0.159  -0.707   1.208  0.00  0.00    +0.124 A 
ATOM     16 CL   UNL     1       0.617  -2.938  -2.676  0.00  0.00    -0.084 Cl
ENDBRANCH   8  15
ENDBRANCH   1   8
BRANCH   1  17
ATOM     17  C   UNL     1      -1.533  -1.110   3.881  0.00  0.00    -0.036 C 
BRANCH  17  18
ATOM     18  N   UNL     1      -2.096  -1.954   2.818  0.00  0.00    +0.381 N 
ATOM     19  H   UNL     1      -2.028  -1.472   1.934  0.00  0.00    -0.090 HD
ATOM     20  H   UNL     1      -1.583  -2.821   2.769  0.00  0.00    -0.090 HD
ATOM     21  H   UNL     1      -3.066  -2.148   3.021  0.00  0.00    -0.090 HD
ENDBRANCH  17  18
ENDBRANCH   1  17
TORSDOF 5
