REMARK  Name = ZINC32540553
REMARK  10 active torsions:
REMARK  status: ('A' for Active; 'I' for Inactive)
REMARK    1  A    between atoms: C_1  and  C_2
REMARK    2  A    between atoms: C_6  and  C_8
REMARK    3  A    between atoms: C_8  and  C_9
REMARK    4  A    between atoms: C_9  and  N_10
REMARK    5  A    between atoms: C_11  and  C_13
REMARK    6  A    between atoms: C_13  and  C_14
REMARK    7  A    between atoms: N_21  and  C_22
REMARK    8  A    between atoms: C_22  and  C_23
REMARK    9  A    between atoms: C_23  and  C_24
REMARK   10  A    between atoms: C_23  and  C_30
REMARK                            x       y       z     vdW  Elec       q    Type
REMARK                         _______ _______ _______ _____ _____    ______ ____
ROOT
ATOM      1  C   UNL     1       3.600  -6.178   3.652  0.00  0.00    +0.152 C 
ATOM      2  C   UNL     1       3.214  -7.544   4.145  0.00  0.00    +0.231 C 
ATOM      3  O   UNL     1       2.331  -8.142   3.567  0.00  0.00    -0.274 OA
ATOM      4  N   UNL     1       3.802  -8.127   5.195  0.00  0.00    -0.313 N 
ATOM      5  C   UNL     1       4.849  -7.478   5.980  0.00  0.00    +0.119 C 
ATOM      6  C   UNL     1       5.453  -6.317   5.189  0.00  0.00    +0.104 C 
ATOM      7  N   UNL     1       4.360  -5.468   4.690  0.00  0.00    -0.289 NA
ATOM      8  H   UNL     1       3.521  -9.021   5.446  0.00  0.00    +0.149 HD
ENDROOT
BRANCH   1   9
ATOM      9  C   UNL     1       2.337  -5.384   3.314  0.00  0.00    +0.124 C 
BRANCH   9  11
ATOM     10  N   UNL     1       0.420  -4.404   4.531  0.00  0.00    -0.315 N 
ATOM     11  C   UNL     1       1.529  -5.168   4.568  0.00  0.00    +0.215 C 
ATOM     12  O   UNL     1       1.876  -5.684   5.609  0.00  0.00    -0.276 OA
ATOM     13  H   UNL     1       0.142  -3.992   3.698  0.00  0.00    +0.149 HD
BRANCH  10  14
ATOM     14  C   UNL     1      -0.366  -4.194   5.750  0.00  0.00    +0.112 C 
BRANCH  14  15
ATOM     15  C   UNL     1      -1.564  -3.295   5.436  0.00  0.00    +0.091 C 
BRANCH  15  21
ATOM     16  C   UNL     1      -4.989  -3.911   9.041  0.00  0.00    +0.065 C 
ATOM     17  C   UNL     1      -3.845  -3.338   8.246  0.00  0.00    +0.030 A 
ATOM     18  C   UNL     1      -3.126  -2.246   8.568  0.00  0.00    +0.104 A 
ATOM     19  N   UNL     1      -2.191  -2.082   7.581  0.00  0.00    -0.350 N 
ATOM     20  H   UNL     1      -1.524  -1.379   7.531  0.00  0.00    +0.166 HD
ATOM     21  C   UNL     1      -2.372  -3.080   6.690  0.00  0.00    +0.086 A 
ATOM     22  N   UNL     1      -3.359  -3.830   7.097  0.00  0.00    -0.347 N 
ATOM     23  H   UNL     1      -3.691  -4.619   6.639  0.00  0.00    +0.167 HD
ENDBRANCH  15  21
ENDBRANCH  14  15
ENDBRANCH  10  14
ENDBRANCH   9  11
ENDBRANCH   1   9
BRANCH   7  24
ATOM     24  C   UNL     1       4.878  -4.191   4.182  0.00  0.00    +0.098 C 
BRANCH  24  25
ATOM     25  C   UNL     1       5.204  -3.269   5.358  0.00  0.00    +0.063 C 
BRANCH  25  26
ATOM     26  C   UNL     1       6.378  -3.825   6.122  0.00  0.00    -0.039 A 
ATOM     27  C   UNL     1       7.579  -4.050   5.475  0.00  0.00    +0.004 A 
ATOM     28  C   UNL     1       8.656  -4.561   6.175  0.00  0.00    +0.000 A 
ATOM     29  C   UNL     1       8.533  -4.846   7.522  0.00  0.00    +0.000 A 
ATOM     30  C   UNL     1       7.332  -4.620   8.169  0.00  0.00    +0.000 A 
ATOM     31  C   UNL     1       6.256  -4.106   7.470  0.00  0.00    +0.004 A 
ENDBRANCH  25  26
BRANCH  25  32
ATOM     32  C   UNL     1       5.547  -1.896   4.841  0.00  0.00    -0.039 A 
ATOM     33  C   UNL     1       6.475  -1.751   3.826  0.00  0.00    +0.004 A 
ATOM     34  C   UNL     1       6.789  -0.492   3.351  0.00  0.00    +0.000 A 
ATOM     35  C   UNL     1       6.176   0.624   3.890  0.00  0.00    +0.000 A 
ATOM     36  C   UNL     1       5.247   0.479   4.904  0.00  0.00    +0.000 A 
ATOM     37  C   UNL     1       4.929  -0.781   5.376  0.00  0.00    +0.004 A 
ENDBRANCH  25  32
ENDBRANCH  24  25
ENDBRANCH   7  24
TORSDOF 9
