REMARK  Name = ZINC40987514
REMARK  8 active torsions:
REMARK  status: ('A' for Active; 'I' for Inactive)
REMARK    1  A    between atoms: C_1  and  C_2
REMARK    2  A    between atoms: C_2  and  O_3
REMARK    3  A    between atoms: O_3  and  C_4
REMARK    4  A    between atoms: C_4  and  C_6
REMARK    5  A    between atoms: C_7  and  C_31
REMARK    6  A    between atoms: C_10  and  N_11
REMARK    7  A    between atoms: C_12  and  C_14
REMARK    8  A    between atoms: N_17  and  C_19
REMARK                            x       y       z     vdW  Elec       q    Type
REMARK                         _______ _______ _______ _____ _____    ______ ____
ROOT
ATOM      1  N   UNL     1      -0.596  -2.458  -3.930  0.00  0.00    -0.274 N 
ATOM      2  C   UNL     1      -1.107  -2.787  -5.133  0.00  0.00    +0.269 C 
ATOM      3  O   UNL     1      -0.381  -3.230  -6.001  0.00  0.00    -0.268 OA
ATOM      4  H   UNL     1      -1.175  -2.104  -3.237  0.00  0.00    +0.156 HD
ENDROOT
BRANCH   2   5
ATOM      5  C   UNL     1      -2.549  -2.607  -5.396  0.00  0.00    +0.151 A 
ATOM      6  C   UNL     1      -3.227  -2.907  -6.590  0.00  0.00    +0.006 A 
ATOM      7  C   UNL     1      -4.525  -2.581  -6.372  0.00  0.00    +0.044 A 
ATOM      8  N   UNL     1      -4.612  -2.114  -5.115  0.00  0.00    -0.263 N 
ATOM      9  N   UNL     1      -3.453  -2.139  -4.553  0.00  0.00    -0.166 NA
ATOM     10  C   UNL     1      -5.615  -2.737  -7.401  0.00  0.00    +0.055 C 
ATOM     11  C   UNL     1      -4.958  -2.905  -8.777  0.00  0.00    +0.006 C 
ATOM     12  C   UNL     1      -3.878  -3.988  -8.704  0.00  0.00    +0.005 C 
ATOM     13  C   UNL     1      -2.693  -3.474  -7.876  0.00  0.00    +0.039 C 
BRANCH   8  14
ATOM     14  C   UNL     1      -5.846  -1.651  -4.475  0.00  0.00    +0.130 C 
ATOM     15  C   UNL     1      -6.121  -2.499  -3.222  0.00  0.00    +0.051 C 
ATOM     16  C   UNL     1      -7.239  -1.798  -2.399  0.00  0.00    +0.168 C 
ATOM     17  S   UNL     1      -6.728  -0.036  -2.566  0.00  0.00    -0.029 S 
ATOM     18  O   UNL     1      -7.874   0.753  -2.854  0.00  0.00    -0.174 OA
ATOM     19  O   UNL     1      -5.898   0.310  -1.466  0.00  0.00    -0.174 OA
ATOM     20  C   UNL     1      -5.692  -0.162  -4.080  0.00  0.00    +0.192 C 
ENDBRANCH   8  14
ENDBRANCH   2   5
BRANCH   1  25
ATOM     21  C   UNL     1       1.448  -2.344  -2.515  0.00  0.00    +0.095 A 
ATOM     22  C   UNL     1       2.874  -2.622  -2.522  0.00  0.00    +0.005 A 
ATOM     23  C   UNL     1       3.364  -3.124  -3.684  0.00  0.00    +0.056 A 
ATOM     24  S   UNL     1       1.927  -3.214  -4.730  0.00  0.00    -0.080 S 
ATOM     25  C   UNL     1       0.756  -2.626  -3.683  0.00  0.00    +0.087 A 
BRANCH  22  26
ATOM     26  C   UNL     1       3.735  -2.373  -1.341  0.00  0.00    -0.017 A 
ATOM     27  C   UNL     1       3.687  -1.143  -0.687  0.00  0.00    +0.008 A 
ATOM     28  C   UNL     1       4.490  -0.917   0.412  0.00  0.00    +0.001 A 
ATOM     29  C   UNL     1       5.342  -1.909   0.865  0.00  0.00    +0.000 A 
ATOM     30  C   UNL     1       5.394  -3.131   0.220  0.00  0.00    +0.001 A 
ATOM     31  C   UNL     1       4.591  -3.370  -0.877  0.00  0.00    +0.008 A 
ENDBRANCH  22  26
BRANCH  21  32
ATOM     32  C   UNL     1       0.776  -1.800  -1.335  0.00  0.00    +0.342 C 
ATOM     33  O   UNL     1       0.312  -2.552  -0.499  0.00  0.00    -0.245 OA
BRANCH  32  34
ATOM     34  O   UNL     1       0.671  -0.465  -1.174  0.00  0.00    -0.461 OA
BRANCH  34  36
ATOM     35  C   UNL     1      -0.019   1.526   0.010  0.00  0.00    +0.048 C 
ATOM     36  C   UNL     1       0.002  -0.004   0.002  0.00  0.00    +0.229 C 
ENDBRANCH  34  36
ENDBRANCH  32  34
ENDBRANCH  21  32
ENDBRANCH   1  25
TORSDOF 7
