REMARK  Name = ZINC39467366
REMARK  2 active torsions:
REMARK  status: ('A' for Active; 'I' for Inactive)
REMARK    1  A    between atoms: C_4  and  P_8
REMARK    2  A    between atoms: C_5  and  O_7
REMARK                            x       y       z     vdW  Elec       q    Type
REMARK                         _______ _______ _______ _____ _____    ______ ____
ROOT
ATOM      1  P   UNL     1       3.989  -0.847  -0.042  0.00  0.00    +0.318 P 
ATOM      2  O   UNL     1       3.873  -2.129   0.688  0.00  0.00    -0.266 OA
ATOM      3  N   UNL     1       5.173   0.090   0.624  0.00  0.00    -0.175 NA
ATOM      4  N   UNL     1       5.715   1.091  -0.157  0.00  0.00    -0.229 NA
ATOM      5  C   UNL     1       6.788   1.724   0.629  0.00  0.00    +0.111 C 
ATOM      6  C   UNL     1       7.423   2.875  -0.138  0.00  0.00    +0.035 C 
ATOM      7  C   UNL     1       6.406   3.947  -0.426  0.00  0.00    -0.005 C 
ATOM      8  C   UNL     1       6.621   4.800  -1.425  0.00  0.00    +0.045 C 
ATOM      9  C   UNL     1       7.855   4.686  -2.224  0.00  0.00    +0.133 C 
ATOM     10  C   UNL     1       8.520   3.532  -2.252  0.00  0.00    +0.016 C 
ATOM     11  C   UNL     1       7.986   2.360  -1.466  0.00  0.00    +0.024 C 
ATOM     12  C   UNL     1       6.853   1.698  -2.251  0.00  0.00    +0.031 C 
ATOM     13  C   UNL     1       6.217   0.569  -1.432  0.00  0.00    +0.100 C 
ATOM     14  C   UNL     1       5.085  -0.022  -2.281  0.00  0.00    +0.189 C 
ATOM     15  O   UNL     1       4.467  -1.112  -1.575  0.00  0.00    -0.311 OA
ATOM     16  F   UNL     1       8.310   5.748  -2.925  0.00  0.00    -0.205 F 
ATOM     17  I   UNL     1       5.216   6.293  -1.860  0.00  0.00    -0.041 I 
ATOM     18  H   UNL     1       5.476  -0.056   1.534  0.00  0.00    +0.151 HD
ENDROOT
BRANCH   1  22
ATOM     19  C   UNL     1      -0.017   1.377   0.010  0.00  0.00    +0.004 A 
ATOM     20  C   UNL     1       1.171   2.086   0.002  0.00  0.00    +0.001 A 
ATOM     21  C   UNL     1       2.379   1.415  -0.013  0.00  0.00    +0.018 A 
ATOM     22  C   UNL     1       2.403   0.033  -0.021  0.00  0.00    +0.094 A 
ATOM     23  C   UNL     1       1.214  -0.680  -0.013  0.00  0.00    +0.131 A 
ATOM     24  C   UNL     1       0.002  -0.004   0.002  0.00  0.00    +0.046 A 
BRANCH  23  25
ATOM     25  O   UNL     1       1.235  -2.039  -0.021  0.00  0.00    -0.506 OA
ATOM     26  H   UNL     1       1.249  -2.437   0.860  0.00  0.00    +0.292 HD
ENDBRANCH  23  25
ENDBRANCH   1  22
TORSDOF 2
