REMARK  Name = ZINC63505956
REMARK  7 active torsions:
REMARK  status: ('A' for Active; 'I' for Inactive)
REMARK    1  A    between atoms: C_7  and  C_10
REMARK    2  A    between atoms: C_10  and  C_11
REMARK    3  A    between atoms: C_11  and  N_12
REMARK    4  A    between atoms: C_13  and  C_15
REMARK    5  A    between atoms: N_18  and  C_21
REMARK    6  A    between atoms: N_30  and  C_31
REMARK    7  A    between atoms: C_31  and  C_32
REMARK                            x       y       z     vdW  Elec       q    Type
REMARK                         _______ _______ _______ _____ _____    ______ ____
ROOT
ATOM      1  C   UNL     1      -1.752  -6.557  -2.622  0.00  0.00    +0.077 C 
ATOM      2  C   UNL     1      -1.137  -7.703  -1.813  0.00  0.00    +0.028 C 
ATOM      3  C   UNL     1      -2.068  -8.916  -1.866  0.00  0.00    +0.088 C 
ATOM      4  N   UNL     1      -2.261  -9.326  -3.263  0.00  0.00    -0.269 NA
ATOM      5  C   UNL     1      -2.894  -8.259  -4.048  0.00  0.00    +0.088 C 
ATOM      6  C   UNL     1      -1.987  -7.027  -4.060  0.00  0.00    +0.028 C 
ENDROOT
BRANCH   4   7
ATOM      7  C   UNL     1      -3.038 -10.571  -3.344  0.00  0.00    +0.236 C 
ATOM      8  N   UNL     1      -4.416 -10.337  -2.895  0.00  0.00    -0.312 N 
ATOM      9  C   UNL     1      -5.261 -10.630  -3.975  0.00  0.00    +0.051 A 
ATOM     10  C   UNL     1      -6.646 -10.574  -4.077  0.00  0.00    +0.025 A 
ATOM     11  C   UNL     1      -7.268 -10.917  -5.262  0.00  0.00    +0.002 A 
ATOM     12  C   UNL     1      -6.516 -11.316  -6.351  0.00  0.00    +0.002 A 
ATOM     13  C   UNL     1      -5.139 -11.374  -6.259  0.00  0.00    +0.025 A 
ATOM     14  C   UNL     1      -4.504 -11.032  -5.071  0.00  0.00    +0.054 A 
ATOM     15  N   UNL     1      -3.140 -11.014  -4.739  0.00  0.00    -0.293 N 
ATOM     16  H   UNL     1      -4.691 -10.037  -2.015  0.00  0.00    +0.149 HD
BRANCH  15  17
ATOM     17  C   UNL     1      -2.026 -11.371  -5.620  0.00  0.00    +0.143 C 
BRANCH  17  18
ATOM     18  C   UNL     1      -1.731 -12.843  -5.487  0.00  0.00    -0.030 A 
ATOM     19  C   UNL     1      -0.826 -13.283  -4.539  0.00  0.00    +0.008 A 
ATOM     20  C   UNL     1      -0.555 -14.632  -4.416  0.00  0.00    +0.038 A 
ATOM     21  C   UNL     1      -1.190 -15.544  -5.242  0.00  0.00    +0.123 A 
ATOM     22  C   UNL     1      -2.096 -15.102  -6.191  0.00  0.00    +0.038 A 
ATOM     23  C   UNL     1      -2.369 -13.752  -6.309  0.00  0.00    +0.008 A 
ATOM     24  F   UNL     1      -0.925 -16.863  -5.122  0.00  0.00    -0.205 F 
ENDBRANCH  17  18
ENDBRANCH  15  17
ENDBRANCH   4   7
BRANCH   1  26
ATOM     25  N   UNL     1      -0.458  -4.798  -1.460  0.00  0.00    -0.315 N 
ATOM     26  C   UNL     1      -0.811  -5.380  -2.623  0.00  0.00    +0.216 C 
ATOM     27  O   UNL     1      -0.371  -4.957  -3.671  0.00  0.00    -0.276 OA
ATOM     28  H   UNL     1      -0.810  -5.136  -0.622  0.00  0.00    +0.149 HD
BRANCH  25  29
ATOM     29  C   UNL     1       0.457  -3.653  -1.462  0.00  0.00    +0.108 C 
BRANCH  29  30
ATOM     30  C   UNL     1       0.691  -3.186  -0.024  0.00  0.00    +0.052 C 
BRANCH  30  37
ATOM     31  C   UNL     1      -0.016   1.348   0.009  0.00  0.00    +0.001 A 
ATOM     32  C   UNL     1       1.166   2.101   0.002  0.00  0.00    +0.002 A 
ATOM     33  C   UNL     1       2.391   1.535  -0.013  0.00  0.00    +0.026 A 
ATOM     34  C   UNL     1       2.529   0.120  -0.022  0.00  0.00    +0.043 A 
ATOM     35  N   UNL     1       3.587  -0.654  -0.037  0.00  0.00    -0.380 N 
ATOM     36  C   UNL     1       3.143  -2.053  -0.041  0.00  0.00    +0.144 C 
ATOM     37  C   UNL     1       1.631  -2.008  -0.025  0.00  0.00    -0.040 C 
ATOM     38  C   UNL     1       1.295  -0.698  -0.014  0.00  0.00    -0.001 A 
ATOM     39  C   UNL     1       0.002  -0.004   0.002  0.00  0.00    +0.010 A 
ATOM     40  H   UNL     1       4.509  -0.353  -0.045  0.00  0.00    +0.160 HD
ENDBRANCH  30  37
ENDBRANCH  29  30
ENDBRANCH  25  29
ENDBRANCH   1  26
TORSDOF 7
