REMARK  Name = ZINC63708265
REMARK  10 active torsions:
REMARK  status: ('A' for Active; 'I' for Inactive)
REMARK    1  A    between atoms: C_1  and  C_2
REMARK    2  A    between atoms: C_7  and  N_8
REMARK    3  A    between atoms: C_9  and  C_11
REMARK    4  A    between atoms: C_11  and  S_12
REMARK    5  A    between atoms: S_12  and  C_13
REMARK    6  A    between atoms: C_25  and  C_27
REMARK    7  A    between atoms: C_27  and  C_28
REMARK    8  A    between atoms: C_28  and  C_29
REMARK    9  A    between atoms: C_30  and  C_36
REMARK   10  A    between atoms: C_33  and  C_35
REMARK                            x       y       z     vdW  Elec       q    Type
REMARK                         _______ _______ _______ _____ _____    ______ ____
ROOT
ATOM      1  C   UNL     1      -0.388  -0.088   7.729  0.00  0.00    +0.248 C 
ATOM      2  N   UNL     1      -1.661   0.639   7.646  0.00  0.00    -0.356 N 
ATOM      3  C   UNL     1      -1.661   1.964   7.675  0.00  0.00    +0.048 A 
ATOM      4  C   UNL     1      -2.873   2.684   7.596  0.00  0.00    +0.026 A 
ATOM      5  C   UNL     1      -2.851   4.043   7.628  0.00  0.00    +0.002 A 
ATOM      6  C   UNL     1      -1.657   4.751   7.736  0.00  0.00    +0.001 A 
ATOM      7  C   UNL     1      -0.455   4.117   7.816  0.00  0.00    +0.013 A 
ATOM      8  C   UNL     1      -0.405   2.712   7.789  0.00  0.00    +0.038 A 
ATOM      9  C   UNL     1       0.829   2.038   7.871  0.00  0.00    +0.128 C 
ATOM     10  N   UNL     1       0.859   0.669   7.842  0.00  0.00    -0.204 N 
ATOM     11  N   UNL     1       2.206   0.301   7.938  0.00  0.00    -0.249 N 
ATOM     12  C   UNL     1       2.914   1.450   8.018  0.00  0.00    +0.090 C 
ATOM     13  N   UNL     1       2.092   2.467   7.979  0.00  0.00    -0.332 N 
ATOM     14  H   UNL     1       2.562  -0.602   7.947  0.00  0.00    +0.171 HD
ATOM     15  H   UNL     1      -2.496   0.152   7.571  0.00  0.00    +0.162 HD
ATOM     16  H   UNL     1       2.361   3.398   8.021  0.00  0.00    +0.168 HD
ENDROOT
BRANCH   1  17
ATOM     17  S   UNL     1      -0.259  -1.133   6.252  0.00  0.00    -0.106 S 
BRANCH  17  18
ATOM     18  C   UNL     1      -0.168   0.052   4.882  0.00  0.00    +0.168 C 
BRANCH  18  20
ATOM     19  N   UNL     1       0.025  -0.015   2.417  0.00  0.00    -0.285 N 
ATOM     20  C   UNL     1      -0.056  -0.694   3.578  0.00  0.00    +0.227 C 
ATOM     21  O   UNL     1      -0.040  -1.907   3.573  0.00  0.00    -0.275 OA
ATOM     22  H   UNL     1       0.078   0.954   2.425  0.00  0.00    +0.155 HD
BRANCH  19  29
ATOM     23  C   UNL     1      -1.264   1.184   0.181  0.00  0.00    +0.045 C 
ATOM     24  C   UNL     1      -0.584  -0.158   0.084  0.00  0.00    -0.029 A 
ATOM     25  C   UNL     1      -0.568  -0.840  -1.117  0.00  0.00    +0.005 A 
ATOM     26  C   UNL     1       0.055  -2.071  -1.206  0.00  0.00    +0.000 A 
ATOM     27  C   UNL     1       0.666  -2.622  -0.095  0.00  0.00    +0.002 A 
ATOM     28  C   UNL     1       0.655  -1.945   1.108  0.00  0.00    +0.023 A 
ATOM     29  C   UNL     1       0.034  -0.706   1.201  0.00  0.00    +0.036 A 
ENDBRANCH  19  29
ENDBRANCH  18  20
ENDBRANCH  17  18
ENDBRANCH   1  17
BRANCH  12  30
ATOM     30  C   UNL     1       4.413   1.544   8.137  0.00  0.00    +0.075 C 
BRANCH  30  31
ATOM     31  C   UNL     1       5.032   1.607   6.739  0.00  0.00    +0.042 C 
BRANCH  31  32
ATOM     32  C   UNL     1       6.532   1.701   6.858  0.00  0.00    -0.021 C 
ATOM     33  C   UNL     1       7.425   0.710   6.808  0.00  0.00    +0.061 C 
ATOM     34  N   UNL     1       8.681   1.187   6.954  0.00  0.00    -0.159 NA
ATOM     35  N   UNL     1       8.750   2.410   7.099  0.00  0.00    -0.180 NA
ATOM     36  C   UNL     1       7.378   2.946   7.055  0.00  0.00    +0.153 C 
ATOM     37  C   UNL     1       7.027   3.635   8.375  0.00  0.00    +0.039 C 
ATOM     38  C   UNL     1       7.079  -0.745   6.617  0.00  0.00    +0.067 C 
ENDBRANCH  31  32
ENDBRANCH  30  31
ENDBRANCH  12  30
TORSDOF 7
