REMARK  Name = ZINC39667127
REMARK  10 active torsions:
REMARK  status: ('A' for Active; 'I' for Inactive)
REMARK    1  A    between atoms: C_1  and  C_2
REMARK    2  A    between atoms: C_5  and  C_9
REMARK    3  A    between atoms: C_6  and  C_8
REMARK    4  A    between atoms: C_9  and  C_10
REMARK    5  A    between atoms: C_10  and  N_11
REMARK    6  A    between atoms: C_12  and  C_14
REMARK    7  A    between atoms: C_25  and  C_27
REMARK    8  A    between atoms: C_28  and  C_38
REMARK    9  A    between atoms: C_31  and  C_32
REMARK   10  A    between atoms: C_34  and  C_37
REMARK                            x       y       z     vdW  Elec       q    Type
REMARK                         _______ _______ _______ _____ _____    ______ ____
ROOT
ATOM      1  C   UNL     1      -2.485  -8.466   0.197  0.00  0.00    +0.100 C 
ATOM      2  C   UNL     1      -1.599  -8.999   1.346  0.00  0.00    +0.121 C 
ATOM      3  N   UNL     1      -2.545  -9.266   2.455  0.00  0.00    -0.296 N 
ATOM      4  C   UNL     1      -3.741  -9.837   1.790  0.00  0.00    +0.115 C 
ATOM      5  C   UNL     1      -3.889  -9.021   0.491  0.00  0.00    -0.004 C 
ATOM      6  C   UNL     1      -4.877  -7.877   0.698  0.00  0.00    -0.010 C 
ATOM      7  C   UNL     1      -6.276  -8.454   0.932  0.00  0.00    -0.082 C 
ATOM      8  N   UNL     1      -6.672  -9.266  -0.225  0.00  0.00    +0.379 N 
ATOM      9  C   UNL     1      -5.771 -10.417  -0.361  0.00  0.00    -0.082 C 
ATOM     10  C   UNL     1      -4.350  -9.923  -0.649  0.00  0.00    -0.010 C 
ATOM     11  C   UNL     1      -2.360  -9.040   3.771  0.00  0.00    +0.252 C 
ATOM     12  O   UNL     1      -3.239  -9.316   4.565  0.00  0.00    -0.270 OA
ATOM     13  H   UNL     1      -7.617  -9.595  -0.096  0.00  0.00    -0.086 HD
ATOM     14  H   UNL     1      -6.626  -8.704  -1.061  0.00  0.00    -0.086 HD
ENDROOT
BRANCH  11  15
ATOM     15  C   UNL     1      -1.093  -8.460   4.247  0.00  0.00    +0.108 A 
ATOM     16  C   UNL     1      -0.808  -7.081   4.407  0.00  0.00    +0.093 A 
ATOM     17  N   UNL     1       0.410  -6.967   4.846  0.00  0.00    -0.082 NA
ATOM     18  O   UNL     1       0.967  -8.259   4.991  0.00  0.00    -0.352 OA
ATOM     19  C   UNL     1       0.041  -9.162   4.629  0.00  0.00    +0.201 A 
ATOM     20  C   UNL     1      -1.753  -5.943   4.117  0.00  0.00    +0.070 C 
BRANCH  19  21
ATOM     21  C   UNL     1       0.202 -10.632   4.634  0.00  0.00    +0.152 A 
ATOM     22  C   UNL     1       1.360 -11.345   5.031  0.00  0.00    +0.079 A 
ATOM     23  C   UNL     1       1.109 -12.658   4.892  0.00  0.00    +0.135 A 
ATOM     24  O   UNL     1      -0.143 -12.801   4.431  0.00  0.00    -0.359 OA
ATOM     25  N   UNL     1      -0.706 -11.511   4.277  0.00  0.00    -0.075 NA
ATOM     26  C   UNL     1       2.069 -13.778   5.201  0.00  0.00    +0.089 C 
ENDBRANCH  19  21
ENDBRANCH  11  15
BRANCH   1  28
ATOM     27  N   UNL     1      -2.784  -6.282  -0.926  0.00  0.00    -0.315 N 
ATOM     28  C   UNL     1      -2.505  -6.959   0.206  0.00  0.00    +0.218 C 
ATOM     29  O   UNL     1      -2.269  -6.355   1.231  0.00  0.00    -0.275 OA
ATOM     30  H   UNL     1      -2.972  -6.765  -1.746  0.00  0.00    +0.149 HD
BRANCH  27  31
ATOM     31  C   UNL     1      -2.803  -4.817  -0.918  0.00  0.00    +0.109 C 
BRANCH  31  32
ATOM     32  C   UNL     1      -3.143  -4.304  -2.318  0.00  0.00    +0.054 C 
BRANCH  32  37
ATOM     33  C   UNL     1      -3.217   1.474  -2.283  0.00  0.00    +0.044 C 
ATOM     34  C   UNL     1      -3.198  -0.033  -2.293  0.00  0.00    -0.050 A 
ATOM     35  C   UNL     1      -4.374  -0.740  -2.123  0.00  0.00    +0.003 A 
ATOM     36  C   UNL     1      -4.356  -2.122  -2.132  0.00  0.00    +0.004 A 
ATOM     37  C   UNL     1      -3.163  -2.797  -2.310  0.00  0.00    -0.043 A 
ATOM     38  C   UNL     1      -1.988  -2.090  -2.481  0.00  0.00    -0.047 A 
ATOM     39  C   UNL     1      -2.006  -0.708  -2.476  0.00  0.00    +0.007 A 
ATOM     40  C   UNL     1      -0.687  -2.826  -2.675  0.00  0.00    +0.044 C 
ENDBRANCH  32  37
ENDBRANCH  31  32
ENDBRANCH  27  31
ENDBRANCH   1  28
TORSDOF 6
