REMARK  Name = ZINC39663925
REMARK  14 active torsions:
REMARK  status: ('A' for Active; 'I' for Inactive)
REMARK    1  A    between atoms: C_1  and  N_2
REMARK    2  A    between atoms: N_2  and  C_3
REMARK    3  A    between atoms: N_2  and  C_4
REMARK    4  A    between atoms: C_4  and  C_6
REMARK    5  A    between atoms: C_4  and  C_33
REMARK    6  A    between atoms: C_6  and  N_7
REMARK    7  A    between atoms: C_8  and  C_10
REMARK    8  A    between atoms: C_21  and  C_23
REMARK    9  A    between atoms: C_23  and  C_24
REMARK   10  A    between atoms: C_24  and  C_25
REMARK   11  A    between atoms: C_28  and  O_31
REMARK   12  A    between atoms: O_31  and  C_32
REMARK   13  A    between atoms: C_36  and  O_39
REMARK   14  A    between atoms: O_39  and  C_40
REMARK                            x       y       z     vdW  Elec       q    Type
REMARK                         _______ _______ _______ _____ _____    ______ ____
ROOT
ATOM      1  C   UNL     1      -2.632   3.795  -1.808  0.00  0.00    +0.100 C 
ATOM      2  C   UNL     1      -1.175   4.263  -2.022  0.00  0.00    +0.121 C 
ATOM      3  N   UNL     1      -1.111   4.648  -3.451  0.00  0.00    -0.300 N 
ATOM      4  C   UNL     1      -2.406   5.321  -3.710  0.00  0.00    +0.115 C 
ATOM      5  C   UNL     1      -3.437   4.495  -2.916  0.00  0.00    -0.004 C 
ATOM      6  C   UNL     1      -4.491   5.413  -2.303  0.00  0.00    -0.010 C 
ATOM      7  C   UNL     1      -5.317   6.053  -3.422  0.00  0.00    -0.082 C 
ATOM      8  N   UNL     1      -5.960   5.002  -4.221  0.00  0.00    +0.379 N 
ATOM      9  C   UNL     1      -4.938   4.180  -4.881  0.00  0.00    -0.082 C 
ATOM     10  C   UNL     1      -4.096   3.461  -3.824  0.00  0.00    -0.010 C 
ATOM     11  C   UNL     1      -0.102   4.435  -4.320  0.00  0.00    +0.216 C 
ATOM     12  O   UNL     1      -0.201   4.814  -5.468  0.00  0.00    -0.276 OA
ATOM     13  H   UNL     1      -6.520   4.418  -3.618  0.00  0.00    -0.086 HD
ATOM     14  H   UNL     1      -6.552   5.426  -4.919  0.00  0.00    -0.086 HD
ENDROOT
BRANCH   1  16
ATOM     15  N   UNL     1      -3.707   1.622  -1.321  0.00  0.00    -0.316 N 
ATOM     16  C   UNL     1      -2.729   2.298  -1.955  0.00  0.00    +0.218 C 
ATOM     17  O   UNL     1      -1.928   1.703  -2.643  0.00  0.00    -0.275 OA
ATOM     18  H   UNL     1      -4.348   2.098  -0.770  0.00  0.00    +0.149 HD
BRANCH  15  19
ATOM     19  C   UNL     1      -3.802   0.167  -1.463  0.00  0.00    +0.093 C 
BRANCH  19  20
ATOM     20  C   UNL     1      -4.927  -0.361  -0.570  0.00  0.00    -0.021 C 
BRANCH  20  21
ATOM     21  C   UNL     1      -6.247   0.190  -1.046  0.00  0.00    -0.059 A 
ATOM     22  C   UNL     1      -6.887  -0.388  -2.126  0.00  0.00    +0.005 A 
ATOM     23  C   UNL     1      -8.096   0.115  -2.564  0.00  0.00    +0.046 A 
ATOM     24  C   UNL     1      -8.669   1.202  -1.919  0.00  0.00    +0.120 A 
ATOM     25  C   UNL     1      -8.025   1.780  -0.835  0.00  0.00    +0.046 A 
ATOM     26  C   UNL     1      -6.818   1.270  -0.398  0.00  0.00    +0.005 A 
BRANCH  24  27
ATOM     27  O   UNL     1      -9.858   1.699  -2.349  0.00  0.00    -0.495 OA
ATOM     28  C   UNL     1     -10.388   2.819  -1.637  0.00  0.00    +0.277 C 
ENDBRANCH  24  27
ENDBRANCH  20  21
BRANCH  20  30
ATOM     29  C   UNL     1      -3.660  -2.364  -0.199  0.00  0.00    -0.096 C 
ATOM     30  N   UNL     1      -4.957  -1.828  -0.635  0.00  0.00    +0.382 N 
ATOM     31  C   UNL     1      -6.018  -2.336   0.245  0.00  0.00    -0.096 C 
ATOM     32  H   UNL     1      -5.139  -2.119  -1.584  0.00  0.00    -0.082 HD
ENDBRANCH  20  30
ENDBRANCH  19  20
ENDBRANCH  15  19
ENDBRANCH   1  16
BRANCH  11  33
ATOM     33  C   UNL     1       1.147   3.726  -3.865  0.00  0.00    +0.100 C 
BRANCH  33  34
ATOM     34  C   UNL     1       2.125   3.615  -5.037  0.00  0.00    +0.044 C 
BRANCH  34  35
ATOM     35  C   UNL     1       3.375   2.906  -4.582  0.00  0.00    -0.047 A 
ATOM     36  C   UNL     1       4.430   3.632  -4.062  0.00  0.00    +0.007 A 
ATOM     37  C   UNL     1       5.577   2.985  -3.645  0.00  0.00    +0.046 A 
ATOM     38  C   UNL     1       5.669   1.604  -3.747  0.00  0.00    +0.120 A 
ATOM     39  C   UNL     1       4.608   0.877  -4.268  0.00  0.00    +0.046 A 
ATOM     40  C   UNL     1       3.462   1.529  -4.679  0.00  0.00    +0.007 A 
BRANCH  38  41
ATOM     41  O   UNL     1       6.796   0.965  -3.338  0.00  0.00    -0.495 OA
ATOM     42  C   UNL     1       6.820  -0.458  -3.473  0.00  0.00    +0.277 C 
ENDBRANCH  38  41
ENDBRANCH  34  35
ENDBRANCH  33  34
ENDBRANCH  11  33
TORSDOF 10
