REMARK  Name = ZINC36370618
REMARK  12 active torsions:
REMARK  status: ('A' for Active; 'I' for Inactive)
REMARK    1  A    between atoms: C_1  and  C_2
REMARK    2  A    between atoms: C_2  and  C_4
REMARK    3  A    between atoms: C_4  and  O_41
REMARK    4  A    between atoms: C_9  and  C_40
REMARK    5  A    between atoms: N_21  and  O_22
REMARK    6  A    between atoms: O_22  and  C_23
REMARK    7  A    between atoms: C_23  and  C_24
REMARK    8  A    between atoms: N_26  and  C_27
REMARK    9  A    between atoms: C_27  and  C_28
REMARK   10  A    between atoms: C_28  and  C_29
REMARK   11  A    between atoms: C_32  and  O_35
REMARK   12  A    between atoms: C_38  and  C_39
REMARK                            x       y       z     vdW  Elec       q    Type
REMARK                         _______ _______ _______ _____ _____    ______ ____
ROOT
ATOM      1  C   UNL     1      -1.293  -0.775   0.010  0.00  0.00    +0.129 C 
ATOM      2  C   UNL     1      -1.785  -0.998  -1.432  0.00  0.00    +0.043 C 
ATOM      3  C   UNL     1      -1.883  -2.527  -1.634  0.00  0.00    +0.008 C 
ATOM      4  C   UNL     1      -2.027  -3.070  -0.200  0.00  0.00    +0.002 C 
ATOM      5  C   UNL     1      -1.069  -2.186   0.617  0.00  0.00    +0.007 C 
ATOM      6  C   UNL     1       0.387  -2.562   0.327  0.00  0.00    +0.010 C 
ATOM      7  C   UNL     1       0.615  -4.051   0.565  0.00  0.00    +0.005 C 
ATOM      8  C   UNL     1      -0.258  -4.846  -0.413  0.00  0.00    +0.002 C 
ATOM      9  C   UNL     1      -1.708  -4.543  -0.103  0.00  0.00    -0.003 C 
ATOM     10  C   UNL     1      -2.604  -5.336  -1.056  0.00  0.00    +0.008 C 
ATOM     11  C   UNL     1      -2.391  -6.840  -0.851  0.00  0.00    +0.031 C 
ATOM     12  C   UNL     1      -0.907  -7.120  -1.020  0.00  0.00    -0.062 C 
ATOM     13  C   UNL     1      -0.526  -8.050  -1.886  0.00  0.00    +0.026 C 
ATOM     14  C   UNL     1       0.917  -8.294  -2.083  0.00  0.00    +0.080 C 
ATOM     15  N   UNL     1       1.369  -9.434  -2.502  0.00  0.00    -0.089 NA
ATOM     16  C   UNL     1       1.837  -7.131  -1.766  0.00  0.00    +0.059 C 
ATOM     17  C   UNL     1       1.503  -6.649  -0.354  0.00  0.00    +0.017 C 
ATOM     18  C   UNL     1       0.012  -6.339  -0.215  0.00  0.00    -0.007 C 
ATOM     19  C   UNL     1      -0.315  -6.645   1.248  0.00  0.00    +0.016 C 
ATOM     20  C   UNL     1      -1.391  -2.226   2.112  0.00  0.00    +0.015 C 
ENDROOT
BRANCH   1  22
ATOM     21  C   UNL     1       0.434   0.756   1.229  0.00  0.00    +0.089 C 
ATOM     22  C   UNL     1       0.002  -0.004   0.002  0.00  0.00    +0.162 C 
ATOM     23  O   UNL     1       0.693   0.005  -0.988  0.00  0.00    -0.295 OA
ENDBRANCH   1  22
BRANCH   1  24
ATOM     24  O   UNL     1      -2.280  -0.068   0.764  0.00  0.00    -0.381 OA
ATOM     25  H   UNL     1      -2.473   0.817   0.426  0.00  0.00    +0.211 HD
ENDBRANCH   1  24
BRANCH  15  26
ATOM     26  O   UNL     1       0.471 -10.491  -2.786  0.00  0.00    -0.384 OA
BRANCH  26  27
ATOM     27  C   UNL     1       1.107 -11.688  -3.238  0.00  0.00    +0.358 C 
BRANCH  27  28
ATOM     28  C   UNL     1       0.062 -12.740  -3.509  0.00  0.00    +0.253 C 
ATOM     29  O   UNL     1      -1.111 -12.489  -3.332  0.00  0.00    -0.272 OA
ATOM     30  N   UNL     1       0.432 -13.959  -3.948  0.00  0.00    -0.312 N 
ATOM     31  H   UNL     1       1.370 -14.160  -4.090  0.00  0.00    +0.149 HD
BRANCH  30  32
ATOM     32  C   UNL     1      -0.583 -14.982  -4.212  0.00  0.00    +0.109 C 
BRANCH  32  33
ATOM     33  C   UNL     1       0.097 -16.264  -4.696  0.00  0.00    +0.054 C 
BRANCH  33  34
ATOM     34  C   UNL     1      -0.947 -17.316  -4.967  0.00  0.00    -0.046 A 
ATOM     35  C   UNL     1      -1.340 -18.174  -3.957  0.00  0.00    +0.007 A 
ATOM     36  C   UNL     1      -2.297 -19.140  -4.203  0.00  0.00    +0.045 A 
ATOM     37  C   UNL     1      -2.864 -19.247  -5.464  0.00  0.00    +0.117 A 
ATOM     38  C   UNL     1      -2.469 -18.384  -6.476  0.00  0.00    +0.045 A 
ATOM     39  C   UNL     1      -1.515 -17.417  -6.223  0.00  0.00    +0.007 A 
BRANCH  37  40
ATOM     40  O   UNL     1      -3.805 -20.197  -5.708  0.00  0.00    -0.507 OA
ATOM     41  H   UNL     1      -4.712 -19.904  -5.542  0.00  0.00    +0.292 HD
ENDBRANCH  37  40
ENDBRANCH  33  34
ENDBRANCH  32  33
ENDBRANCH  30  32
ENDBRANCH  27  28
ENDBRANCH  26  27
ENDBRANCH  15  26
TORSDOF 9
