REMARK  Name = ZINC63221844
REMARK  9 active torsions:
REMARK  status: ('A' for Active; 'I' for Inactive)
REMARK    1  A    between atoms: C_1  and  C_2
REMARK    2  A    between atoms: C_2  and  O_3
REMARK    3  A    between atoms: O_3  and  C_4
REMARK    4  A    between atoms: C_7  and  N_10
REMARK    5  A    between atoms: C_11  and  C_28
REMARK    6  A    between atoms: C_14  and  S_15
REMARK    7  A    between atoms: S_15  and  C_16
REMARK    8  A    between atoms: C_16  and  C_17
REMARK    9  A    between atoms: C_17  and  C_19
REMARK                            x       y       z     vdW  Elec       q    Type
REMARK                         _______ _______ _______ _____ _____    ______ ____
ROOT
ATOM      1  N   UNL     1       1.101  -5.939  -1.835  0.00  0.00    -0.270 N 
ATOM      2  C   UNL     1       2.264  -6.692  -1.835  0.00  0.00    +0.168 A 
ATOM      3  N   UNL     1       1.906  -7.954  -2.025  0.00  0.00    -0.128 NA
ATOM      4  N   UNL     1       0.628  -8.031  -2.140  0.00  0.00    -0.122 NA
ATOM      5  C   UNL     1       0.086  -6.827  -2.025  0.00  0.00    +0.197 A 
ENDROOT
BRANCH   2   6
ATOM      6  C   UNL     1       3.571  -6.211  -1.666  0.00  0.00    +0.025 C 
ATOM      7  C   UNL     1       4.751  -6.956  -1.669  0.00  0.00    +0.006 A 
ATOM      8  C   UNL     1       5.008  -8.334  -1.831  0.00  0.00    +0.010 A 
ATOM      9  C   UNL     1       6.286  -8.791  -1.789  0.00  0.00    +0.001 A 
ATOM     10  C   UNL     1       7.365  -7.927  -1.588  0.00  0.00    +0.002 A 
ATOM     11  C   UNL     1       7.192  -6.592  -1.425  0.00  0.00    +0.026 A 
ATOM     12  C   UNL     1       5.885  -6.041  -1.458  0.00  0.00    +0.043 A 
ATOM     13  N   UNL     1       5.458  -4.800  -1.329  0.00  0.00    -0.380 N 
ATOM     14  C   UNL     1       3.997  -4.776  -1.450  0.00  0.00    +0.152 C 
ATOM     15  H   UNL     1       6.022  -4.025  -1.181  0.00  0.00    +0.160 HD
ENDBRANCH   2   6
BRANCH   1  19
ATOM     16  C   UNL     1       0.777  -1.810  -1.336  0.00  0.00    +0.121 A 
ATOM     17  C   UNL     1       0.242  -2.668  -0.386  0.00  0.00    +0.047 A 
ATOM     18  C   UNL     1       0.349  -4.035  -0.550  0.00  0.00    +0.030 A 
ATOM     19  C   UNL     1       0.992  -4.551  -1.667  0.00  0.00    +0.051 A 
ATOM     20  C   UNL     1       1.526  -3.692  -2.619  0.00  0.00    +0.030 A 
ATOM     21  C   UNL     1       1.414  -2.326  -2.455  0.00  0.00    +0.047 A 
BRANCH  16  22
ATOM     22  O   UNL     1       0.671  -0.465  -1.174  0.00  0.00    -0.492 OA
BRANCH  22  24
ATOM     23  C   UNL     1      -0.019   1.526   0.010  0.00  0.00    +0.048 C 
ATOM     24  C   UNL     1       0.002  -0.004   0.002  0.00  0.00    +0.225 C 
ENDBRANCH  22  24
ENDBRANCH  16  22
ENDBRANCH   1  19
BRANCH   5  25
ATOM     25  S   UNL     1      -1.632  -6.445  -2.109  0.00  0.00    -0.078 S 
BRANCH  25  26
ATOM     26  C   UNL     1      -2.427  -8.054  -2.374  0.00  0.00    +0.156 C 
BRANCH  26  27
ATOM     27  C   UNL     1      -3.920  -7.868  -2.465  0.00  0.00    +0.172 C 
ATOM     28  O   UNL     1      -4.401  -6.758  -2.361  0.00  0.00    -0.291 OA
BRANCH  27  29
ATOM     29  C   UNL     1      -4.759  -8.984  -2.671  0.00  0.00    +0.024 C 
ATOM     30  C   UNL     1      -6.137  -8.985  -2.782  0.00  0.00    +0.006 A 
ATOM     31  C   UNL     1      -7.107  -7.956  -2.733  0.00  0.00    +0.010 A 
ATOM     32  C   UNL     1      -8.419  -8.249  -2.875  0.00  0.00    +0.001 A 
ATOM     33  C   UNL     1      -8.881  -9.560  -3.075  0.00  0.00    +0.002 A 
ATOM     34  C   UNL     1      -8.039 -10.613  -3.137  0.00  0.00    +0.026 A 
ATOM     35  C   UNL     1      -6.592 -10.381  -2.992  0.00  0.00    +0.043 A 
ATOM     36  N   UNL     1      -5.575 -11.194  -3.011  0.00  0.00    -0.380 N 
ATOM     37  C   UNL     1      -4.338 -10.429  -2.822  0.00  0.00    +0.152 C 
ATOM     38  H   UNL     1      -5.627 -12.155  -3.134  0.00  0.00    +0.160 HD
ENDBRANCH  27  29
ENDBRANCH  26  27
ENDBRANCH  25  26
ENDBRANCH   5  25
TORSDOF 8
