REMARK  Name = ZINC40338169
REMARK  4 active torsions:
REMARK  status: ('A' for Active; 'I' for Inactive)
REMARK    1  A    between atoms: C_4  and  C_7
REMARK    2  A    between atoms: N_15  and  C_25
REMARK    3  A    between atoms: C_16  and  C_18
REMARK    4  A    between atoms: C_25  and  C_26
REMARK                            x       y       z     vdW  Elec       q    Type
REMARK                         _______ _______ _______ _____ _____    ______ ____
ROOT
ATOM      1  C   UNL     1       3.699  -0.689  -0.037  0.00  0.00    +0.099 A 
ATOM      2  C   UNL     1       3.978  -1.905   0.596  0.00  0.00    +0.035 A 
ATOM      3  C   UNL     1       5.299  -2.186   0.306  0.00  0.00    +0.126 A 
ATOM      4  N   UNL     1       5.746  -1.153  -0.469  0.00  0.00    -0.272 N 
ATOM      5  H   UNL     1       6.644  -1.074  -0.828  0.00  0.00    +0.189 HD
ATOM      6  N   UNL     1       4.798  -0.305  -0.656  0.00  0.00    -0.173 NA
ATOM      7  C   UNL     1       5.657  -3.458   0.944  0.00  0.00    +0.266 C 
ATOM      8  O   UNL     1       6.752  -3.983   0.880  0.00  0.00    -0.268 OA
ATOM      9  N   UNL     1       4.602  -3.960   1.611  0.00  0.00    -0.281 N 
ATOM     10  C   UNL     1       3.472  -3.036   1.449  0.00  0.00    +0.142 C 
ENDROOT
BRANCH  10  11
ATOM     11  C   UNL     1       2.327  -3.733   0.761  0.00  0.00    -0.022 A 
ATOM     12  C   UNL     1       2.579  -4.660  -0.233  0.00  0.00    +0.007 A 
ATOM     13  C   UNL     1       1.529  -5.300  -0.864  0.00  0.00    +0.020 A 
ATOM     14  C   UNL     1       0.226  -5.012  -0.501  0.00  0.00    +0.041 A 
ATOM     15  C   UNL     1      -0.026  -4.084   0.494  0.00  0.00    +0.020 A 
ATOM     16  C   UNL     1       1.025  -3.450   1.128  0.00  0.00    +0.007 A 
ATOM     17 CL   UNL     1      -1.094  -5.815  -1.294  0.00  0.00    -0.084 Cl
ENDBRANCH  10  11
BRANCH   1  21
ATOM     18  C   UNL     1      -0.017   1.379   0.010  0.00  0.00    +0.000 A 
ATOM     19  C   UNL     1       1.169   2.092   0.002  0.00  0.00    +0.001 A 
ATOM     20  C   UNL     1       2.377   1.425  -0.013  0.00  0.00    +0.010 A 
ATOM     21  C   UNL     1       2.402   0.033  -0.021  0.00  0.00    +0.002 A 
ATOM     22  C   UNL     1       1.205  -0.680  -0.013  0.00  0.00    +0.010 A 
ATOM     23  C   UNL     1       0.002  -0.004   0.002  0.00  0.00    +0.001 A 
ENDBRANCH   1  21
BRANCH   9  24
ATOM     24  C   UNL     1       4.584  -5.214   2.369  0.00  0.00    +0.144 C 
BRANCH  24  25
ATOM     25  C   UNL     1       4.982  -4.944   3.797  0.00  0.00    -0.030 A 
ATOM     26  C   UNL     1       6.313  -5.004   4.166  0.00  0.00    +0.006 A 
ATOM     27  C   UNL     1       6.680  -4.756   5.475  0.00  0.00    +0.020 A 
ATOM     28  C   UNL     1       5.714  -4.449   6.417  0.00  0.00    +0.041 A 
ATOM     29  C   UNL     1       4.382  -4.389   6.047  0.00  0.00    +0.020 A 
ATOM     30  C   UNL     1       4.018  -4.631   4.736  0.00  0.00    +0.006 A 
ATOM     31 CL   UNL     1       6.173  -4.138   8.062  0.00  0.00    -0.084 Cl
ENDBRANCH  24  25
ENDBRANCH   9  24
TORSDOF 4
