REMARK  Name = ZINC01568118
REMARK  3 active torsions:
REMARK  status: ('A' for Active; 'I' for Inactive)
REMARK    1  A    between atoms: C_4  and  O_26
REMARK    2  A    between atoms: C_5  and  C_7
REMARK    3  A    between atoms: C_16  and  C_19
REMARK                            x       y       z     vdW  Elec       q    Type
REMARK                         _______ _______ _______ _____ _____    ______ ____
ROOT
ATOM      1  C   UNL     1      -7.257   0.569  -0.143  0.00  0.00    +0.175 C 
ATOM      2  N   UNL     1      -6.102   1.487  -0.160  0.00  0.00    -0.233 N 
ATOM      3  C   UNL     1      -6.314   2.794  -0.255  0.00  0.00    +0.232 C 
ATOM      4  O   UNL     1      -5.392   3.580  -0.273  0.00  0.00    -0.274 OA
ATOM      5  C   UNL     1      -7.756   3.268  -0.345  0.00  0.00    +0.167 C 
ATOM      6  S   UNL     1      -8.645   1.740   0.184  0.00  0.00    -0.124 S 
ATOM      7  C   UNL     1      -4.808   0.990  -0.073  0.00  0.00    +0.169 A 
ATOM      8  N   UNL     1      -3.661   1.643  -0.067  0.00  0.00    -0.224 NA
ATOM      9  C   UNL     1      -2.505   1.002   0.019  0.00  0.00    +0.080 A 
ATOM     10  C   UNL     1      -2.500  -0.361   0.114  0.00  0.00    +0.076 A 
ATOM     11  S   UNL     1      -4.254  -0.704   0.068  0.00  0.00    -0.060 S 
ENDROOT
BRANCH   9  12
ATOM     12  C   UNL     1      -1.228   1.758   0.017  0.00  0.00    +0.001 A 
ATOM     13  C   UNL     1      -0.013   1.076   0.008  0.00  0.00    +0.011 A 
ATOM     14  C   UNL     1       1.172   1.783   0.000  0.00  0.00    +0.020 A 
ATOM     15  C   UNL     1       1.155   3.167   0.008  0.00  0.00    +0.041 A 
ATOM     16  C   UNL     1      -0.050   3.849   0.023  0.00  0.00    +0.020 A 
ATOM     17  C   UNL     1      -1.240   3.151   0.030  0.00  0.00    +0.011 A 
ATOM     18 CL   UNL     1       2.649   4.051  -0.001  0.00  0.00    -0.084 Cl
ENDBRANCH   9  12
BRANCH   1  23
ATOM     19  C   UNL     1      -6.092  -1.169   3.000  0.00  0.00    +0.001 A 
ATOM     20  C   UNL     1      -6.890  -2.298   3.007  0.00  0.00    +0.004 A 
ATOM     21  C   UNL     1      -7.809  -2.502   1.996  0.00  0.00    +0.046 A 
ATOM     22  C   UNL     1      -7.930  -1.573   0.973  0.00  0.00    +0.123 A 
ATOM     23  C   UNL     1      -7.128  -0.441   0.968  0.00  0.00    +0.025 A 
ATOM     24  C   UNL     1      -6.207  -0.244   1.979  0.00  0.00    +0.010 A 
BRANCH  22  25
ATOM     25  O   UNL     1      -8.833  -1.772  -0.023  0.00  0.00    -0.506 OA
ATOM     26  H   UNL     1      -8.484  -2.264  -0.779  0.00  0.00    +0.292 HD
ENDBRANCH  22  25
ENDBRANCH   1  23
TORSDOF 3
