REMARK  Name = ZINC13641378
REMARK  7 active torsions:
REMARK  status: ('A' for Active; 'I' for Inactive)
REMARK    1  A    between atoms: C_14  and  C_15
REMARK    2  A    between atoms: C_14  and  O_35
REMARK    3  A    between atoms: C_21  and  C_23
REMARK    4  A    between atoms: N_25  and  C_26
REMARK    5  A    between atoms: C_26  and  C_27
REMARK    6  A    between atoms: C_32  and  C_33
REMARK    7  A    between atoms: C_33  and  N_60
REMARK                            x       y       z     vdW  Elec       q    Type
REMARK                         _______ _______ _______ _____ _____    ______ ____
ROOT
ATOM      1  C   UNL     1      -2.908   0.440   1.264  0.00  0.00    +0.259 C 
ATOM      2  O   UNL     1      -2.305   0.674   2.290  0.00  0.00    -0.272 OA
ATOM      3  N   UNL     1      -3.820  -0.553   1.230  0.00  0.00    -0.287 N 
ATOM      4  C   UNL     1      -4.552  -1.006   0.033  0.00  0.00    +0.109 C 
ATOM      5  C   UNL     1      -5.843  -1.662   0.583  0.00  0.00    +0.021 C 
ATOM      6  C   UNL     1      -5.319  -2.351   1.870  0.00  0.00    +0.033 C 
ATOM      7  C   UNL     1      -4.244  -1.367   2.378  0.00  0.00    +0.162 C 
ENDROOT
BRANCH   1  21
ATOM      8  C   UNL     1      -6.088   3.186  -1.549  0.00  0.00    +0.001 A 
ATOM      9  C   UNL     1      -5.697   3.588  -0.284  0.00  0.00    +0.000 A 
ATOM     10  C   UNL     1      -4.589   3.015   0.315  0.00  0.00    +0.008 A 
ATOM     11  C   UNL     1      -3.868   2.047  -0.351  0.00  0.00    +0.007 A 
ATOM     12  C   UNL     1      -4.256   1.632  -1.623  0.00  0.00    -0.009 A 
ATOM     13  C   UNL     1      -5.376   2.215  -2.220  0.00  0.00    +0.009 A 
ATOM     14  C   UNL     1      -3.323   0.587  -2.106  0.00  0.00    +0.009 A 
ATOM     15  C   UNL     1      -3.272  -0.124  -3.309  0.00  0.00    +0.012 A 
ATOM     16  C   UNL     1      -2.258  -1.050  -3.483  0.00  0.00    +0.022 A 
ATOM     17  C   UNL     1      -1.330  -1.235  -2.474  0.00  0.00    +0.134 A 
ATOM     18  N   UNL     1      -1.398  -0.542  -1.353  0.00  0.00    -0.140 N 
ATOM     19  O   UNL     1      -0.426  -0.763  -0.347  0.00  0.00    -0.164 OA
ATOM     20  C   UNL     1      -2.345   0.351  -1.144  0.00  0.00    +0.115 A 
ATOM     21  C   UNL     1      -2.639   1.258   0.028  0.00  0.00    +0.212 C 
BRANCH  21  22
ATOM     22  O   UNL     1      -1.538   2.141   0.253  0.00  0.00    -0.370 OA
ATOM     23  H   UNL     1      -0.739   1.700   0.574  0.00  0.00    +0.212 HD
ENDBRANCH  21  22
ENDBRANCH   1  21
BRANCH   7  24
ATOM     24  C   UNL     1      -3.066  -2.129   2.929  0.00  0.00    +0.234 C 
ATOM     25  O   UNL     1      -1.974  -2.010   2.417  0.00  0.00    -0.274 OA
ATOM     26  N   UNL     1      -3.228  -2.943   3.991  0.00  0.00    -0.310 N 
ATOM     27  H   UNL     1      -4.102  -3.039   4.400  0.00  0.00    +0.149 HD
BRANCH  26  28
ATOM     28  C   UNL     1      -2.083  -3.685   4.526  0.00  0.00    +0.139 C 
BRANCH  28  29
ATOM     29  C   UNL     1      -2.528  -4.515   5.702  0.00  0.00    -0.028 A 
ATOM     30  C   UNL     1      -2.296  -4.070   6.990  0.00  0.00    +0.025 A 
ATOM     31  C   UNL     1      -2.705  -4.832   8.069  0.00  0.00    +0.041 A 
ATOM     32  C   UNL     1      -3.346  -6.040   7.859  0.00  0.00    +0.020 A 
ATOM     33  C   UNL     1      -3.577  -6.484   6.571  0.00  0.00    +0.003 A 
ATOM     34  C   UNL     1      -3.173  -5.720   5.493  0.00  0.00    -0.060 A 
ATOM     35 CL   UNL     1      -2.414  -4.273   9.687  0.00  0.00    -0.084 Cl
BRANCH  34  36
ATOM     36  C   UNL     1      -3.431  -6.202   4.089  0.00  0.00    -0.050 C 
BRANCH  36  39
ATOM     37  H   UNL     1      -1.874  -7.547   4.142  0.00  0.00    -0.090 HD
ATOM     38  H   UNL     1      -2.354  -7.136   2.604  0.00  0.00    -0.090 HD
ATOM     39  N   UNL     1      -2.191  -6.785   3.546  0.00  0.00    +0.381 N 
ATOM     40  H   UNL     1      -1.464  -6.061   3.512  0.00  0.00    -0.090 HD
ENDBRANCH  36  39
ENDBRANCH  34  36
ENDBRANCH  28  29
ENDBRANCH  26  28
ENDBRANCH   7  24
TORSDOF 7
