REMARK  Name = ZINC07780360
REMARK  4 active torsions:
REMARK  status: ('A' for Active; 'I' for Inactive)
REMARK    1  A    between atoms: C_10  and  N_11
REMARK    2  A    between atoms: N_11  and  N_12
REMARK    3  A    between atoms: N_20  and  C_23
REMARK    4  A    between atoms: C_23  and  C_24
REMARK                            x       y       z     vdW  Elec       q    Type
REMARK                         _______ _______ _______ _____ _____    ______ ____
ROOT
ATOM      1  N   UNL     1       5.974  -0.636  -0.058  0.00  0.00    -0.175 NA
ATOM      2  C   UNL     1       7.124  -0.001  -0.066  0.00  0.00    +0.153 C 
ATOM      3  C   UNL     1       8.481  -0.593  -0.087  0.00  0.00    +0.028 A 
ATOM      4  C   UNL     1       8.949  -1.902  -0.105  0.00  0.00    +0.012 A 
ATOM      5  C   UNL     1      10.308  -2.143  -0.123  0.00  0.00    +0.001 A 
ATOM      6  C   UNL     1      11.201  -1.085  -0.124  0.00  0.00    +0.002 A 
ATOM      7  C   UNL     1      10.746   0.218  -0.106  0.00  0.00    +0.024 A 
ATOM      8  C   UNL     1       9.381   0.481  -0.088  0.00  0.00    +0.046 A 
ATOM      9  N   UNL     1       8.669   1.675  -0.069  0.00  0.00    -0.261 N 
ATOM     10  C   UNL     1       7.343   1.456  -0.061  0.00  0.00    +0.272 C 
ATOM     11  O   UNL     1       6.477   2.311  -0.050  0.00  0.00    -0.268 OA
ENDROOT
BRANCH   1  12
ATOM     12  N   UNL     1       4.869   0.030  -0.044  0.00  0.00    -0.218 N 
ATOM     13  H   UNL     1       4.887   1.000  -0.040  0.00  0.00    +0.176 HD
BRANCH  12  23
ATOM     14  C   UNL     1      -0.016   1.359   0.009  0.00  0.00    +0.001 A 
ATOM     15  C   UNL     1       1.167   2.094   0.002  0.00  0.00    +0.001 A 
ATOM     16  C   UNL     1       2.381   1.473  -0.013  0.00  0.00    +0.012 A 
ATOM     17  C   UNL     1       2.437   0.075  -0.021  0.00  0.00    +0.027 A 
ATOM     18  C   UNL     1       1.232  -0.675  -0.013  0.00  0.00    +0.005 A 
ATOM     19  C   UNL     1       0.002  -0.004   0.002  0.00  0.00    +0.010 A 
ATOM     20  C   UNL     1       1.334  -2.078  -0.021  0.00  0.00    +0.143 A 
ATOM     21  N   UNL     1       2.525  -2.632  -0.035  0.00  0.00    -0.155 NA
ATOM     22  N   UNL     1       3.616  -1.962  -0.042  0.00  0.00    -0.132 NA
ATOM     23  C   UNL     1       3.656  -0.641  -0.036  0.00  0.00    +0.168 A 
ENDBRANCH  12  23
ENDBRANCH   1  12
BRANCH   9  24
ATOM     24  C   UNL     1       9.287   3.003  -0.064  0.00  0.00    +0.150 C 
BRANCH  24  25
ATOM     25  C   UNL     1       9.482   3.472  -1.483  0.00  0.00    -0.011 A 
ATOM     26  C   UNL     1      10.722   3.362  -2.083  0.00  0.00    +0.006 A 
ATOM     27  C   UNL     1      10.901   3.792  -3.385  0.00  0.00    +0.000 A 
ATOM     28  C   UNL     1       9.839   4.332  -4.087  0.00  0.00    +0.001 A 
ATOM     29  C   UNL     1       8.599   4.442  -3.488  0.00  0.00    +0.020 A 
ATOM     30  C   UNL     1       8.418   4.007  -2.187  0.00  0.00    +0.046 A 
ATOM     31 CL   UNL     1       6.858   4.139  -1.436  0.00  0.00    -0.083 Cl
ENDBRANCH  24  25
ENDBRANCH   9  24
TORSDOF 4
