REMARK  Name = ZINC39413708
REMARK  7 active torsions:
REMARK  status: ('A' for Active; 'I' for Inactive)
REMARK    1  A    between atoms: C_1  and  C_2
REMARK    2  A    between atoms: N_14  and  N_15
REMARK    3  A    between atoms: C_22  and  C_39
REMARK    4  A    between atoms: C_25  and  O_28
REMARK    5  A    between atoms: O_28  and  C_29
REMARK    6  A    between atoms: C_29  and  C_31
REMARK    7  A    between atoms: C_32  and  C_33
REMARK                            x       y       z     vdW  Elec       q    Type
REMARK                         _______ _______ _______ _____ _____    ______ ____
ROOT
ATOM      1  C   UNL     1      -0.019   1.522   0.010  0.00  0.00    +0.018 C 
ATOM      2  C   UNL     1       0.002  -0.004   0.002  0.00  0.00    +0.011 C 
ATOM      3  C   UNL     1      -1.401  -0.551   0.025  0.00  0.00    +0.013 C 
ATOM      4  C   UNL     1      -2.026  -0.303   1.414  0.00  0.00    +0.005 C 
ATOM      5  C   UNL     1      -1.200  -0.966   2.501  0.00  0.00    +0.003 C 
ATOM      6  C   UNL     1       0.244  -0.425   2.508  0.00  0.00    +0.001 C 
ATOM      7  C   UNL     1       0.830  -0.620   1.145  0.00  0.00    +0.005 C 
ATOM      8  C   UNL     1       2.222  -0.049   0.845  0.00  0.00    +0.010 C 
ATOM      9  C   UNL     1       2.289  -0.180  -0.706  0.00  0.00    +0.053 C 
ATOM     10  C   UNL     1       0.858  -0.407  -1.186  0.00  0.00    +0.043 C 
ATOM     11  N   UNL     1       0.456  -0.830  -2.315  0.00  0.00    -0.187 NA
ATOM     12  C   UNL     1       0.220   1.018   2.997  0.00  0.00    +0.031 C 
ATOM     13  C   UNL     1      -0.355   1.028   4.392  0.00  0.00    -0.027 C 
ATOM     14  C   UNL     1      -1.248   0.167   4.768  0.00  0.00    -0.064 C 
ATOM     15  C   UNL     1      -1.801  -0.922   3.887  0.00  0.00    -0.008 C 
ATOM     16  C   UNL     1      -1.575  -2.264   4.601  0.00  0.00    +0.015 C 
ATOM     17  C   UNL     1      -0.815  -2.039   5.906  0.00  0.00    +0.046 C 
ATOM     18  C   UNL     1      -1.591  -1.120   6.846  0.00  0.00    +0.181 C 
ATOM     19  C   UNL     1      -1.784   0.251   6.188  0.00  0.00    +0.075 C 
ATOM     20  C   UNL     1      -3.315  -0.720   3.793  0.00  0.00    +0.016 C 
ENDROOT
BRANCH  11  21
ATOM     21  N   UNL     1       1.385  -1.160  -3.310  0.00  0.00    -0.191 N 
ATOM     22  C   UNL     1       0.959  -1.609  -4.508  0.00  0.00    +0.317 C 
ATOM     23  O   UNL     1       1.765  -1.895  -5.371  0.00  0.00    -0.251 OA
ATOM     24  N   UNL     1      -0.361  -1.740  -4.747  0.00  0.00    -0.312 N 
ATOM     25  H   UNL     1       2.335  -1.065  -3.138  0.00  0.00    +0.179 HD
ATOM     26  H   UNL     1      -1.004  -1.511  -4.058  0.00  0.00    +0.147 HD
ATOM     27  H   UNL     1      -0.667  -2.063  -5.609  0.00  0.00    +0.147 HD
ENDBRANCH  11  21
BRANCH  18  28
ATOM     28  O   UNL     1      -2.866  -1.698   7.137  0.00  0.00    -0.458 OA
BRANCH  28  29
ATOM     29  C   UNL     1      -3.407  -1.415   8.341  0.00  0.00    +0.332 C 
ATOM     30  O   UNL     1      -2.811  -0.697   9.121  0.00  0.00    -0.246 OA
BRANCH  29  31
ATOM     31  C   UNL     1      -4.708  -1.972   8.706  0.00  0.00    +0.092 C 
ATOM     32  C   UNL     1      -5.249  -1.689   9.910  0.00  0.00    +0.015 C 
BRANCH  32  33
ATOM     33  C   UNL     1      -6.559  -2.250  10.278  0.00  0.00    -0.025 A 
ATOM     34  C   UNL     1      -7.244  -3.081   9.386  0.00  0.00    +0.008 A 
ATOM     35  C   UNL     1      -8.471  -3.602   9.738  0.00  0.00    +0.001 A 
ATOM     36  C   UNL     1      -9.025  -3.305  10.971  0.00  0.00    +0.000 A 
ATOM     37  C   UNL     1      -8.353  -2.483  11.860  0.00  0.00    +0.001 A 
ATOM     38  C   UNL     1      -7.123  -1.959  11.524  0.00  0.00    +0.008 A 
ENDBRANCH  32  33
ENDBRANCH  29  31
ENDBRANCH  28  29
ENDBRANCH  18  28
TORSDOF 5
