REMARK  Name = ZINC19227788
REMARK  13 active torsions:
REMARK  status: ('A' for Active; 'I' for Inactive)
REMARK    1  A    between atoms: C_1  and  C_2
REMARK    2  A    between atoms: C_2  and  C_3
REMARK    3  A    between atoms: C_2  and  N_4
REMARK    4  A    between atoms: C_7  and  N_10
REMARK    5  A    between atoms: N_13  and  C_20
REMARK    6  A    between atoms: C_15  and  C_17
REMARK    7  A    between atoms: C_17  and  C_18
REMARK    8  A    between atoms: C_18  and  O_19
REMARK    9  A    between atoms: C_20  and  C_21
REMARK   10  A    between atoms: C_25  and  O_29
REMARK   11  A    between atoms: C_26  and  O_27
REMARK   12  A    between atoms: O_27  and  C_28
REMARK   13  A    between atoms: O_29  and  C_30
REMARK                            x       y       z     vdW  Elec       q    Type
REMARK                         _______ _______ _______ _____ _____    ______ ____
ROOT
ATOM      1  N   UNL     1       0.545   6.287   7.174  0.00  0.00    -0.300 NA
ATOM      2  C   UNL     1       1.104   5.324   6.214  0.00  0.00    +0.066 C 
ATOM      3  C   UNL     1       0.210   5.269   4.973  0.00  0.00    -0.063 C 
ATOM      4  N   UNL     1      -1.151   4.884   5.369  0.00  0.00    +0.384 N 
ATOM      5  C   UNL     1      -1.710   5.846   6.329  0.00  0.00    -0.059 C 
ATOM      6  C   UNL     1      -0.816   5.902   7.570  0.00  0.00    +0.042 C 
ATOM      7  H   UNL     1      -1.096   3.903   5.865  0.00  0.00    -0.081 HD
ENDROOT
BRANCH   1  11
ATOM      8  N   UNL     1       3.881   5.763   9.700  0.00  0.00    +0.381 N 
ATOM      9  C   UNL     1       2.610   5.190  10.161  0.00  0.00    -0.077 C 
ATOM     10  C   UNL     1       1.653   5.048   8.975  0.00  0.00    +0.000 C 
ATOM     11  C   UNL     1       1.417   6.426   8.348  0.00  0.00    +0.053 C 
ATOM     12  C   UNL     1       2.760   7.022   7.922  0.00  0.00    +0.000 C 
ATOM     13  C   UNL     1       3.685   7.106   9.138  0.00  0.00    -0.077 C 
ATOM     14  H   UNL     1       4.269   5.117   8.899  0.00  0.00    -0.081 HD
BRANCH   8  16
ATOM     15  C   UNL     1       6.215   6.271  10.238  0.00  0.00    -0.014 C 
ATOM     16  C   UNL     1       4.872   5.786  10.785  0.00  0.00    -0.075 C 
ATOM     17  C   UNL     1       4.398   6.734  11.889  0.00  0.00    -0.014 C 
ENDBRANCH   8  16
ENDBRANCH   1  11
BRANCH   6  18
ATOM     18  C   UNL     1      -1.373   6.934   8.554  0.00  0.00    +0.045 C 
BRANCH  18  19
ATOM     19  C   UNL     1      -2.761   6.494   9.023  0.00  0.00    +0.157 C 
BRANCH  19  20
ATOM     20  O   UNL     1      -3.230   7.393  10.030  0.00  0.00    -0.395 OA
ATOM     21  H   UNL     1      -4.217   7.237  10.490  0.00  0.00    +0.209 HD
ENDBRANCH  19  20
ENDBRANCH  18  19
ENDBRANCH   6  18
BRANCH   4  22
ATOM     22  C   UNL     1      -2.022   4.745   4.195  0.00  0.00    -0.039 C 
BRANCH  22  23
ATOM     23  C   UNL     1      -1.310   3.949   3.132  0.00  0.00    -0.017 A 
ATOM     24  C   UNL     1      -0.703   4.598   2.072  0.00  0.00    +0.025 A 
ATOM     25  C   UNL     1      -0.049   3.870   1.095  0.00  0.00    +0.045 A 
ATOM     26  C   UNL     1      -0.000   2.490   1.173  0.00  0.00    +0.069 A 
ATOM     27  C   UNL     1      -0.606   1.834   2.233  0.00  0.00    +0.163 A 
ATOM     28  C   UNL     1      -1.268   2.567   3.214  0.00  0.00    +0.163 A 
ATOM     29 CL   UNL     1       0.710   4.690  -0.234  0.00  0.00    -0.083 Cl
BRANCH  28  30
ATOM     30  O   UNL     1      -1.868   1.927   4.253  0.00  0.00    -0.491 OA
ATOM     31  C   UNL     1      -1.075   1.699   5.420  0.00  0.00    +0.277 C 
ENDBRANCH  28  30
BRANCH  27  32
ATOM     32  O   UNL     1      -0.559   0.477   2.311  0.00  0.00    -0.491 OA
ATOM     33  C   UNL     1       0.133  -0.209   1.266  0.00  0.00    +0.277 C 
ENDBRANCH  27  32
ENDBRANCH  22  23
ENDBRANCH   4  22
TORSDOF 9
