REMARK  Name = ZINC12907371
REMARK  5 active torsions:
REMARK  status: ('A' for Active; 'I' for Inactive)
REMARK    1  A    between atoms: C_1  and  C_2
REMARK    2  A    between atoms: N_15  and  C_16
REMARK    3  A    between atoms: C_16  and  C_18
REMARK    4  A    between atoms: C_16  and  C_19
REMARK    5  A    between atoms: C_24  and  O_25
REMARK                            x       y       z     vdW  Elec       q    Type
REMARK                         _______ _______ _______ _____ _____    ______ ____
ROOT
ATOM      1  C   UNL     1       4.404  -3.392   4.413  0.00  0.00    +0.069 C 
ATOM      2  C   UNL     1       4.087  -2.323   3.398  0.00  0.00    +0.081 A 
ATOM      3  C   UNL     1       2.813  -1.952   2.986  0.00  0.00    +0.108 A 
ATOM      4  C   UNL     1       2.951  -0.938   2.047  0.00  0.00    +0.177 A 
ATOM      5  N   UNL     1       2.033  -0.239   1.355  0.00  0.00    -0.211 NA
ATOM      6  C   UNL     1       2.372   0.695   0.493  0.00  0.00    +0.131 A 
ATOM      7  C   UNL     1       3.797   0.992   0.289  0.00  0.00    +0.040 A 
ATOM      8  C   UNL     1       4.222   1.974  -0.606  0.00  0.00    +0.013 A 
ATOM      9  C   UNL     1       5.559   2.213  -0.762  0.00  0.00    +0.001 A 
ATOM     10  C   UNL     1       6.496   1.490  -0.039  0.00  0.00    +0.002 A 
ATOM     11  C   UNL     1       6.097   0.515   0.852  0.00  0.00    +0.028 A 
ATOM     12  C   UNL     1       4.744   0.256   1.024  0.00  0.00    +0.078 A 
ATOM     13  N   UNL     1       4.293  -0.712   1.905  0.00  0.00    -0.212 N 
ATOM     14  N   UNL     1       4.969  -1.591   2.760  0.00  0.00    -0.168 NA
ATOM     15  N   UNL     1       1.404   1.391  -0.204  0.00  0.00    -0.322 N 
ATOM     16 CL   UNL     1       1.317  -2.632   3.546  0.00  0.00    -0.078 Cl
ATOM     17  H   UNL     1       1.663   2.081  -0.835  0.00  0.00    +0.148 HD
ENDROOT
BRANCH  15  18
ATOM     18  C   UNL     1      -0.013   1.086   0.008  0.00  0.00    +0.102 C 
ATOM     19  C   UNL     1      -0.853   2.325  -0.304  0.00  0.00    +0.033 C 
BRANCH  18  20
ATOM     20  C   UNL     1      -0.425  -0.043  -0.901  0.00  0.00    +0.014 A 
ATOM     21  C   UNL     1       0.303  -0.311  -2.044  0.00  0.00    +0.009 A 
ATOM     22  C   UNL     1      -0.075  -1.347  -2.879  0.00  0.00    +0.001 A 
ATOM     23  C   UNL     1      -1.182  -2.117  -2.571  0.00  0.00    +0.004 A 
ATOM     24  C   UNL     1      -1.913  -1.853  -1.430  0.00  0.00    +0.046 A 
ATOM     25  C   UNL     1      -1.533  -0.817  -0.588  0.00  0.00    +0.122 A 
BRANCH  25  26
ATOM     26  O   UNL     1      -2.247  -0.559   0.539  0.00  0.00    -0.506 OA
ATOM     27  H   UNL     1      -2.970   0.070   0.411  0.00  0.00    +0.292 HD
ENDBRANCH  25  26
ENDBRANCH  18  20
ENDBRANCH  15  18
TORSDOF 3
