REMARK  Name = ZINC20176038
REMARK  10 active torsions:
REMARK  status: ('A' for Active; 'I' for Inactive)
REMARK    1  A    between atoms: C_1  and  C_2
REMARK    2  A    between atoms: C_2  and  O_3
REMARK    3  A    between atoms: O_3  and  C_4
REMARK    4  A    between atoms: C_6  and  C_19
REMARK    5  A    between atoms: C_9  and  O_10
REMARK    6  A    between atoms: O_10  and  C_11
REMARK    7  A    between atoms: C_11  and  C_12
REMARK    8  A    between atoms: C_22  and  C_33
REMARK    9  A    between atoms: C_28  and  N_32
REMARK   10  A    between atoms: C_29  and  C_30
REMARK                            x       y       z     vdW  Elec       q    Type
REMARK                         _______ _______ _______ _____ _____    ______ ____
ROOT
ATOM      1  C   UNL     1      -0.273  -4.991  -0.649  0.00  0.00    +0.102 C 
ATOM      2  C   UNL     1      -1.173  -5.957   0.077  0.00  0.00    +0.054 A 
ATOM      3  C   UNL     1      -2.418  -5.731   0.672  0.00  0.00    +0.100 A 
ATOM      4  N   UNL     1      -2.833  -6.871   1.190  0.00  0.00    -0.171 NA
ATOM      5  N   UNL     1      -1.862  -7.852   0.938  0.00  0.00    -0.246 N 
ATOM      6  H   UNL     1      -1.908  -8.783   1.207  0.00  0.00    +0.192 HD
ATOM      7  C   UNL     1      -0.853  -7.272   0.254  0.00  0.00    +0.223 A 
ATOM      8  O   UNL     1       0.299  -7.815  -0.212  0.00  0.00    -0.423 OA
ATOM      9  C   UNL     1       1.014  -7.094  -1.100  0.00  0.00    +0.200 C 
ATOM     10  C   UNL     1       0.800  -5.783  -1.353  0.00  0.00    +0.098 C 
ENDROOT
BRANCH   1  13
ATOM     11  C   UNL     1       0.801  -1.808   1.080  0.00  0.00    +0.162 A 
ATOM     12  C   UNL     1       0.220  -2.679   0.173  0.00  0.00    +0.054 A 
ATOM     13  C   UNL     1       0.359  -4.045   0.339  0.00  0.00    -0.031 A 
ATOM     14  C   UNL     1       1.077  -4.544   1.410  0.00  0.00    +0.008 A 
ATOM     15  C   UNL     1       1.659  -3.680   2.319  0.00  0.00    +0.050 A 
ATOM     16  C   UNL     1       1.528  -2.311   2.155  0.00  0.00    +0.162 A 
BRANCH  11  17
ATOM     17  O   UNL     1       0.665  -0.465   0.918  0.00  0.00    -0.489 OA
BRANCH  17  19
ATOM     18  C   UNL     1      -0.137   1.508  -0.224  0.00  0.00    +0.048 C 
ATOM     19  C   UNL     1      -0.095  -0.021  -0.208  0.00  0.00    +0.226 C 
ENDBRANCH  17  19
ENDBRANCH  11  17
BRANCH  16  20
ATOM     20  O   UNL     1       2.105  -1.460   3.045  0.00  0.00    -0.484 OA
BRANCH  20  21
ATOM     21  C   UNL     1       2.836  -2.046   4.123  0.00  0.00    +0.267 C 
BRANCH  21  22
ATOM     22  C   UNL     1       3.399  -0.957   5.000  0.00  0.00    +0.025 A 
ATOM     23  C   UNL     1       3.161   0.369   4.693  0.00  0.00    +0.010 A 
ATOM     24  C   UNL     1       3.677   1.368   5.497  0.00  0.00    +0.001 A 
ATOM     25  C   UNL     1       4.432   1.042   6.609  0.00  0.00    +0.003 A 
ATOM     26  C   UNL     1       4.671  -0.283   6.917  0.00  0.00    +0.039 A 
ATOM     27  C   UNL     1       4.150  -1.285   6.115  0.00  0.00    +0.130 A 
ATOM     28  F   UNL     1       4.380  -2.582   6.419  0.00  0.00    -0.205 F 
ENDBRANCH  21  22
ENDBRANCH  20  21
ENDBRANCH  16  20
ENDBRANCH   1  13
BRANCH   3  29
ATOM     29  C   UNL     1      -3.143  -4.437   0.714  0.00  0.00    +0.003 A 
ATOM     30  C   UNL     1      -3.780  -4.030   1.884  0.00  0.00    +0.010 A 
ATOM     31  C   UNL     1      -4.454  -2.825   1.917  0.00  0.00    +0.001 A 
ATOM     32  C   UNL     1      -4.497  -2.023   0.791  0.00  0.00    +0.000 A 
ATOM     33  C   UNL     1      -3.866  -2.422  -0.374  0.00  0.00    +0.001 A 
ATOM     34  C   UNL     1      -3.185  -3.622  -0.416  0.00  0.00    +0.010 A 
ENDBRANCH   3  29
BRANCH   9  35
ATOM     35  N   UNL     1       2.018  -7.729  -1.788  0.00  0.00    -0.328 N 
ATOM     36  H   UNL     1       2.196  -8.669  -1.629  0.00  0.00    +0.145 HD
ATOM     37  H   UNL     1       2.550  -7.237  -2.433  0.00  0.00    +0.145 HD
ENDBRANCH   9  35
BRANCH  10  38
ATOM     38  C   UNL     1       1.620  -5.123  -2.323  0.00  0.00    +0.101 C 
ATOM     39  N   UNL     1       2.271  -4.599  -3.093  0.00  0.00    -0.191 NA
ENDBRANCH  10  38
TORSDOF 9
