REMARK  Name = ZINC63600707
REMARK  7 active torsions:
REMARK  status: ('A' for Active; 'I' for Inactive)
REMARK    1  A    between atoms: C_1  and  C_2
REMARK    2  A    between atoms: C_2  and  N_3
REMARK    3  A    between atoms: C_11  and  C_13
REMARK    4  A    between atoms: C_13  and  C_14
REMARK    5  A    between atoms: C_14  and  C_15
REMARK    6  A    between atoms: C_18  and  N_21
REMARK    7  A    between atoms: C_22  and  C_24
REMARK                            x       y       z     vdW  Elec       q    Type
REMARK                         _______ _______ _______ _____ _____    ______ ____
ROOT
ATOM      1  C   UNL     1      -1.785   1.353   5.043  0.00  0.00    -0.047 A 
ATOM      2  C   UNL     1      -1.102   2.109   5.977  0.00  0.00    +0.005 A 
ATOM      3  C   UNL     1      -1.683   3.244   6.508  0.00  0.00    +0.023 A 
ATOM      4  C   UNL     1      -2.955   3.626   6.101  0.00  0.00    +0.033 A 
ATOM      5  C   UNL     1      -3.638   2.865   5.162  0.00  0.00    +0.023 A 
ATOM      6  C   UNL     1      -3.050   1.733   4.631  0.00  0.00    +0.005 A 
ENDROOT
BRANCH   4   7
ATOM      7  N   UNL     1      -3.547   4.775   6.637  0.00  0.00    -0.284 N 
ATOM      8  C   UNL     1      -2.783   5.833   6.971  0.00  0.00    +0.244 C 
ATOM      9  O   UNL     1      -1.596   5.828   6.719  0.00  0.00    -0.273 OA
ATOM     10  H   UNL     1      -4.507   4.810   6.768  0.00  0.00    +0.155 HD
BRANCH   8  11
ATOM     11  C   UNL     1      -3.402   7.024   7.656  0.00  0.00    +0.190 C 
ATOM     12  C   UNL     1      -4.438   7.662   6.758  0.00  0.00    +0.016 C 
ATOM     13  C   UNL     1      -4.013   8.927   6.535  0.00  0.00    -0.004 A 
ATOM     14  C   UNL     1      -4.567  10.040   5.755  0.00  0.00    +0.010 A 
ATOM     15  C   UNL     1      -3.898  11.214   5.721  0.00  0.00    +0.001 A 
ATOM     16  C   UNL     1      -2.691  11.395   6.409  0.00  0.00    +0.002 A 
ATOM     17  C   UNL     1      -2.119  10.420   7.147  0.00  0.00    +0.026 A 
ATOM     18  C   UNL     1      -2.736   9.143   7.254  0.00  0.00    +0.043 A 
ATOM     19  N   UNL     1      -2.386   8.054   7.897  0.00  0.00    -0.370 N 
ATOM     20  H   UNL     1      -1.589   7.948   8.440  0.00  0.00    +0.161 HD
ENDBRANCH   8  11
ENDBRANCH   4   7
BRANCH   1  21
ATOM     21  C   UNL     1      -1.148   0.115   4.466  0.00  0.00    +0.038 C 
BRANCH  21  22
ATOM     22  C   UNL     1      -0.350   0.487   3.214  0.00  0.00    +0.047 C 
BRANCH  22  31
ATOM     23  N   UNL     1       1.066  -0.430   1.426  0.00  0.00    -0.310 N 
ATOM     24  C   UNL     1       2.403  -0.770   1.676  0.00  0.00    +0.052 A 
ATOM     25  C   UNL     1       3.530  -0.649   0.873  0.00  0.00    +0.025 A 
ATOM     26  C   UNL     1       4.763  -1.060   1.341  0.00  0.00    +0.002 A 
ATOM     27  C   UNL     1       4.881  -1.594   2.611  0.00  0.00    +0.002 A 
ATOM     28  C   UNL     1       3.766  -1.718   3.417  0.00  0.00    +0.025 A 
ATOM     29  C   UNL     1       2.521  -1.307   2.955  0.00  0.00    +0.050 A 
ATOM     30  N   UNL     1       1.266  -1.333   3.577  0.00  0.00    -0.324 N 
ATOM     31  C   UNL     1       0.296  -0.769   2.629  0.00  0.00    +0.159 C 
ATOM     32  H   UNL     1       1.073  -1.659   4.470  0.00  0.00    +0.148 HD
BRANCH  23  34
ATOM     33  C   UNL     1       0.596   1.687   0.295  0.00  0.00    +0.024 C 
ATOM     34  C   UNL     1       0.537   0.162   0.195  0.00  0.00    +0.103 C 
ENDBRANCH  23  34
ENDBRANCH  22  31
ENDBRANCH  21  22
ENDBRANCH   1  21
TORSDOF 6
