REMARK  Name = ZINC33789872
REMARK  8 active torsions:
REMARK  status: ('A' for Active; 'I' for Inactive)
REMARK    1  A    between atoms: C_4  and  C_7
REMARK    2  A    between atoms: C_10  and  C_36
REMARK    3  A    between atoms: C_11  and  S_13
REMARK    4  A    between atoms: S_13  and  C_14
REMARK    5  A    between atoms: C_14  and  C_15
REMARK    6  A    between atoms: C_22  and  N_35
REMARK    7  A    between atoms: C_23  and  C_33
REMARK    8  A    between atoms: C_24  and  C_26
REMARK                            x       y       z     vdW  Elec       q    Type
REMARK                         _______ _______ _______ _____ _____    ______ ____
ROOT
ATOM      1  C   UNL     1       8.058   3.028  -0.035  0.00  0.00    +0.081 A 
ATOM      2  C   UNL     1       8.705   3.524   1.089  0.00  0.00    +0.050 A 
ATOM      3  C   UNL     1       9.714   4.345   0.669  0.00  0.00    +0.223 A 
ATOM      4  N   UNL     1       9.695   4.357  -0.673  0.00  0.00    -0.246 N 
ATOM      5  H   UNL     1      10.299   4.854  -1.248  0.00  0.00    +0.192 HD
ATOM      6  N   UNL     1       8.651   3.520  -1.096  0.00  0.00    -0.175 NA
ATOM      7  O   UNL     1      10.538   4.992   1.531  0.00  0.00    -0.423 OA
ATOM      8  C   UNL     1      10.177   5.031   2.830  0.00  0.00    +0.200 C 
ATOM      9  C   UNL     1       9.204   4.260   3.364  0.00  0.00    +0.098 C 
ATOM     10  C   UNL     1       8.422   3.263   2.546  0.00  0.00    +0.101 C 
ENDROOT
BRANCH  10  11
ATOM     11  C   UNL     1       8.850   1.863   2.904  0.00  0.00    -0.034 A 
ATOM     12  C   UNL     1      10.172   1.485   2.756  0.00  0.00    +0.007 A 
ATOM     13  C   UNL     1      10.565   0.202   3.085  0.00  0.00    +0.038 A 
ATOM     14  C   UNL     1       9.635  -0.706   3.563  0.00  0.00    +0.123 A 
ATOM     15  C   UNL     1       8.312  -0.327   3.710  0.00  0.00    +0.038 A 
ATOM     16  C   UNL     1       7.921   0.959   3.386  0.00  0.00    +0.007 A 
ATOM     17  F   UNL     1      10.019  -1.961   3.884  0.00  0.00    -0.205 F 
ENDBRANCH  10  11
BRANCH   8  18
ATOM     18  N   UNL     1      10.836   5.906   3.657  0.00  0.00    -0.328 N 
ATOM     19  H   UNL     1      11.539   6.473   3.303  0.00  0.00    +0.145 HD
ATOM     20  H   UNL     1      10.598   5.957   4.596  0.00  0.00    +0.145 HD
ENDBRANCH   8  18
BRANCH   9  21
ATOM     21  C   UNL     1       8.905   4.395   4.758  0.00  0.00    +0.101 C 
ATOM     22  N   UNL     1       8.668   4.501   5.864  0.00  0.00    -0.191 NA
ENDBRANCH   9  21
BRANCH   1  23
ATOM     23  C   UNL     1       6.883   2.084  -0.035  0.00  0.00    +0.133 C 
BRANCH  23  24
ATOM     24  S   UNL     1       7.482   0.372  -0.056  0.00  0.00    -0.098 S 
BRANCH  24  29
ATOM     25  C   UNL     1       3.698  -0.688  -0.037  0.00  0.00    +0.072 A 
ATOM     26  C   UNL     1       3.708  -2.082  -0.051  0.00  0.00    +0.030 A 
ATOM     27  C   UNL     1       4.915  -2.752  -0.066  0.00  0.00    +0.023 A 
ATOM     28  C   UNL     1       6.096  -1.999  -0.068  0.00  0.00    +0.084 A 
ATOM     29  C   UNL     1       6.010  -0.595  -0.054  0.00  0.00    +0.115 A 
ATOM     30  N   UNL     1       4.830   0.004  -0.045  0.00  0.00    -0.239 NA
BRANCH  25  34
ATOM     31  C   UNL     1      -0.017   1.379   0.010  0.00  0.00    +0.000 A 
ATOM     32  C   UNL     1       1.169   2.092   0.002  0.00  0.00    +0.001 A 
ATOM     33  C   UNL     1       2.377   1.427  -0.013  0.00  0.00    +0.010 A 
ATOM     34  C   UNL     1       2.403   0.033  -0.021  0.00  0.00    +0.000 A 
ATOM     35  C   UNL     1       1.205  -0.680  -0.013  0.00  0.00    +0.010 A 
ATOM     36  C   UNL     1       0.002  -0.004   0.002  0.00  0.00    +0.001 A 
ENDBRANCH  25  34
BRANCH  28  37
ATOM     37  C   UNL     1       7.373  -2.649  -0.084  0.00  0.00    +0.102 C 
ATOM     38  N   UNL     1       8.385  -3.164  -0.096  0.00  0.00    -0.191 NA
ENDBRANCH  28  37
ENDBRANCH  24  29
ENDBRANCH  23  24
ENDBRANCH   1  23
TORSDOF 8
