REMARK  Name = ZINC43917087
REMARK  6 active torsions:
REMARK  status: ('A' for Active; 'I' for Inactive)
REMARK    1  A    between atoms: C_1  and  C_2
REMARK    2  A    between atoms: C_2  and  N_3
REMARK    3  A    between atoms: N_3  and  C_4
REMARK    4  A    between atoms: C_10  and  N_12
REMARK    5  A    between atoms: C_17  and  C_18
REMARK    6  A    between atoms: C_17  and  C_19
REMARK                            x       y       z     vdW  Elec       q    Type
REMARK                         _______ _______ _______ _____ _____    ______ ____
ROOT
ATOM      1  C   UNL     1       1.292  -1.369  -0.704  0.00  0.00    -0.054 C 
ATOM      2  C   UNL     1      -0.130  -1.850  -0.409  0.00  0.00    -0.009 C 
ATOM      3  C   UNL     1      -0.110  -3.350  -0.108  0.00  0.00    +0.063 C 
ATOM      4  C   UNL     1       0.448  -4.104  -1.317  0.00  0.00    +0.171 C 
ATOM      5  C   UNL     1       1.869  -3.622  -1.618  0.00  0.00    +0.082 C 
ATOM      6  C   UNL     1       1.844  -2.122  -1.917  0.00  0.00    +0.048 C 
ATOM      7  O   UNL     1      -0.390  -3.862  -2.459  0.00  0.00    -0.346 OA
ATOM      8  C   UNL     1      -0.389  -5.113  -3.189  0.00  0.00    +0.191 C 
ATOM      9  C   UNL     1      -0.361  -6.149  -2.038  0.00  0.00    +0.191 C 
ATOM     10  O   UNL     1       0.464  -5.511  -1.043  0.00  0.00    -0.346 OA
ENDROOT
BRANCH   6  11
ATOM     11  N   UNL     1       3.208  -1.657  -2.201  0.00  0.00    -0.291 NA
ATOM     12  C   UNL     1       4.186  -2.333  -1.337  0.00  0.00    +0.113 C 
ATOM     13  C   UNL     1       5.584  -1.778  -1.624  0.00  0.00    +0.175 C 
ATOM     14  O   UNL     1       5.881  -1.945  -3.013  0.00  0.00    -0.377 OA
ATOM     15  C   UNL     1       4.949  -1.299  -3.884  0.00  0.00    +0.181 C 
ATOM     16  C   UNL     1       3.545  -1.849  -3.619  0.00  0.00    +0.040 C 
ATOM     17  C   UNL     1       3.510  -3.342  -3.954  0.00  0.00    +0.030 C 
ATOM     18  C   UNL     1       2.532  -1.105  -4.491  0.00  0.00    +0.030 C 
ENDBRANCH   6  11
BRANCH   1  19
ATOM     19  N   UNL     1       1.272   0.071  -0.989  0.00  0.00    +0.382 N 
ATOM     20  H   UNL     1       0.621   0.257  -1.737  0.00  0.00    -0.085 HD
ATOM     21  H   UNL     1       2.195   0.373  -1.264  0.00  0.00    -0.085 HD
BRANCH  19  23
ATOM     22  C   UNL     1       0.835   2.304  -0.082  0.00  0.00    -0.017 C 
ATOM     23  C   UNL     1       0.856   0.803   0.215  0.00  0.00    -0.086 C 
ENDBRANCH  19  23
ENDBRANCH   1  19
TORSDOF 3
