REMARK  Name = ZINC67428292
REMARK  4 active torsions:
REMARK  status: ('A' for Active; 'I' for Inactive)
REMARK    1  A    between atoms: C_9  and  S_11
REMARK    2  A    between atoms: S_11  and  C_12
REMARK    3  A    between atoms: N_16  and  C_19
REMARK    4  A    between atoms: C_23  and  N_25
REMARK                            x       y       z     vdW  Elec       q    Type
REMARK                         _______ _______ _______ _____ _____    ______ ____
ROOT
ATOM      1  C   UNL     1       5.602  -2.978  -0.067  0.00  0.00    +0.142 C 
ATOM      2  C   UNL     1       6.577  -4.175  -0.162  0.00  0.00    +0.043 C 
ATOM      3  C   UNL     1       6.896  -4.440   1.326  0.00  0.00    +0.115 C 
ATOM      4  N   UNL     1       6.678  -3.159   2.007  0.00  0.00    -0.270 N 
ATOM      5  C   UNL     1       5.949  -2.317   1.248  0.00  0.00    +0.233 C 
ATOM      6  O   UNL     1       5.618  -1.196   1.571  0.00  0.00    -0.274 OA
ENDROOT
BRANCH   4   7
ATOM      7  C   UNL     1       7.167  -2.849   3.281  0.00  0.00    +0.038 A 
ATOM      8  C   UNL     1       7.917  -3.782   3.985  0.00  0.00    +0.023 A 
ATOM      9  C   UNL     1       8.398  -3.473   5.242  0.00  0.00    +0.004 A 
ATOM     10  C   UNL     1       8.133  -2.236   5.801  0.00  0.00    +0.033 A 
ATOM     11  C   UNL     1       7.386  -1.305   5.103  0.00  0.00    +0.128 A 
ATOM     12  C   UNL     1       6.907  -1.605   3.843  0.00  0.00    +0.056 A 
BRANCH  11  13
ATOM     13  N   UNL     1       7.105   0.018   5.704  0.00  0.00    +0.056 N 
ATOM     14  O   UNL     1       7.528   0.284   6.805  0.00  0.00    -0.126 OA
ATOM     15  O   UNL     1       6.452   0.833   5.095  0.00  0.00    -0.126 OA
ENDBRANCH  11  13
ENDBRANCH   4   7
BRANCH   1  16
ATOM     16  S   UNL     1       3.883  -3.559  -0.053  0.00  0.00    -0.075 S 
BRANCH  16  25
ATOM     17  C   UNL     1      -0.017   1.375   0.010  0.00  0.00    +0.002 A 
ATOM     18  C   UNL     1       1.170   2.094   0.002  0.00  0.00    +0.002 A 
ATOM     19  C   UNL     1       2.382   1.442  -0.013  0.00  0.00    +0.030 A 
ATOM     20  C   UNL     1       2.418   0.045  -0.021  0.00  0.00    +0.090 A 
ATOM     21  C   UNL     1       1.214  -0.678  -0.013  0.00  0.00    +0.067 A 
ATOM     22  C   UNL     1       0.002  -0.004   0.002  0.00  0.00    +0.028 A 
ATOM     23  N   UNL     1       1.568  -2.017  -0.024  0.00  0.00    -0.333 N 
ATOM     24  H   UNL     1       0.960  -2.773  -0.022  0.00  0.00    +0.168 HD
ATOM     25  C   UNL     1       2.933  -2.075  -0.037  0.00  0.00    +0.168 A 
ATOM     26  N   UNL     1       3.429  -0.862  -0.036  0.00  0.00    -0.222 NA
ENDBRANCH  16  25
ENDBRANCH   1  16
TORSDOF 4
