REMARK  Name = ZINC44927806
REMARK  3 active torsions:
REMARK  status: ('A' for Active; 'I' for Inactive)
REMARK    1  A    between atoms: C_6  and  C_7
REMARK    2  A    between atoms: N_9  and  C_10
REMARK    3  A    between atoms: C_10  and  C_11
REMARK                            x       y       z     vdW  Elec       q    Type
REMARK                         _______ _______ _______ _____ _____    ______ ____
ROOT
ATOM      1  C   UNL     1      -1.266  -0.763   0.011  0.00  0.00    +0.246 C 
ATOM      2  O   UNL     1      -1.247  -1.979   0.004  0.00  0.00    -0.270 OA
ATOM      3  N   UNL     1      -2.444  -0.108   0.026  0.00  0.00    -0.304 N 
ATOM      4  H   UNL     1      -2.459   0.861   0.031  0.00  0.00    +0.149 HD
ENDROOT
BRANCH   1  10
ATOM      5  C   UNL     1      -0.017   1.391   0.010  0.00  0.00    +0.034 A 
ATOM      6  C   UNL     1       1.171   2.095   0.002  0.00  0.00    +0.043 A 
ATOM      7  C   UNL     1       2.380   1.420  -0.013  0.00  0.00    +0.041 A 
ATOM      8  C   UNL     1       2.406   0.036  -0.021  0.00  0.00    +0.056 A 
ATOM      9  C   UNL     1       1.224  -0.680  -0.013  0.00  0.00    +0.044 A 
ATOM     10  C   UNL     1       0.002  -0.004   0.002  0.00  0.00    +0.053 A 
ATOM     11  I   UNL     1       1.265  -2.775  -0.026  0.00  0.00    -0.042 I 
ATOM     12 CL   UNL     1       3.926  -0.802  -0.041  0.00  0.00    -0.082 Cl
ATOM     13 CL   UNL     1       1.149   3.831   0.012  0.00  0.00    -0.083 Cl
ENDBRANCH   1  10
BRANCH   3  14
ATOM     14  C   UNL     1      -3.701  -0.861   0.034  0.00  0.00    +0.184 C 
BRANCH  14  15
ATOM     15  C   UNL     1      -4.861   0.100   0.051  0.00  0.00    +0.194 A 
ATOM     16  N   UNL     1      -5.456   0.602   1.123  0.00  0.00    -0.110 NA
ATOM     17  N   UNL     1      -6.400   1.380   0.717  0.00  0.00    -0.021 NA
ATOM     18  N   UNL     1      -6.417   1.382  -0.571  0.00  0.00    -0.021 NA
ATOM     19  N   UNL     1      -5.481   0.609  -1.004  0.00  0.00    -0.110 NA
ENDBRANCH  14  15
ENDBRANCH   3  14
TORSDOF 3
