REMARK  Name = ZINC63374086
REMARK  11 active torsions:
REMARK  status: ('A' for Active; 'I' for Inactive)
REMARK    1  A    between atoms: C_1  and  C_2
REMARK    2  A    between atoms: C_2  and  C_3
REMARK    3  A    between atoms: C_3  and  O_4
REMARK    4  A    between atoms: O_4  and  C_5
REMARK    5  A    between atoms: C_9  and  C_14
REMARK    6  A    between atoms: C_10  and  O_11
REMARK    7  A    between atoms: O_11  and  C_12
REMARK    8  A    between atoms: C_12  and  C_13
REMARK    9  A    between atoms: N_20  and  C_35
REMARK   10  A    between atoms: C_23  and  C_34
REMARK   11  A    between atoms: C_40  and  C_41
REMARK                            x       y       z     vdW  Elec       q    Type
REMARK                         _______ _______ _______ _____ _____    ______ ____
ROOT
ATOM      1  C   UNL     1      -3.965  -6.133   0.019  0.00  0.00    +0.069 C 
ATOM      2  C   UNL     1      -4.745  -6.626  -1.216  0.00  0.00    +0.123 C 
ATOM      3  N   UNL     1      -6.176  -6.426  -0.968  0.00  0.00    -0.268 N 
ATOM      4  C   UNL     1      -7.061  -5.755  -1.715  0.00  0.00    +0.317 C 
ATOM      5  O   UNL     1      -6.811  -5.295  -2.812  0.00  0.00    -0.252 OA
ATOM      6  N   UNL     1      -8.255  -5.649  -1.116  0.00  0.00    -0.192 N 
ATOM      7  C   UNL     1      -8.279  -6.301   0.065  0.00  0.00    +0.253 C 
ATOM      8  O   UNL     1      -9.204  -6.366   0.846  0.00  0.00    -0.272 OA
ATOM      9  C   UNL     1      -6.912  -6.934   0.212  0.00  0.00    +0.137 C 
ATOM     10  C   UNL     1      -6.203  -6.375   1.451  0.00  0.00    +0.139 C 
ATOM     11  C   UNL     1      -4.711  -6.617   1.239  0.00  0.00    -0.027 C 
ATOM     12  C   UNL     1      -4.290  -7.308   2.293  0.00  0.00    -0.000 A 
ATOM     13  C   UNL     1      -2.948  -7.761   2.693  0.00  0.00    +0.010 A 
ATOM     14  C   UNL     1      -2.876  -8.477   3.846  0.00  0.00    +0.001 A 
ATOM     15  C   UNL     1      -3.991  -8.783   4.632  0.00  0.00    +0.002 A 
ATOM     16  C   UNL     1      -5.261  -8.401   4.345  0.00  0.00    +0.026 A 
ATOM     17  C   UNL     1      -5.463  -7.635   3.159  0.00  0.00    +0.043 A 
ATOM     18  N   UNL     1      -6.566  -7.118   2.660  0.00  0.00    -0.375 N 
ATOM     19  C   UNL     1      -6.989  -8.463   0.227  0.00  0.00    +0.044 C 
ATOM     20  H   UNL     1      -7.462  -7.210   3.022  0.00  0.00    +0.160 HD
ENDROOT
BRANCH   6  21
ATOM     21  C   UNL     1      -9.345  -4.948  -1.650  0.00  0.00    +0.048 A 
ATOM     22  C   UNL     1     -10.257  -5.599  -2.469  0.00  0.00    +0.024 A 
ATOM     23  C   UNL     1     -11.330  -4.905  -2.994  0.00  0.00    +0.002 A 
ATOM     24  C   UNL     1     -11.495  -3.563  -2.705  0.00  0.00    +0.000 A 
ATOM     25  C   UNL     1     -10.588  -2.912  -1.890  0.00  0.00    +0.005 A 
ATOM     26  C   UNL     1      -9.517  -3.602  -1.357  0.00  0.00    -0.029 A 
ATOM     27  C   UNL     1      -8.532  -2.893  -0.464  0.00  0.00    +0.045 C 
ENDBRANCH   6  21
BRANCH   1  32
ATOM     28  C   UNL     1      -2.617  -2.596   0.013  0.00  0.00    +0.162 A 
ATOM     29  C   UNL     1      -3.790  -1.859   0.022  0.00  0.00    +0.049 A 
ATOM     30  C   UNL     1      -5.013  -2.505   0.030  0.00  0.00    +0.004 A 
ATOM     31  C   UNL     1      -5.068  -3.886   0.029  0.00  0.00    +0.008 A 
ATOM     32  C   UNL     1      -3.901  -4.628   0.020  0.00  0.00    +0.007 A 
ATOM     33  C   UNL     1      -2.673  -3.987   0.006  0.00  0.00    +0.166 A 
BRANCH  28  34
ATOM     34  O   UNL     1      -1.414  -1.962   0.005  0.00  0.00    -0.488 OA
BRANCH  34  35
ATOM     35  C   UNL     1      -1.433  -0.534   0.013  0.00  0.00    +0.229 C 
BRANCH  35  37
ATOM     36  C   UNL     1      -0.019   1.526   0.010  0.00  0.00    +0.007 C 
ATOM     37  C   UNL     1       0.002  -0.004   0.002  0.00  0.00    +0.038 C 
ENDBRANCH  35  37
ENDBRANCH  34  35
ENDBRANCH  28  34
BRANCH  33  38
ATOM     38  O   UNL     1      -1.524  -4.715  -0.009  0.00  0.00    -0.488 OA
BRANCH  38  39
ATOM     39  C   UNL     1      -0.964  -5.069   1.258  0.00  0.00    +0.226 C 
ATOM     40  C   UNL     1       0.315  -5.880   1.040  0.00  0.00    +0.048 C 
ENDBRANCH  38  39
ENDBRANCH  33  38
ENDBRANCH   1  32
TORSDOF 7
