REMARK  Name = ZINC00706138
REMARK  8 active torsions:
REMARK  status: ('A' for Active; 'I' for Inactive)
REMARK    1  A    between atoms: C_1  and  C_2
REMARK    2  A    between atoms: C_3  and  C_19
REMARK    3  A    between atoms: C_4  and  C_12
REMARK    4  A    between atoms: C_6  and  C_10
REMARK    5  A    between atoms: C_7  and  N_9
REMARK    6  A    between atoms: C_19  and  O_21
REMARK    7  A    between atoms: O_21  and  C_22
REMARK    8  A    between atoms: C_22  and  C_23
REMARK                            x       y       z     vdW  Elec       q    Type
REMARK                         _______ _______ _______ _____ _____    ______ ____
ROOT
ATOM      1  C   UNL     1      -6.535  -1.170   1.805  0.00  0.00    +0.087 C 
ATOM      2  C   UNL     1      -5.716  -0.828   3.022  0.00  0.00    +0.115 C 
ATOM      3  C   UNL     1      -4.447  -0.435   2.858  0.00  0.00    +0.087 C 
ATOM      4  C   UNL     1      -3.585  -0.076   4.037  0.00  0.00    +0.105 C 
ATOM      5  C   UNL     1      -4.203  -0.611   5.301  0.00  0.00    +0.098 C 
ATOM      6  C   UNL     1      -5.499  -1.005   5.324  0.00  0.00    +0.198 C 
ATOM      7  O   UNL     1      -6.281  -0.933   4.233  0.00  0.00    -0.445 OA
ENDROOT
BRANCH   4   8
ATOM      8  C   UNL     1      -3.467   1.423   4.135  0.00  0.00    -0.033 A 
ATOM      9  C   UNL     1      -2.224   2.025   4.057  0.00  0.00    +0.004 A 
ATOM     10  C   UNL     1      -2.116   3.400   4.146  0.00  0.00    +0.002 A 
ATOM     11  C   UNL     1      -3.249   4.174   4.312  0.00  0.00    +0.020 A 
ATOM     12  C   UNL     1      -4.492   3.572   4.390  0.00  0.00    +0.041 A 
ATOM     13  C   UNL     1      -4.601   2.196   4.295  0.00  0.00    +0.024 A 
ATOM     14 CL   UNL     1      -5.915   4.544   4.598  0.00  0.00    -0.084 Cl
ENDBRANCH   4   8
BRANCH   6  15
ATOM     15  N   UNL     1      -6.028  -1.490   6.495  0.00  0.00    -0.328 N 
ATOM     16  H   UNL     1      -5.476  -1.547   7.290  0.00  0.00    +0.145 HD
ATOM     17  H   UNL     1      -6.955  -1.775   6.526  0.00  0.00    +0.145 HD
ENDBRANCH   6  15
BRANCH   5  18
ATOM     18  C   UNL     1      -3.412  -0.706   6.491  0.00  0.00    +0.101 C 
ATOM     19  N   UNL     1      -2.785  -0.781   7.435  0.00  0.00    -0.191 NA
ENDBRANCH   5  18
BRANCH   3  20
ATOM     20  C   UNL     1      -3.908  -0.349   1.550  0.00  0.00    +0.340 C 
ATOM     21  O   UNL     1      -3.214  -1.250   1.119  0.00  0.00    -0.245 OA
BRANCH  20  22
ATOM     22  O   UNL     1      -4.165   0.731   0.784  0.00  0.00    -0.457 OA
BRANCH  22  23
ATOM     23  C   UNL     1      -3.589   0.750  -0.524  0.00  0.00    +0.268 C 
BRANCH  23  24
ATOM     24  C   UNL     1      -3.982   2.024  -1.227  0.00  0.00    -0.010 A 
ATOM     25  C   UNL     1      -3.188   3.150  -1.113  0.00  0.00    +0.007 A 
ATOM     26  C   UNL     1      -3.546   4.316  -1.762  0.00  0.00    +0.000 A 
ATOM     27  C   UNL     1      -4.700   4.359  -2.522  0.00  0.00    +0.000 A 
ATOM     28  C   UNL     1      -5.497   3.235  -2.631  0.00  0.00    +0.000 A 
ATOM     29  C   UNL     1      -5.139   2.068  -1.982  0.00  0.00    +0.007 A 
ENDBRANCH  23  24
ENDBRANCH  22  23
ENDBRANCH  20  22
ENDBRANCH   3  20
TORSDOF 7
