REMARK  Name = ZINC35399193
REMARK  7 active torsions:
REMARK  status: ('A' for Active; 'I' for Inactive)
REMARK    1  A    between atoms: C_1  and  C_2
REMARK    2  A    between atoms: N_8  and  C_9
REMARK    3  A    between atoms: C_9  and  C_10
REMARK    4  A    between atoms: C_10  and  N_11
REMARK    5  A    between atoms: C_12  and  C_14
REMARK    6  A    between atoms: C_14  and  C_15
REMARK    7  A    between atoms: N_23  and  C_24
REMARK                            x       y       z     vdW  Elec       q    Type
REMARK                         _______ _______ _______ _____ _____    ______ ____
ROOT
ATOM      1  C   UNL     1       0.926   0.102   8.515  0.00  0.00    +0.001 C 
ATOM      2  C   UNL     1       0.890  -1.419   8.680  0.00  0.00    +0.023 C 
ATOM      3  C   UNL     1       1.730  -1.817   9.898  0.00  0.00    +0.109 C 
ATOM      4  N   UNL     1       1.247  -1.071  11.069  0.00  0.00    -0.286 N 
ATOM      5  C   UNL     1       1.156   0.393  10.985  0.00  0.00    +0.109 C 
ATOM      6  C   UNL     1       0.323   0.766   9.755  0.00  0.00    +0.023 C 
ATOM      7  C   UNL     1       0.895  -1.718  12.197  0.00  0.00    +0.302 C 
ATOM      8  O   UNL     1       0.883  -2.934  12.223  0.00  0.00    -0.253 OA
ATOM      9  N   UNL     1       0.555  -1.018  13.297  0.00  0.00    -0.296 N 
ATOM     10  H   UNL     1       0.494  -0.051  13.257  0.00  0.00    +0.151 HD
ENDROOT
BRANCH   9  11
ATOM     11  C   UNL     1       0.278  -1.717  14.554  0.00  0.00    +0.074 C 
ATOM     12  C   UNL     1      -1.182  -2.173  14.573  0.00  0.00    +0.022 C 
ATOM     13  C   UNL     1      -1.472  -2.904  15.886  0.00  0.00    +0.002 C 
ATOM     14  C   UNL     1      -1.218  -1.959  17.062  0.00  0.00    +0.000 C 
ATOM     15  C   UNL     1       0.242  -1.503  17.043  0.00  0.00    +0.002 C 
ATOM     16  C   UNL     1       0.532  -0.772  15.730  0.00  0.00    +0.022 C 
ENDBRANCH   9  11
BRANCH   1  17
ATOM     17  C   UNL     1       0.117   0.500   7.279  0.00  0.00    +0.099 C 
BRANCH  17  19
ATOM     18  N   UNL     1       0.241   0.174   4.830  0.00  0.00    -0.317 N 
ATOM     19  C   UNL     1       0.781  -0.052   6.044  0.00  0.00    +0.213 C 
ATOM     20  O   UNL     1       1.801  -0.701   6.143  0.00  0.00    -0.276 OA
ATOM     21  H   UNL     1      -0.575   0.693   4.751  0.00  0.00    +0.149 HD
BRANCH  18  22
ATOM     22  C   UNL     1       0.887  -0.363   3.630  0.00  0.00    +0.085 C 
BRANCH  22  23
ATOM     23  C   UNL     1       0.078   0.035   2.394  0.00  0.00    -0.059 C 
BRANCH  23  30
ATOM     24  C   UNL     1      -0.010   1.508   0.005  0.00  0.00    -0.013 C 
ATOM     25  C   UNL     1       0.017  -0.021  -0.002  0.00  0.00    -0.072 C 
ATOM     26  C   UNL     1       0.736  -0.513  -1.260  0.00  0.00    -0.016 C 
ATOM     27  C   UNL     1       0.759  -2.044  -1.262  0.00  0.00    -0.003 C 
ATOM     28  C   UNL     1       1.434  -2.537   0.022  0.00  0.00    -0.019 C 
ATOM     29  C   UNL     1       0.689  -1.970   1.232  0.00  0.00    -0.078 C 
ATOM     30  N   UNL     1       0.725  -0.503   1.190  0.00  0.00    +0.382 N 
ATOM     31  H   UNL     1       1.684  -0.192   1.159  0.00  0.00    -0.081 HD
ENDBRANCH  23  30
ENDBRANCH  22  23
ENDBRANCH  18  22
ENDBRANCH  17  19
ENDBRANCH   1  17
TORSDOF 6
