REMARK  Name = ZINC22325228
REMARK  12 active torsions:
REMARK  status: ('A' for Active; 'I' for Inactive)
REMARK    1  A    between atoms: C_1  and  C_2
REMARK    2  A    between atoms: C_5  and  C_33
REMARK    3  A    between atoms: N_8  and  C_10
REMARK    4  A    between atoms: C_10  and  C_11
REMARK    5  A    between atoms: N_16  and  C_17
REMARK    6  A    between atoms: C_17  and  C_19
REMARK    7  A    between atoms: C_22  and  N_28
REMARK    8  A    between atoms: C_23  and  N_25
REMARK    9  A    between atoms: N_28  and  C_29
REMARK   10  A    between atoms: C_29  and  C_30
REMARK   11  A    between atoms: C_30  and  O_31
REMARK   12  A    between atoms: O_31  and  C_32
REMARK                            x       y       z     vdW  Elec       q    Type
REMARK                         _______ _______ _______ _____ _____    ______ ____
ROOT
ATOM      1  C   UNL     1       2.310   0.247   3.662  0.00  0.00    +0.008 A 
ATOM      2  C   UNL     1       1.458  -0.465   4.407  0.00  0.00    +0.067 A 
ATOM      3  S   UNL     1       0.777   0.782   5.485  0.00  0.00    -0.061 S 
ATOM      4  C   UNL     1       1.628   2.112   4.905  0.00  0.00    +0.163 A 
ATOM      5  N   UNL     1       2.403   1.579   3.921  0.00  0.00    -0.341 N 
ATOM      6  N   UNL     1       1.562   3.378   5.313  0.00  0.00    -0.152 NA
ATOM      7  H   UNL     1       3.009   2.140   3.412  0.00  0.00    +0.167 HD
ENDROOT
BRANCH   6   8
ATOM      8  C   UNL     1       0.738   3.717   6.308  0.00  0.00    +0.270 C 
ATOM      9  O   UNL     1       0.046   2.868   6.843  0.00  0.00    -0.268 OA
BRANCH   8  10
ATOM     10  C   UNL     1       0.666   5.123   6.761  0.00  0.00    +0.041 A 
ATOM     11  C   UNL     1       1.454   6.098   6.146  0.00  0.00    +0.015 A 
ATOM     12  C   UNL     1       1.385   7.406   6.570  0.00  0.00    +0.026 A 
ATOM     13  C   UNL     1       0.530   7.757   7.611  0.00  0.00    +0.058 A 
ATOM     14  C   UNL     1      -0.256   6.788   8.225  0.00  0.00    +0.148 A 
ATOM     15  C   UNL     1      -0.195   5.479   7.801  0.00  0.00    +0.047 A 
BRANCH  14  16
ATOM     16  N   UNL     1      -1.164   7.165   9.332  0.00  0.00    +0.058 N 
ATOM     17  O   UNL     1      -1.319   6.415  10.268  0.00  0.00    -0.126 OA
ATOM     18  O   UNL     1      -1.749   8.222   9.301  0.00  0.00    -0.126 OA
ENDBRANCH  14  16
BRANCH  13  19
ATOM     19  N   UNL     1       0.463   9.080   8.038  0.00  0.00    -0.340 N 
ATOM     20  H   UNL     1      -0.067   9.312   8.817  0.00  0.00    +0.146 HD
BRANCH  19  21
ATOM     21  C   UNL     1       1.190  10.123   7.310  0.00  0.00    +0.129 C 
BRANCH  21  22
ATOM     22  C   UNL     1       0.949  11.476   7.982  0.00  0.00    +0.178 C 
BRANCH  22  23
ATOM     23  O   UNL     1       1.516  11.465   9.293  0.00  0.00    -0.381 OA
ATOM     24  C   UNL     1       1.345  12.689  10.011  0.00  0.00    +0.194 C 
ENDBRANCH  22  23
ENDBRANCH  21  22
ENDBRANCH  19  21
ENDBRANCH  13  19
ENDBRANCH   8  10
ENDBRANCH   6   8
BRANCH   1  25
ATOM     25  C   UNL     1       3.138  -0.401   2.582  0.00  0.00    -0.024 C 
BRANCH  25  31
ATOM     26  C   UNL     1       1.002   1.894  -0.242  0.00  0.00    +0.005 C 
ATOM     27  C   UNL     1       0.904   0.369  -0.333  0.00  0.00    -0.031 C 
ATOM     28  C   UNL     1       1.812  -0.135  -1.459  0.00  0.00    +0.003 C 
ATOM     29  C   UNL     1       3.266   0.205  -1.119  0.00  0.00    -0.031 C 
ATOM     30  C   UNL     1       3.625  -0.409   0.235  0.00  0.00    -0.075 C 
ATOM     31  N   UNL     1       2.739   0.132   1.273  0.00  0.00    +0.384 N 
ATOM     32  C   UNL     1       1.349  -0.251   0.992  0.00  0.00    -0.075 C 
ATOM     33  C   UNL     1       4.189  -0.362  -2.199  0.00  0.00    +0.005 C 
ATOM     34  H   UNL     1       2.813   1.138   1.285  0.00  0.00    -0.081 HD
ENDBRANCH  25  31
ENDBRANCH   1  25
TORSDOF 9
