REMARK  Name = ZINC14625342
REMARK  9 active torsions:
REMARK  status: ('A' for Active; 'I' for Inactive)
REMARK    1  A    between atoms: C_1  and  C_2
REMARK    2  A    between atoms: C_2  and  C_3
REMARK    3  A    between atoms: C_3  and  C_4
REMARK    4  A    between atoms: C_4  and  N_5
REMARK    5  A    between atoms: C_6  and  N_32
REMARK    6  A    between atoms: C_7  and  N_14
REMARK    7  A    between atoms: N_14  and  C_15
REMARK    8  A    between atoms: C_15  and  C_16
REMARK    9  A    between atoms: C_22  and  C_24
REMARK                            x       y       z     vdW  Elec       q    Type
REMARK                         _______ _______ _______ _____ _____    ______ ____
ROOT
ATOM      1  N   UNL     1       4.465  -1.218  -1.305  0.00  0.00    -0.256 N 
ATOM      2  C   UNL     1       4.849  -0.168  -2.058  0.00  0.00    +0.251 C 
ATOM      3  O   UNL     1       5.072   0.906  -1.534  0.00  0.00    -0.270 OA
ENDROOT
BRANCH   1   6
ATOM      4  N   UNL     1       5.175  -4.374  -3.047  0.00  0.00    -0.280 N 
ATOM      5  C   UNL     1       5.369  -3.137  -2.477  0.00  0.00    +0.127 A 
ATOM      6  C   UNL     1       4.298  -2.487  -1.897  0.00  0.00    +0.140 A 
ATOM      7  C   UNL     1       3.038  -3.115  -1.902  0.00  0.00    +0.277 A 
ATOM      8  O   UNL     1       2.076  -2.566  -1.392  0.00  0.00    -0.266 OA
ATOM      9  N   UNL     1       2.901  -4.325  -2.479  0.00  0.00    -0.273 N 
ATOM     10  H   UNL     1       2.005  -4.769  -2.490  0.00  0.00    +0.173 HD
ATOM     11  C   UNL     1       3.956  -4.943  -3.039  0.00  0.00    +0.331 A 
ATOM     12  O   UNL     1       3.805  -6.037  -3.549  0.00  0.00    -0.246 OA
BRANCH   5  13
ATOM     13  N   UNL     1       6.614  -2.555  -2.486  0.00  0.00    -0.343 N 
ATOM     14  H   UNL     1       6.762  -1.720  -2.015  0.00  0.00    +0.144 HD
ATOM     15  H   UNL     1       7.344  -2.980  -2.962  0.00  0.00    +0.144 HD
ENDBRANCH   5  13
BRANCH   4  16
ATOM     16  C   UNL     1       6.302  -5.075  -3.666  0.00  0.00    +0.128 C 
BRANCH  16  17
ATOM     17  C   UNL     1       6.967  -5.984  -2.631  0.00  0.00    +0.021 C 
BRANCH  17  19
ATOM     18  C   UNL     1       8.814  -7.623  -2.249  0.00  0.00    +0.004 C 
ATOM     19  C   UNL     1       8.217  -6.622  -3.240  0.00  0.00    -0.002 C 
ENDBRANCH  17  19
ENDBRANCH  16  17
ENDBRANCH   4  16
ENDBRANCH   1   6
BRANCH   2  20
ATOM     20  C   UNL     1       4.999  -0.323  -3.520  0.00  0.00    +0.040 A 
ATOM     21  C   UNL     1       4.298  -1.325  -4.194  0.00  0.00    +0.033 A 
ATOM     22  C   UNL     1       4.439  -1.461  -5.561  0.00  0.00    +0.043 A 
ATOM     23  C   UNL     1       5.281  -0.613  -6.261  0.00  0.00    +0.040 A 
ATOM     24  C   UNL     1       5.982   0.379  -5.597  0.00  0.00    +0.043 A 
ATOM     25  C   UNL     1       5.846   0.528  -4.231  0.00  0.00    +0.033 A 
ATOM     26 CL   UNL     1       7.035   1.436  -6.484  0.00  0.00    -0.083 Cl
ATOM     27 CL   UNL     1       3.563  -2.701  -6.403  0.00  0.00    -0.083 Cl
ENDBRANCH   2  20
BRANCH   1  28
ATOM     28  C   UNL     1       4.220  -1.041   0.129  0.00  0.00    +0.149 C 
BRANCH  28  29
ATOM     29  C   UNL     1       2.824  -0.515   0.339  0.00  0.00    -0.030 A 
ATOM     30  C   UNL     1       1.796  -1.386   0.645  0.00  0.00    +0.005 A 
ATOM     31  C   UNL     1       0.515  -0.903   0.838  0.00  0.00    +0.000 A 
ATOM     32  C   UNL     1       0.262   0.451   0.725  0.00  0.00    +0.000 A 
ATOM     33  C   UNL     1       1.291   1.323   0.419  0.00  0.00    +0.000 A 
ATOM     34  C   UNL     1       2.572   0.840   0.227  0.00  0.00    +0.005 A 
ENDBRANCH  28  29
ENDBRANCH   1  28
TORSDOF 8
