REMARK  Name = ZINC30978868
REMARK  9 active torsions:
REMARK  status: ('A' for Active; 'I' for Inactive)
REMARK    1  A    between atoms: C_3  and  C_8
REMARK    2  A    between atoms: C_10  and  C_13
REMARK    3  A    between atoms: C_13  and  N_14
REMARK    4  A    between atoms: C_17  and  C_20
REMARK    5  A    between atoms: N_22  and  C_23
REMARK    6  A    between atoms: C_23  and  C_24
REMARK    7  A    between atoms: C_24  and  C_25
REMARK    8  A    between atoms: C_25  and  S_26
REMARK    9  A    between atoms: S_26  and  C_27
REMARK                            x       y       z     vdW  Elec       q    Type
REMARK                         _______ _______ _______ _____ _____    ______ ____
ROOT
ATOM      1  N   UNL     1       4.746   7.294   1.381  0.00  0.00    +0.386 N 
ATOM      2  C   UNL     1       3.475   7.528   2.078  0.00  0.00    -0.077 C 
ATOM      3  C   UNL     1       3.749   7.833   3.553  0.00  0.00    -0.006 C 
ATOM      4  C   UNL     1       4.644   9.071   3.655  0.00  0.00    +0.071 C 
ATOM      5  C   UNL     1       5.941   8.820   2.879  0.00  0.00    -0.006 C 
ATOM      6  C   UNL     1       5.603   8.486   1.425  0.00  0.00    -0.077 C 
ATOM      7  H   UNL     1       5.273   6.484   1.906  0.00  0.00    -0.081 HD
ENDROOT
BRANCH   4   8
ATOM      8  C   UNL     1       4.967   9.341   5.101  0.00  0.00    +0.216 C 
ATOM      9  O   UNL     1       6.120   9.334   5.477  0.00  0.00    -0.276 OA
ATOM     10  N   UNL     1       3.974   9.591   5.978  0.00  0.00    -0.315 N 
ATOM     11  H   UNL     1       2.928   9.598   5.638  0.00  0.00    +0.149 HD
BRANCH  10  12
ATOM     12  C   UNL     1       4.288   9.854   7.385  0.00  0.00    +0.105 C 
BRANCH  12  13
ATOM     13  C   UNL     1       2.992  10.105   8.158  0.00  0.00    +0.029 C 
BRANCH  13  14
ATOM     14  C   UNL     1       3.320  10.379   9.627  0.00  0.00    +0.071 C 
BRANCH  14  15
ATOM     15  S   UNL     1       1.783  10.677  10.544  0.00  0.00    -0.157 S 
BRANCH  15  16
ATOM     16  C   UNL     1       2.338  10.981  12.244  0.00  0.00    +0.046 C 
ATOM     17  C   UNL     1       2.981   9.711  12.806  0.00  0.00    +0.014 C 
ATOM     18  C   UNL     1       3.449   9.969  14.240  0.00  0.00    +0.001 C 
ATOM     19  C   UNL     1       2.250  10.360  15.106  0.00  0.00    +0.000 C 
ATOM     20  C   UNL     1       1.607  11.630  14.544  0.00  0.00    +0.001 C 
ATOM     21  C   UNL     1       1.139  11.373  13.110  0.00  0.00    +0.014 C 
ENDBRANCH  15  16
ENDBRANCH  14  15
ENDBRANCH  13  14
ENDBRANCH  12  13
ENDBRANCH  10  12
ENDBRANCH   4   8
BRANCH   1  22
ATOM     22  C   UNL     1       4.515   6.863  -0.004  0.00  0.00    +0.022 C 
BRANCH  22  25
ATOM     23  C   UNL     1       2.428   3.937   0.001  0.00  0.00    +0.202 A 
ATOM     24  N   UNL     1       2.557   5.283   0.001  0.00  0.00    -0.193 NA
ATOM     25  C   UNL     1       3.846   5.512  -0.005  0.00  0.00    +0.211 A 
ATOM     26  O   UNL     1       4.458   4.324  -0.017  0.00  0.00    -0.340 OA
ATOM     27  N   UNL     1       3.634   3.433  -0.014  0.00  0.00    -0.056 NA
BRANCH  23  30
ATOM     28  C   UNL     1      -0.013   1.076   0.008  0.00  0.00    +0.002 A 
ATOM     29  C   UNL     1       1.174   1.781   0.000  0.00  0.00    +0.012 A 
ATOM     30  C   UNL     1       1.155   3.174   0.008  0.00  0.00    +0.023 A 
ATOM     31  C   UNL     1      -0.065   3.848   0.023  0.00  0.00    +0.027 A 
ATOM     32  C   UNL     1      -1.246   3.134   0.031  0.00  0.00    +0.019 A 
ATOM     33  C   UNL     1      -1.220   1.750   0.017  0.00  0.00    +0.015 A 
ATOM     34 BR   UNL     1      -2.902   4.047   0.051  0.00  0.00    -0.050 Br
ENDBRANCH  23  30
ENDBRANCH  22  25
ENDBRANCH   1  22
TORSDOF 9
