REMARK  Name = ZINC31849117
REMARK  7 active torsions:
REMARK  status: ('A' for Active; 'I' for Inactive)
REMARK    1  A    between atoms: C_1  and  C_2
REMARK    2  A    between atoms: C_2  and  C_3
REMARK    3  A    between atoms: C_2  and  C_4
REMARK    4  A    between atoms: C_2  and  C_5
REMARK    5  A    between atoms: C_12  and  C_16
REMARK    6  A    between atoms: N_18  and  N_19
REMARK    7  A    between atoms: C_20  and  C_21
REMARK                            x       y       z     vdW  Elec       q    Type
REMARK                         _______ _______ _______ _____ _____    ______ ____
ROOT
ATOM      1  C   UNL     1      -5.853  10.375  -0.746  0.00  0.00    -0.038 A 
ATOM      2  C   UNL     1      -6.694   9.408  -1.264  0.00  0.00    +0.008 A 
ATOM      3  C   UNL     1      -6.228   8.126  -1.480  0.00  0.00    +0.050 A 
ATOM      4  C   UNL     1      -4.913   7.805  -1.177  0.00  0.00    +0.162 A 
ATOM      5  C   UNL     1      -4.066   8.777  -0.658  0.00  0.00    +0.163 A 
ATOM      6  C   UNL     1      -4.541  10.062  -0.443  0.00  0.00    +0.053 A 
ATOM      7  O   UNL     1      -2.771   8.484  -0.358  0.00  0.00    -0.472 OA
ATOM      8  C   UNL     1      -2.435   7.098  -0.238  0.00  0.00    +0.297 C 
ATOM      9  C   UNL     1      -3.050   6.348  -1.428  0.00  0.00    +0.283 C 
ATOM     10  O   UNL     1      -4.468   6.536  -1.392  0.00  0.00    -0.484 OA
ENDROOT
BRANCH   1  12
ATOM     11  C   UNL     1      -7.837  11.851  -0.925  0.00  0.00    +0.015 C 
ATOM     12  C   UNL     1      -6.366  11.772  -0.510  0.00  0.00    -0.013 C 
ATOM     13  C   UNL     1      -6.235  12.120   0.974  0.00  0.00    +0.015 C 
ATOM     14  C   UNL     1      -5.548  12.763  -1.341  0.00  0.00    +0.015 C 
ENDBRANCH   1  12
BRANCH   8  15
ATOM     15  C   UNL     1      -0.937   6.934  -0.253  0.00  0.00    +0.276 C 
ATOM     16  O   UNL     1      -0.224   7.898  -0.437  0.00  0.00    -0.270 OA
ATOM     17  N   UNL     1      -0.390   5.717  -0.062  0.00  0.00    -0.204 N 
ATOM     18  H   UNL     1      -1.037   4.843   0.105  0.00  0.00    +0.177 HD
BRANCH  17  19
ATOM     19  N   UNL     1       1.002   5.565  -0.076  0.00  0.00    -0.186 NA
ATOM     20  C   UNL     1       1.528   4.377  -0.016  0.00  0.00    +0.156 C 
BRANCH  20  21
ATOM     21  C   UNL     1       0.708   3.197  -0.314  0.00  0.00    +0.059 A 
ATOM     22  C   UNL     1       1.082   1.883  -0.142  0.00  0.00    +0.028 A 
ATOM     23  C   UNL     1      -0.002   1.089  -0.545  0.00  0.00    +0.019 A 
ATOM     24  C   UNL     1      -0.990   1.915  -0.955  0.00  0.00    +0.083 A 
ATOM     25  N   UNL     1      -0.571   3.203  -0.816  0.00  0.00    -0.360 N 
ATOM     26  H   UNL     1      -1.073   4.158  -1.032  0.00  0.00    +0.165 HD
ENDBRANCH  20  21
ENDBRANCH  17  19
ENDBRANCH   8  15
TORSDOF 4
