REMARK  Name = ZINC14832245
REMARK  14 active torsions:
REMARK  status: ('A' for Active; 'I' for Inactive)
REMARK    1  A    between atoms: C_1  and  C_2
REMARK    2  A    between atoms: C_2  and  C_3
REMARK    3  A    between atoms: C_3  and  C_5
REMARK    4  A    between atoms: C_3  and  C_6
REMARK    5  A    between atoms: C_9  and  O_13
REMARK    6  A    between atoms: O_13  and  C_14
REMARK    7  A    between atoms: C_14  and  C_15
REMARK    8  A    between atoms: N_17  and  N_18
REMARK    9  A    between atoms: C_19  and  C_21
REMARK   10  A    between atoms: C_21  and  C_22
REMARK   11  A    between atoms: C_22  and  C_23
REMARK   12  A    between atoms: N_25  and  C_26
REMARK   13  A    between atoms: C_29  and  C_33
REMARK   14  A    between atoms: C_31  and  C_32
REMARK                            x       y       z     vdW  Elec       q    Type
REMARK                         _______ _______ _______ _____ _____    ______ ____
ROOT
ATOM      1  N   UNL     1       4.927   1.116  -0.071  0.00  0.00    -0.234 N 
ATOM      2  C   UNL     1       3.751   1.774  -0.053  0.00  0.00    +0.230 C 
ATOM      3  O   UNL     1       3.734   2.986  -0.053  0.00  0.00    -0.274 OA
ATOM      4  H   UNL     1       4.941   0.146  -0.071  0.00  0.00    +0.173 HD
ENDROOT
BRANCH   1   7
ATOM      5  C   UNL     1       7.307   1.176  -0.107  0.00  0.00    +0.267 C 
ATOM      6  O   UNL     1       7.324  -0.037  -0.107  0.00  0.00    -0.271 OA
ATOM      7  N   UNL     1       6.131   1.833  -0.089  0.00  0.00    -0.232 N 
ATOM      8  H   UNL     1       6.117   2.803  -0.089  0.00  0.00    +0.173 HD
BRANCH   5   9
ATOM      9  C   UNL     1       8.601   1.947  -0.127  0.00  0.00    +0.326 C 
BRANCH   9  10
ATOM     10  O   UNL     1       9.700   1.034  -0.144  0.00  0.00    -0.482 OA
BRANCH  10  14
ATOM     11  C   UNL     1      13.490   2.663  -0.203  0.00  0.00    -0.043 A 
ATOM     12  C   UNL     1      12.383   3.491  -0.185  0.00  0.00    +0.007 A 
ATOM     13  C   UNL     1      11.113   2.948  -0.172  0.00  0.00    +0.047 A 
ATOM     14  C   UNL     1      10.948   1.570  -0.163  0.00  0.00    +0.135 A 
ATOM     15  C   UNL     1      12.062   0.741  -0.180  0.00  0.00    +0.060 A 
ATOM     16  C   UNL     1      13.330   1.290  -0.200  0.00  0.00    +0.022 A 
ATOM     17 BR   UNL     1      11.843  -1.137  -0.177  0.00  0.00    -0.047 Br
BRANCH  11  18
ATOM     18  C   UNL     1      14.874   3.259  -0.224  0.00  0.00    +0.016 C 
ATOM     19  C   UNL     1      15.038   4.123  -1.476  0.00  0.00    +0.012 C 
BRANCH  18  21
ATOM     20  C   UNL     1      16.521   4.627   1.064  0.00  0.00    +0.004 C 
ATOM     21  C   UNL     1      15.077   4.123   1.022  0.00  0.00    +0.004 C 
ENDBRANCH  18  21
ENDBRANCH  11  18
ENDBRANCH  10  14
ENDBRANCH   9  10
ENDBRANCH   5   9
ENDBRANCH   1   7
BRANCH   2  22
ATOM     22  C   UNL     1       2.457   1.002  -0.033  0.00  0.00    +0.106 C 
BRANCH  22  23
ATOM     23  C   UNL     1       1.280   1.980  -0.015  0.00  0.00    +0.105 C 
BRANCH  23  24
ATOM     24  C   UNL     1      -0.014   1.209   0.005  0.00  0.00    +0.218 C 
ATOM     25  O   UNL     1       0.003  -0.004   0.005  0.00  0.00    -0.275 OA
ATOM     26  N   UNL     1      -1.191   1.867   0.018  0.00  0.00    -0.285 N 
ATOM     27  H   UNL     1      -1.205   2.833   0.099  0.00  0.00    +0.155 HD
BRANCH  26  28
ATOM     28  C   UNL     1      -2.391   1.155  -0.086  0.00  0.00    +0.036 A 
ATOM     29  C   UNL     1      -2.411  -0.091  -0.699  0.00  0.00    +0.024 A 
ATOM     30  C   UNL     1      -3.597  -0.791  -0.800  0.00  0.00    +0.005 A 
ATOM     31  C   UNL     1      -4.765  -0.252  -0.291  0.00  0.00    -0.050 A 
ATOM     32  C   UNL     1      -4.748   0.989   0.320  0.00  0.00    +0.008 A 
ATOM     33  C   UNL     1      -3.564   1.691   0.428  0.00  0.00    -0.029 A 
ATOM     34  C   UNL     1      -3.546   3.040   1.100  0.00  0.00    +0.045 C 
ATOM     35  C   UNL     1      -6.057  -1.018  -0.402  0.00  0.00    +0.044 C 
ENDBRANCH  26  28
ENDBRANCH  23  24
ENDBRANCH  22  23
ENDBRANCH   2  22
TORSDOF 10
