REMARK  Name = ZINC09596099
REMARK  8 active torsions:
REMARK  status: ('A' for Active; 'I' for Inactive)
REMARK    1  A    between atoms: C_1  and  C_2
REMARK    2  A    between atoms: C_4  and  C_18
REMARK    3  A    between atoms: C_5  and  C_17
REMARK    4  A    between atoms: N_6  and  C_7
REMARK    5  A    between atoms: C_7  and  C_8
REMARK    6  A    between atoms: C_18  and  C_20
REMARK    7  A    between atoms: C_20  and  N_21
REMARK    8  A    between atoms: C_29  and  C_31
REMARK                            x       y       z     vdW  Elec       q    Type
REMARK                         _______ _______ _______ _____ _____    ______ ____
ROOT
ATOM      1  C   UNL     1       2.461  -1.045  -4.337  0.00  0.00    +0.063 C 
ATOM      2  C   UNL     1       1.724  -1.164  -3.028  0.00  0.00    +0.017 A 
ATOM      3  C   UNL     1       1.287  -0.134  -2.284  0.00  0.00    +0.034 A 
ATOM      4  C   UNL     1       0.636  -0.722  -1.106  0.00  0.00    +0.040 A 
ATOM      5  C   UNL     1       0.738  -2.091  -1.262  0.00  0.00    +0.027 A 
ATOM      6  N   UNL     1       1.389  -2.335  -2.413  0.00  0.00    -0.343 N 
ATOM      7  C   UNL     1       0.210  -3.131  -0.307  0.00  0.00    +0.064 C 
ENDROOT
BRANCH   4   8
ATOM      8  C   UNL     1       0.002  -0.004   0.002  0.00  0.00    +0.183 C 
ATOM      9  O   UNL     1      -0.506  -0.623   0.914  0.00  0.00    -0.290 OA
BRANCH   8  10
ATOM     10  C   UNL     1      -0.018   1.503   0.010  0.00  0.00    +0.197 C 
BRANCH  10  11
ATOM     11  N   UNL     1      -0.704   1.975   1.216  0.00  0.00    -0.217 N 
ATOM     12  C   UNL     1      -0.087   2.230   2.388  0.00  0.00    +0.247 C 
ATOM     13  O   UNL     1       1.094   2.116   2.636  0.00  0.00    -0.273 OA
ATOM     14  C   UNL     1      -1.180   2.688   3.327  0.00  0.00    +0.115 C 
ATOM     15  C   UNL     1      -1.292   1.738   4.515  0.00  0.00    +0.035 C 
ATOM     16  C   UNL     1       0.005   1.780   5.328  0.00  0.00    +0.003 C 
ATOM     17  C   UNL     1       0.253   3.209   5.816  0.00  0.00    +0.000 C 
ATOM     18  C   UNL     1       0.384   4.146   4.614  0.00  0.00    +0.006 C 
ATOM     19  C   UNL     1      -0.912   4.113   3.799  0.00  0.00    +0.018 C 
ATOM     20  C   UNL     1      -0.774   5.034   2.586  0.00  0.00    +0.010 C 
ATOM     21  N   UNL     1      -2.398   2.636   2.510  0.00  0.00    -0.285 N 
ATOM     22  C   UNL     1      -2.019   2.213   1.288  0.00  0.00    +0.310 C 
ATOM     23  O   UNL     1      -2.786   2.061   0.358  0.00  0.00    -0.252 OA
ATOM     24  H   UNL     1      -3.297   2.866   2.792  0.00  0.00    +0.151 HD
ENDBRANCH  10  11
ENDBRANCH   8  10
ENDBRANCH   4   8
BRANCH   6  25
ATOM     25  C   UNL     1       1.697  -3.670  -2.933  0.00  0.00    +0.157 C 
BRANCH  25  26
ATOM     26  C   UNL     1       0.565  -4.141  -3.809  0.00  0.00    -0.024 A 
ATOM     27  C   UNL     1       0.579  -3.862  -5.163  0.00  0.00    +0.009 A 
ATOM     28  C   UNL     1      -0.457  -4.292  -5.971  0.00  0.00    +0.050 A 
ATOM     29  C   UNL     1      -1.513  -5.003  -5.425  0.00  0.00    +0.166 A 
ATOM     30  C   UNL     1      -1.528  -5.284  -4.060  0.00  0.00    +0.167 A 
ATOM     31  C   UNL     1      -0.483  -4.855  -3.258  0.00  0.00    +0.055 A 
ATOM     32  O   UNL     1      -2.661  -5.988  -3.772  0.00  0.00    -0.453 OA
ATOM     33  C   UNL     1      -3.135  -6.488  -5.036  0.00  0.00    +0.466 C 
ATOM     34  O   UNL     1      -2.638  -5.532  -5.990  0.00  0.00    -0.453 OA
ENDBRANCH  25  26
ENDBRANCH   6  25
TORSDOF 5
