REMARK  Name = ZINC22463057
REMARK  11 active torsions:
REMARK  status: ('A' for Active; 'I' for Inactive)
REMARK    1  A    between atoms: C_1  and  C_2
REMARK    2  A    between atoms: C_2  and  C_3
REMARK    3  A    between atoms: C_2  and  C_4
REMARK    4  A    between atoms: C_4  and  C_6
REMARK    5  A    between atoms: C_4  and  N_23
REMARK    6  A    between atoms: N_8  and  C_9
REMARK    7  A    between atoms: C_9  and  C_10
REMARK    8  A    between atoms: C_10  and  C_12
REMARK    9  A    between atoms: C_10  and  N_18
REMARK   10  A    between atoms: N_23  and  S_24
REMARK   11  A    between atoms: S_24  and  C_27
REMARK                            x       y       z     vdW  Elec       q    Type
REMARK                         _______ _______ _______ _____ _____    ______ ____
ROOT
ATOM      1  C   UNL     1       4.749   0.057  -2.257  0.00  0.00    +0.165 C 
ENDROOT
BRANCH   1   2
ATOM      2  C   UNL     1       3.965  -0.005  -3.542  0.00  0.00    +0.232 C 
ATOM      3  O   UNL     1       3.212  -0.934  -3.749  0.00  0.00    -0.274 OA
ATOM      4  N   UNL     1       4.099   0.971  -4.461  0.00  0.00    -0.315 N 
ATOM      5  H   UNL     1       4.781   1.814  -4.273  0.00  0.00    +0.149 HD
BRANCH   4   6
ATOM      6  C   UNL     1       3.336   0.911  -5.710  0.00  0.00    +0.093 C 
BRANCH   6   7
ATOM      7  C   UNL     1       3.763   2.062  -6.624  0.00  0.00    -0.020 C 
BRANCH   7   8
ATOM      8  C   UNL     1       5.195   1.862  -7.047  0.00  0.00    -0.059 A 
ATOM      9  C   UNL     1       5.498   0.979  -8.067  0.00  0.00    +0.002 A 
ATOM     10  C   UNL     1       6.812   0.799  -8.458  0.00  0.00    +0.000 A 
ATOM     11  C   UNL     1       7.823   1.496  -7.824  0.00  0.00    +0.000 A 
ATOM     12  C   UNL     1       7.521   2.375  -6.801  0.00  0.00    +0.000 A 
ATOM     13  C   UNL     1       6.207   2.558  -6.413  0.00  0.00    +0.002 A 
ENDBRANCH   7   8
BRANCH   7  14
ATOM     14  N   UNL     1       2.900   2.088  -7.813  0.00  0.00    +0.385 N 
ATOM     15  C   UNL     1       1.474   2.255  -7.432  0.00  0.00    -0.078 C 
ATOM     16  C   UNL     1       0.819   2.781  -8.734  0.00  0.00    -0.020 C 
ATOM     17  C   UNL     1       1.904   3.716  -9.314  0.00  0.00    -0.020 C 
ATOM     18  C   UNL     1       3.224   3.244  -8.677  0.00  0.00    -0.078 C 
ATOM     19  H   UNL     1       3.076   1.135  -8.332  0.00  0.00    -0.081 HD
ENDBRANCH   7  14
ENDBRANCH   6   7
ENDBRANCH   4   6
ENDBRANCH   1   2
BRANCH   1  21
ATOM     20  C   UNL     1       7.040   0.244  -1.278  0.00  0.00    +0.009 C 
ATOM     21  C   UNL     1       6.246   0.064  -2.573  0.00  0.00    +0.010 C 
ATOM     22  C   UNL     1       6.635  -1.263  -3.229  0.00  0.00    +0.009 C 
ENDBRANCH   1  21
BRANCH   1  23
ATOM     23  N   UNL     1       4.430  -1.112  -1.433  0.00  0.00    -0.178 NA
ATOM     24  H   UNL     1       4.546  -2.125  -1.846  0.00  0.00    +0.149 HD
BRANCH  23  25
ATOM     25  S   UNL     1       3.664  -0.914   0.022  0.00  0.00    +0.059 S 
ATOM     26  O   UNL     1       4.377   0.095   0.723  0.00  0.00    -0.153 OA
ATOM     27  O   UNL     1       3.464  -2.216   0.556  0.00  0.00    -0.153 OA
BRANCH  25  28
ATOM     28  C   UNL     1       2.064  -0.258  -0.316  0.00  0.00    +0.109 A 
ATOM     29  C   UNL     1       0.998  -1.112  -0.529  0.00  0.00    +0.032 A 
ATOM     30  C   UNL     1      -0.258  -0.601  -0.795  0.00  0.00    +0.051 A 
ATOM     31  C   UNL     1      -0.452   0.772  -0.850  0.00  0.00    +0.162 A 
ATOM     32  C   UNL     1       0.619   1.631  -0.633  0.00  0.00    +0.164 A 
ATOM     33  C   UNL     1       1.877   1.111  -0.367  0.00  0.00    +0.078 A 
ATOM     34  O   UNL     1       0.449   2.980  -0.674  0.00  0.00    -0.485 OA
ATOM     35  C   UNL     1      -0.741   3.460  -1.310  0.00  0.00    +0.270 C 
ATOM     36  C   UNL     1      -1.928   2.635  -0.794  0.00  0.00    +0.270 C 
ATOM     37  O   UNL     1      -1.693   1.261  -1.121  0.00  0.00    -0.485 OA
ENDBRANCH  25  28
ENDBRANCH  23  25
ENDBRANCH   1  23
TORSDOF 9
