REMARK  Name = ZINC64796161
REMARK  4 active torsions:
REMARK  status: ('A' for Active; 'I' for Inactive)
REMARK    1  A    between atoms: C_1  and  C_2
REMARK    2  A    between atoms: C_5  and  C_8
REMARK    3  A    between atoms: C_12  and  C_13
REMARK    4  A    between atoms: C_16  and  C_22
REMARK                            x       y       z     vdW  Elec       q    Type
REMARK                         _______ _______ _______ _____ _____    ______ ____
ROOT
ATOM      1  C   UNL     1       0.058  -4.253  -0.021  0.00  0.00    +0.025 A 
ATOM      2  C   UNL     1      -1.003  -5.008   0.475  0.00  0.00    +0.053 A 
ATOM      3  C   UNL     1      -0.877  -6.370   0.406  0.00  0.00    +0.020 A 
ATOM      4  S   UNL     1       0.611  -6.663  -0.281  0.00  0.00    -0.084 S 
ATOM      5  C   UNL     1       1.141  -4.978  -0.533  0.00  0.00    +0.110 A 
ATOM      6  C   UNL     1      -1.914  -7.351   0.866  0.00  0.00    +0.069 C 
ATOM      7  C   UNL     1      -2.720  -6.703   1.998  0.00  0.00    +0.109 C 
ATOM      8  C   UNL     1      -3.053  -5.277   1.661  0.00  0.00    +0.218 C 
ATOM      9  O   UNL     1      -4.142  -4.845   1.976  0.00  0.00    -0.275 OA
ATOM     10  N   UNL     1      -2.196  -4.459   1.027  0.00  0.00    -0.284 N 
ATOM     11  H   UNL     1      -2.386  -3.511   0.946  0.00  0.00    +0.155 HD
ENDROOT
BRANCH   6  12
ATOM     12  C   UNL     1      -1.241  -8.601   1.372  0.00  0.00    -0.001 A 
ATOM     13  C   UNL     1      -0.363  -8.531   2.437  0.00  0.00    +0.045 A 
ATOM     14  C   UNL     1       0.254  -9.679   2.902  0.00  0.00    +0.124 A 
ATOM     15  C   UNL     1      -0.008 -10.899   2.300  0.00  0.00    +0.041 A 
ATOM     16  C   UNL     1      -0.885 -10.969   1.235  0.00  0.00    +0.041 A 
ATOM     17  C   UNL     1      -1.507  -9.821   0.773  0.00  0.00    +0.127 A 
ATOM     18  F   UNL     1      -2.369  -9.890  -0.265  0.00  0.00    -0.205 F 
ATOM     19  F   UNL     1       1.113  -9.611   3.943  0.00  0.00    -0.205 F 
ENDBRANCH   6  12
BRANCH   1  24
ATOM     20  C   UNL     1      -0.018   1.503   0.010  0.00  0.00    +0.044 C 
ATOM     21  C   UNL     1       0.002  -0.004   0.002  0.00  0.00    -0.050 A 
ATOM     22  C   UNL     1       0.006  -0.686  -1.202  0.00  0.00    +0.004 A 
ATOM     23  C   UNL     1       0.024  -2.066  -1.216  0.00  0.00    +0.009 A 
ATOM     24  C   UNL     1       0.039  -2.773  -0.013  0.00  0.00    -0.015 A 
ATOM     25  C   UNL     1       0.036  -2.079   1.197  0.00  0.00    +0.009 A 
ATOM     26  C   UNL     1       0.023  -0.699   1.198  0.00  0.00    +0.004 A 
ENDBRANCH   1  24
BRANCH   5  27
ATOM     27  C   UNL     1       2.344  -4.500  -1.101  0.00  0.00    +0.394 C 
ATOM     28  O   UNL     1       2.541  -3.294  -1.194  0.00  0.00    -0.240 OA
ATOM     29  O   UNL     1       3.190  -5.291  -1.502  0.00  0.00    -0.240 OA
ENDBRANCH   5  27
TORSDOF 3
