REMARK  Name = ZINC39935007
REMARK  11 active torsions:
REMARK  status: ('A' for Active; 'I' for Inactive)
REMARK    1  A    between atoms: C_1  and  O_2
REMARK    2  A    between atoms: O_2  and  C_3
REMARK    3  A    between atoms: C_8  and  C_13
REMARK    4  A    between atoms: C_13  and  C_35
REMARK    5  A    between atoms: C_14  and  C_15
REMARK    6  A    between atoms: C_17  and  O_33
REMARK    7  A    between atoms: C_18  and  O_22
REMARK    8  A    between atoms: O_22  and  C_23
REMARK    9  A    between atoms: C_23  and  C_24
REMARK   10  A    between atoms: C_28  and  N_30
REMARK   11  A    between atoms: O_33  and  C_34
REMARK                            x       y       z     vdW  Elec       q    Type
REMARK                         _______ _______ _______ _____ _____    ______ ____
ROOT
ATOM      1  C   UNL     1       5.049  -6.446  -4.071  0.00  0.00    -0.019 A 
ATOM      2  C   UNL     1       5.397  -7.588  -4.802  0.00  0.00    +0.057 A 
ATOM      3  C   UNL     1       6.583  -8.242  -4.531  0.00  0.00    +0.164 A 
ATOM      4  C   UNL     1       7.431  -7.765  -3.532  0.00  0.00    +0.181 A 
ATOM      5  C   UNL     1       7.087  -6.632  -2.807  0.00  0.00    +0.087 A 
ATOM      6  C   UNL     1       5.907  -5.970  -3.074  0.00  0.00    +0.032 A 
ATOM      7 CL   UNL     1       8.147  -6.044  -1.564  0.00  0.00    -0.080 Cl
ENDROOT
BRANCH   1   9
ATOM      8  C   UNL     1       2.680  -6.450  -4.666  0.00  0.00    +0.072 C 
ATOM      9  C   UNL     1       3.788  -5.745  -4.355  0.00  0.00    +0.026 C 
BRANCH   8  15
ATOM     10  C   UNL     1      -2.262  -7.807  -6.924  0.00  0.00    +0.122 A 
ATOM     11  C   UNL     1      -2.704  -7.713  -5.538  0.00  0.00    +0.048 A 
ATOM     12  C   UNL     1      -1.936  -7.159  -4.583  0.00  0.00    +0.031 A 
ATOM     13  C   UNL     1      -0.609  -6.627  -4.929  0.00  0.00    +0.061 A 
ATOM     14  N   UNL     1       0.317  -6.051  -4.217  0.00  0.00    -0.359 N 
ATOM     15  C   UNL     1       1.433  -5.734  -5.116  0.00  0.00    +0.216 C 
ATOM     16  N   UNL     1       1.036  -6.200  -6.450  0.00  0.00    -0.359 N 
ATOM     17  C   UNL     1      -0.156  -6.722  -6.343  0.00  0.00    +0.064 A 
ATOM     18  C   UNL     1      -1.051  -7.345  -7.320  0.00  0.00    +0.073 A 
ATOM     19  H   UNL     1       0.277  -5.866  -3.266  0.00  0.00    +0.162 HD
ATOM     20  H   UNL     1       1.562  -6.133  -7.262  0.00  0.00    +0.162 HD
BRANCH  10  22
ATOM     21  C   UNL     1      -4.349  -8.848  -7.374  0.00  0.00    +0.277 C 
ATOM     22  O   UNL     1      -3.083  -8.377  -7.841  0.00  0.00    -0.495 OA
ENDBRANCH  10  22
ENDBRANCH   8  15
BRANCH   8  23
ATOM     23  C   UNL     1       2.689  -7.879  -4.569  0.00  0.00    +0.099 C 
ATOM     24  N   UNL     1       2.696  -9.012  -4.492  0.00  0.00    -0.191 NA
ENDBRANCH   8  23
ENDBRANCH   1   9
BRANCH   3  25
ATOM     25  O   UNL     1       6.924  -9.352  -5.239  0.00  0.00    -0.491 OA
ATOM     26  C   UNL     1       6.009  -9.785  -6.247  0.00  0.00    +0.277 C 
ENDBRANCH   3  25
BRANCH   4  27
ATOM     27  O   UNL     1       8.597  -8.411  -3.268  0.00  0.00    -0.482 OA
BRANCH  27  28
ATOM     28  C   UNL     1       9.752  -7.990  -3.997  0.00  0.00    +0.264 C 
BRANCH  28  29
ATOM     29  C   UNL     1      10.941  -8.813  -3.573  0.00  0.00    -0.008 A 
ATOM     30  C   UNL     1      11.732  -8.394  -2.520  0.00  0.00    +0.007 A 
ATOM     31  C   UNL     1      12.822  -9.149  -2.131  0.00  0.00    +0.003 A 
ATOM     32  C   UNL     1      13.122 -10.324  -2.796  0.00  0.00    +0.033 A 
ATOM     33  C   UNL     1      12.331 -10.743  -3.848  0.00  0.00    +0.127 A 
ATOM     34  C   UNL     1      11.237  -9.990  -4.234  0.00  0.00    +0.039 A 
BRANCH  33  35
ATOM     35  N   UNL     1      12.652 -12.001  -4.560  0.00  0.00    +0.056 N 
ATOM     36  O   UNL     1      13.606 -12.661  -4.221  0.00  0.00    -0.126 OA
ATOM     37  O   UNL     1      11.959 -12.368  -5.481  0.00  0.00    -0.126 OA
ENDBRANCH  33  35
ENDBRANCH  28  29
ENDBRANCH  27  28
ENDBRANCH   4  27
TORSDOF 9
