REMARK  Name = ZINC15275320
REMARK  9 active torsions:
REMARK  status: ('A' for Active; 'I' for Inactive)
REMARK    1  A    between atoms: C_1  and  C_2
REMARK    2  A    between atoms: C_2  and  C_3
REMARK    3  A    between atoms: C_8  and  N_9
REMARK    4  A    between atoms: C_10  and  C_12
REMARK    5  A    between atoms: C_12  and  S_13
REMARK    6  A    between atoms: S_13  and  C_14
REMARK    7  A    between atoms: C_17  and  C_26
REMARK    8  A    between atoms: N_18  and  C_19
REMARK    9  A    between atoms: C_23  and  C_25
REMARK                            x       y       z     vdW  Elec       q    Type
REMARK                         _______ _______ _______ _____ _____    ______ ____
ROOT
ATOM      1  C   UNL     1       0.400   6.086  -0.944  0.00  0.00    +0.197 A 
ATOM      2  N   UNL     1       0.203   7.315  -0.525  0.00  0.00    -0.122 NA
ATOM      3  N   UNL     1      -0.319   7.305   0.649  0.00  0.00    -0.128 NA
ATOM      4  C   UNL     1      -0.496   6.067   1.053  0.00  0.00    +0.171 A 
ATOM      5  N   UNL     1      -0.035   5.246   0.048  0.00  0.00    -0.270 N 
ENDROOT
BRANCH   4   6
ATOM      6  C   UNL     1      -1.075   5.639   2.341  0.00  0.00    +0.045 A 
ATOM      7  C   UNL     1      -1.262   4.361   2.761  0.00  0.00    +0.095 A 
ATOM      8  N   UNL     1      -1.820   4.363   4.008  0.00  0.00    -0.360 N 
ATOM      9  H   UNL     1      -2.044   3.568   4.516  0.00  0.00    +0.165 HD
ATOM     10  C   UNL     1      -2.023   5.657   4.436  0.00  0.00    +0.047 A 
ATOM     11  C   UNL     1      -1.569   6.513   3.418  0.00  0.00    +0.010 A 
ATOM     12  C   UNL     1      -1.653   7.895   3.580  0.00  0.00    +0.011 A 
ATOM     13  C   UNL     1      -2.183   8.415   4.740  0.00  0.00    +0.001 A 
ATOM     14  C   UNL     1      -2.632   7.570   5.746  0.00  0.00    +0.002 A 
ATOM     15  C   UNL     1      -2.555   6.202   5.600  0.00  0.00    +0.026 A 
ENDBRANCH   4   6
BRANCH   5  16
ATOM     16  C   UNL     1      -0.019   3.844   0.038  0.00  0.00    +0.051 A 
ATOM     17  C   UNL     1      -1.213   3.135   0.054  0.00  0.00    +0.026 A 
ATOM     18  C   UNL     1      -1.195   1.754   0.040  0.00  0.00    +0.002 A 
ATOM     19  C   UNL     1       0.011   1.077   0.021  0.00  0.00    +0.003 A 
ATOM     20  C   UNL     1       1.202   1.781   0.004  0.00  0.00    -0.048 A 
ATOM     21  C   UNL     1       1.190   3.162   0.013  0.00  0.00    +0.029 A 
ATOM     22  C   UNL     1       2.514   1.040  -0.022  0.00  0.00    +0.044 C 
ENDBRANCH   5  16
BRANCH   1  23
ATOM     23  S   UNL     1       1.093   5.607  -2.491  0.00  0.00    -0.076 S 
BRANCH  23  24
ATOM     24  C   UNL     1       1.402   7.237  -3.215  0.00  0.00    +0.173 C 
BRANCH  24  26
ATOM     25  N   UNL     1       2.329   8.158  -5.315  0.00  0.00    -0.285 N 
ATOM     26  C   UNL     1       2.012   7.072  -4.583  0.00  0.00    +0.227 C 
ATOM     27  O   UNL     1       2.218   5.962  -5.025  0.00  0.00    -0.275 OA
ATOM     28  H   UNL     1       2.092   9.044  -4.997  0.00  0.00    +0.155 HD
BRANCH  25  34
ATOM     29  C   UNL     1       2.891   8.987  -7.513  0.00  0.00    -0.026 A 
ATOM     30  C   UNL     1       3.555   8.837  -8.715  0.00  0.00    +0.005 A 
ATOM     31  C   UNL     1       4.329   7.714  -8.943  0.00  0.00    +0.000 A 
ATOM     32  C   UNL     1       4.441   6.738  -7.969  0.00  0.00    +0.002 A 
ATOM     33  C   UNL     1       3.784   6.885  -6.764  0.00  0.00    +0.023 A 
ATOM     34  C   UNL     1       3.001   8.009  -6.534  0.00  0.00    +0.037 A 
BRANCH  29  36
ATOM     35  C   UNL     1       2.877  11.259  -6.520  0.00  0.00    +0.009 C 
ATOM     36  C   UNL     1       2.048  10.212  -7.265  0.00  0.00    +0.033 C 
ENDBRANCH  29  36
ENDBRANCH  25  34
ENDBRANCH  24  26
ENDBRANCH  23  24
ENDBRANCH   1  23
TORSDOF 7
