REMARK  Name = ZINC12259970
REMARK  12 active torsions:
REMARK  status: ('A' for Active; 'I' for Inactive)
REMARK    1  A    between atoms: C_1  and  C_2
REMARK    2  A    between atoms: C_3  and  C_30
REMARK    3  A    between atoms: N_4  and  C_24
REMARK    4  A    between atoms: C_5  and  N_9
REMARK    5  A    between atoms: C_6  and  C_7
REMARK    6  A    between atoms: C_10  and  C_12
REMARK    7  A    between atoms: C_12  and  S_13
REMARK    8  A    between atoms: S_13  and  C_14
REMARK    9  A    between atoms: C_17  and  C_20
REMARK   10  A    between atoms: C_20  and  C_21
REMARK   11  A    between atoms: C_20  and  C_22
REMARK   12  A    between atoms: C_20  and  C_23
REMARK                            x       y       z     vdW  Elec       q    Type
REMARK                         _______ _______ _______ _____ _____    ______ ____
ROOT
ATOM      1  N   UNL     1       0.054  -3.375   1.435  0.00  0.00    -0.270 N 
ATOM      2  C   UNL     1      -0.528  -3.411   2.650  0.00  0.00    +0.229 C 
ATOM      3  O   UNL     1      -1.149  -2.451   3.054  0.00  0.00    -0.275 OA
ATOM      4  H   UNL     1       0.477  -4.170   1.076  0.00  0.00    +0.156 HD
ENDROOT
BRANCH   1   9
ATOM      5  C   UNL     1       0.033   1.496   0.089  0.00  0.00    +0.047 C 
ATOM      6  C   UNL     1       0.040  -0.010   0.057  0.00  0.00    -0.011 A 
ATOM      7  C   UNL     1       0.044  -0.789  -1.037  0.00  0.00    +0.022 A 
ATOM      8  N   UNL     1       0.051  -2.105  -0.656  0.00  0.00    -0.329 N 
ATOM      9  C   UNL     1       0.050  -2.199   0.699  0.00  0.00    +0.124 A 
ATOM     10  C   UNL     1       0.048  -0.911   1.216  0.00  0.00    +0.095 A 
ATOM     11  C   UNL     1       0.043  -0.294  -2.460  0.00  0.00    +0.064 C 
BRANCH   8  12
ATOM     12  C   UNL     1       0.056  -3.244  -1.576  0.00  0.00    +0.089 C 
ATOM     13  C   UNL     1      -1.120  -4.168  -1.252  0.00  0.00    +0.025 C 
ATOM     14  C   UNL     1      -1.114  -5.358  -2.213  0.00  0.00    +0.002 C 
ATOM     15  C   UNL     1       0.198  -6.130  -2.060  0.00  0.00    +0.000 C 
ATOM     16  C   UNL     1       1.374  -5.207  -2.384  0.00  0.00    +0.002 C 
ATOM     17  C   UNL     1       1.368  -4.017  -1.423  0.00  0.00    +0.025 C 
ENDBRANCH   8  12
BRANCH  10  18
ATOM     18  C   UNL     1       0.052  -0.537   2.599  0.00  0.00    +0.103 C 
ATOM     19  N   UNL     1       0.055  -0.241   3.695  0.00  0.00    -0.191 NA
ENDBRANCH  10  18
ENDBRANCH   1   9
BRANCH   2  20
ATOM     20  C   UNL     1      -0.408  -4.646   3.506  0.00  0.00    +0.173 C 
BRANCH  20  21
ATOM     21  S   UNL     1      -1.165  -4.334   5.126  0.00  0.00    -0.077 S 
BRANCH  21  22
ATOM     22  C   UNL     1      -0.946  -5.850   5.997  0.00  0.00    +0.185 A 
ATOM     23  N   UNL     1      -0.360  -6.933   5.533  0.00  0.00    -0.205 NA
ATOM     24  H   UNL     1      -1.803  -5.495   7.861  0.00  0.00    +0.191 HD
ATOM     25  C   UNL     1      -0.375  -7.886   6.465  0.00  0.00    +0.157 A 
ATOM     26  N   UNL     1      -0.968  -7.430   7.535  0.00  0.00    -0.156 NA
ATOM     27  N   UNL     1      -1.345  -6.105   7.262  0.00  0.00    -0.254 N 
BRANCH  25  28
ATOM     28  C   UNL     1       0.201  -9.270   6.309  0.00  0.00    +0.024 C 
ATOM     29  C   UNL     1       1.700  -9.170   6.018  0.00  0.00    +0.019 C 
ATOM     30  C   UNL     1      -0.016 -10.062   7.601  0.00  0.00    +0.019 C 
ATOM     31  C   UNL     1      -0.497  -9.985   5.150  0.00  0.00    +0.019 C 
ENDBRANCH  25  28
ENDBRANCH  21  22
ENDBRANCH  20  21
ENDBRANCH   2  20
TORSDOF 7
