REMARK  Name = ZINC31036323
REMARK  13 active torsions:
REMARK  status: ('A' for Active; 'I' for Inactive)
REMARK    1  A    between atoms: C_1  and  C_2
REMARK    2  A    between atoms: C_9  and  N_15
REMARK    3  A    between atoms: C_10  and  C_11
REMARK    4  A    between atoms: C_11  and  O_13
REMARK    5  A    between atoms: O_13  and  C_14
REMARK    6  A    between atoms: C_16  and  C_18
REMARK    7  A    between atoms: C_18  and  N_19
REMARK    8  A    between atoms: N_19  and  C_20
REMARK    9  A    between atoms: N_19  and  C_21
REMARK   10  A    between atoms: C_21  and  C_22
REMARK   11  A    between atoms: N_24  and  C_25
REMARK   12  A    between atoms: C_30  and  S_31
REMARK   13  A    between atoms: S_31  and  C_32
REMARK                            x       y       z     vdW  Elec       q    Type
REMARK                         _______ _______ _______ _____ _____    ______ ____
ROOT
ATOM      1  N   UNL     1      -1.523  -2.333  -2.299  0.00  0.00    -0.281 N 
ATOM      2  C   UNL     1      -2.390  -3.200  -2.859  0.00  0.00    +0.201 C 
ATOM      3  O   UNL     1      -2.164  -4.391  -2.826  0.00  0.00    -0.278 OA
ATOM      4  H   UNL     1      -1.728  -1.253  -2.329  0.00  0.00    +0.155 HD
ENDROOT
BRANCH   1  12
ATOM      5  C   UNL     1       4.884  -5.386   0.992  0.00  0.00    +0.008 C 
ATOM      6  C   UNL     1       3.965  -4.441   0.215  0.00  0.00    -0.009 C 
ATOM      7  C   UNL     1       3.621  -3.226   1.083  0.00  0.00    +0.008 C 
ATOM      8  C   UNL     1       2.914  -2.166   0.236  0.00  0.00    +0.037 C 
ATOM      9  C   UNL     1       1.741  -2.818  -0.487  0.00  0.00    -0.021 A 
ATOM     10  C   UNL     1       1.673  -4.159  -0.633  0.00  0.00    -0.004 A 
ATOM     11  S   UNL     1       0.166  -4.442  -1.518  0.00  0.00    -0.077 S 
ATOM     12  C   UNL     1      -0.371  -2.803  -1.687  0.00  0.00    +0.086 A 
ATOM     13  C   UNL     1       0.632  -2.075  -1.061  0.00  0.00    +0.091 A 
ATOM     14  C   UNL     1       2.664  -5.172  -0.149  0.00  0.00    +0.046 C 
BRANCH  13  15
ATOM     15  C   UNL     1       0.572  -0.614  -0.979  0.00  0.00    +0.342 C 
ATOM     16  O   UNL     1       1.069   0.065  -1.857  0.00  0.00    -0.245 OA
BRANCH  15  17
ATOM     17  O   UNL     1      -0.034  -0.022   0.071  0.00  0.00    -0.464 OA
ATOM     18  C   UNL     1      -0.055   1.429   0.087  0.00  0.00    +0.280 C 
ENDBRANCH  15  17
ENDBRANCH  13  15
ENDBRANCH   1  12
BRANCH   2  19
ATOM     19  C   UNL     1      -3.642  -2.689  -3.525  0.00  0.00    +0.019 C 
BRANCH  19  20
ATOM     20  N   UNL     1      -4.414  -3.822  -4.052  0.00  0.00    +0.389 N 
ATOM     21  C   UNL     1      -3.688  -4.493  -5.139  0.00  0.00    -0.095 C 
ATOM     22  H   UNL     1      -4.548  -4.548  -3.236  0.00  0.00    -0.081 HD
BRANCH  20  23
ATOM     23  C   UNL     1      -5.746  -3.390  -4.495  0.00  0.00    +0.019 C 
BRANCH  23  24
ATOM     24  C   UNL     1      -6.591  -4.601  -4.797  0.00  0.00    +0.201 C 
ATOM     25  O   UNL     1      -6.130  -5.713  -4.656  0.00  0.00    -0.278 OA
ATOM     26  N   UNL     1      -7.861  -4.447  -5.223  0.00  0.00    -0.286 N 
ATOM     27  H   UNL     1      -8.304  -3.442  -5.280  0.00  0.00    +0.155 HD
BRANCH  26  28
ATOM     28  C   UNL     1      -8.617  -5.568  -5.593  0.00  0.00    +0.047 A 
ATOM     29  C   UNL     1      -8.449  -6.771  -4.924  0.00  0.00    +0.024 A 
ATOM     30  C   UNL     1      -9.199  -7.874  -5.287  0.00  0.00    +0.002 A 
ATOM     31  C   UNL     1     -10.111  -7.785  -6.323  0.00  0.00    +0.001 A 
ATOM     32  C   UNL     1     -10.281  -6.592  -6.999  0.00  0.00    +0.016 A 
ATOM     33  C   UNL     1      -9.536  -5.478  -6.638  0.00  0.00    +0.029 A 
BRANCH  33  34
ATOM     34  S   UNL     1      -9.750  -3.955  -7.498  0.00  0.00    -0.127 S 
ATOM     35  C   UNL     1     -11.020  -4.326  -8.739  0.00  0.00    +0.090 C 
ENDBRANCH  33  34
ENDBRANCH  26  28
ENDBRANCH  23  24
ENDBRANCH  20  23
ENDBRANCH  19  20
ENDBRANCH   2  19
TORSDOF 9
