REMARK  Name = ZINC39652817
REMARK  5 active torsions:
REMARK  status: ('A' for Active; 'I' for Inactive)
REMARK    1  A    between atoms: C_5  and  C_7
REMARK    2  A    between atoms: C_11  and  C_20
REMARK    3  A    between atoms: N_22  and  C_23
REMARK    4  A    between atoms: C_23  and  C_24
REMARK    5  A    between atoms: C_24  and  C_25
REMARK                            x       y       z     vdW  Elec       q    Type
REMARK                         _______ _______ _______ _____ _____    ______ ____
ROOT
ATOM      1  C   UNL     1       1.354  -2.439  -0.124  0.00  0.00    +0.248 C 
ATOM      2  O   UNL     1       2.357  -3.113  -0.251  0.00  0.00    -0.270 OA
ATOM      3  N   UNL     1       0.154  -3.037   0.022  0.00  0.00    -0.296 N 
ATOM      4  C   UNL     1      -1.179  -2.393   0.083  0.00  0.00    +0.121 C 
ATOM      5  C   UNL     1      -2.104  -3.335  -0.721  0.00  0.00    +0.100 C 
ATOM      6  C   UNL     1      -1.410  -4.706  -0.667  0.00  0.00    -0.004 C 
ATOM      7  C   UNL     1      -0.129  -4.486   0.150  0.00  0.00    +0.115 C 
ATOM      8  C   UNL     1      -2.310  -5.727   0.023  0.00  0.00    -0.010 C 
ATOM      9  C   UNL     1      -1.623  -7.095   0.012  0.00  0.00    -0.082 C 
ATOM     10  N   UNL     1      -1.360  -7.503  -1.373  0.00  0.00    +0.379 N 
ATOM     11  C   UNL     1      -0.421  -6.566  -2.001  0.00  0.00    -0.082 C 
ATOM     12  C   UNL     1      -1.057  -5.175  -2.075  0.00  0.00    -0.010 C 
ATOM     13  H   UNL     1      -0.964  -8.430  -1.380  0.00  0.00    -0.086 HD
ATOM     14  H   UNL     1      -2.226  -7.506  -1.891  0.00  0.00    -0.086 HD
ENDROOT
BRANCH   1  19
ATOM     15  C   UNL     1       0.700   1.172   0.673  0.00  0.00    +0.001 A 
ATOM     16  C   UNL     1       1.625   1.800  -0.142  0.00  0.00    +0.001 A 
ATOM     17  C   UNL     1       2.463   1.054  -0.951  0.00  0.00    +0.021 A 
ATOM     18  C   UNL     1       2.381  -0.325  -0.951  0.00  0.00    +0.053 A 
ATOM     19  C   UNL     1       1.449  -0.964  -0.130  0.00  0.00    +0.055 A 
ATOM     20  C   UNL     1       0.607  -0.204   0.683  0.00  0.00    +0.014 A 
ATOM     21 CL   UNL     1       3.432  -1.260  -1.967  0.00  0.00    -0.083 Cl
ENDBRANCH   1  19
BRANCH   5  22
ATOM     22  C   UNL     1      -2.225  -2.860  -2.146  0.00  0.00    +0.218 C 
ATOM     23  O   UNL     1      -1.305  -2.265  -2.667  0.00  0.00    -0.275 OA
ATOM     24  N   UNL     1      -3.354  -3.098  -2.842  0.00  0.00    -0.315 N 
ATOM     25  H   UNL     1      -4.090  -3.573  -2.425  0.00  0.00    +0.149 HD
BRANCH  24  26
ATOM     26  C   UNL     1      -3.471  -2.636  -4.227  0.00  0.00    +0.109 C 
BRANCH  26  27
ATOM     27  C   UNL     1      -4.842  -3.031  -4.782  0.00  0.00    +0.054 C 
BRANCH  27  28
ATOM     28  C   UNL     1      -4.962  -2.557  -6.207  0.00  0.00    -0.046 A 
ATOM     29  C   UNL     1      -5.467  -1.298  -6.476  0.00  0.00    +0.005 A 
ATOM     30  C   UNL     1      -5.577  -0.862  -7.783  0.00  0.00    +0.015 A 
ATOM     31  C   UNL     1      -5.183  -1.686  -8.822  0.00  0.00    +0.018 A 
ATOM     32  C   UNL     1      -4.678  -2.945  -8.553  0.00  0.00    +0.015 A 
ATOM     33  C   UNL     1      -4.563  -3.378  -7.245  0.00  0.00    +0.005 A 
ATOM     34 BR   UNL     1      -5.334  -1.091 -10.611  0.00  0.00    -0.050 Br
ENDBRANCH  27  28
ENDBRANCH  26  27
ENDBRANCH  24  26
ENDBRANCH   5  22
TORSDOF 5
