REMARK  Name = ZINC18205579
REMARK  9 active torsions:
REMARK  status: ('A' for Active; 'I' for Inactive)
REMARK    1  A    between atoms: C_1  and  C_2
REMARK    2  A    between atoms: C_7  and  C_9
REMARK    3  A    between atoms: C_9  and  C_11
REMARK    4  A    between atoms: C_9  and  C_18
REMARK    5  A    between atoms: C_18  and  C_20
REMARK    6  A    between atoms: C_18  and  C_22
REMARK    7  A    between atoms: C_27  and  C_30
REMARK    8  A    between atoms: C_33  and  O_36
REMARK    9  A    between atoms: O_36  and  C_37
REMARK                            x       y       z     vdW  Elec       q    Type
REMARK                         _______ _______ _______ _____ _____    ______ ____
ROOT
ATOM      1  C   UNL     1      -0.122   1.740   0.219  0.00  0.00    +0.063 C 
ATOM      2  C   UNL     1       0.190   0.266   0.245  0.00  0.00    +0.047 C 
ATOM      3  N   UNL     1       0.517  -0.457  -0.754  0.00  0.00    -0.179 NA
ATOM      4  N   UNL     1       0.744  -1.788  -0.416  0.00  0.00    -0.135 N 
ATOM      5  C   UNL     1       0.560  -1.992   0.905  0.00  0.00    +0.250 C 
ATOM      6  O   UNL     1       0.678  -3.034   1.514  0.00  0.00    -0.273 OA
ATOM      7  C   UNL     1       0.179  -0.634   1.463  0.00  0.00    +0.132 C 
ATOM      8  C   UNL     1       1.112  -2.777  -1.322  0.00  0.00    +0.188 A 
ATOM      9  N   UNL     1       1.322  -2.683  -2.622  0.00  0.00    -0.223 NA
ATOM     10  C   UNL     1       1.672  -3.740  -3.340  0.00  0.00    +0.080 A 
ATOM     11  C   UNL     1       1.819  -4.951  -2.723  0.00  0.00    +0.077 A 
ATOM     12  S   UNL     1       1.434  -4.511  -1.033  0.00  0.00    -0.058 S 
ENDROOT
BRANCH  10  13
ATOM     13  C   UNL     1       1.902  -3.610  -4.800  0.00  0.00    +0.001 A 
ATOM     14  C   UNL     1       2.264  -4.726  -5.551  0.00  0.00    +0.013 A 
ATOM     15  C   UNL     1       2.477  -4.602  -6.909  0.00  0.00    +0.046 A 
ATOM     16  C   UNL     1       2.332  -3.367  -7.526  0.00  0.00    +0.120 A 
ATOM     17  C   UNL     1       1.971  -2.254  -6.779  0.00  0.00    +0.046 A 
ATOM     18  C   UNL     1       1.751  -2.372  -5.423  0.00  0.00    +0.013 A 
BRANCH  16  19
ATOM     19  O   UNL     1       2.543  -3.248  -8.863  0.00  0.00    -0.495 OA
ATOM     20  C   UNL     1       2.375  -1.949  -9.433  0.00  0.00    +0.277 C 
ENDBRANCH  16  19
ENDBRANCH  10  13
BRANCH   7  21
ATOM     21  C   UNL     1      -1.219  -0.684   2.084  0.00  0.00    +0.062 C 
BRANCH  21  22
ATOM     22  C   UNL     1      -1.572   0.674   2.633  0.00  0.00    -0.041 A 
ATOM     23  C   UNL     1      -0.786   1.249   3.614  0.00  0.00    +0.005 A 
ATOM     24  C   UNL     1      -1.109   2.494   4.119  0.00  0.00    +0.020 A 
ATOM     25  C   UNL     1      -2.221   3.166   3.642  0.00  0.00    +0.041 A 
ATOM     26  C   UNL     1      -3.008   2.591   2.660  0.00  0.00    +0.020 A 
ATOM     27  C   UNL     1      -2.680   1.348   2.152  0.00  0.00    +0.005 A 
ATOM     28 CL   UNL     1      -2.628   4.730   4.276  0.00  0.00    -0.084 Cl
ENDBRANCH  21  22
BRANCH  21  29
ATOM     29  C   UNL     1      -1.238  -1.713   3.216  0.00  0.00    +0.185 C 
BRANCH  29  30
ATOM     30  C   UNL     1      -2.577  -1.675   3.906  0.00  0.00    +0.228 C 
ATOM     31  O   UNL     1      -2.655  -1.305   5.058  0.00  0.00    -0.275 OA
ATOM     32  N   UNL     1      -3.688  -2.053   3.243  0.00  0.00    -0.328 N 
ATOM     33  H   UNL     1      -3.637  -2.279   2.301  0.00  0.00    +0.145 HD
ATOM     34  H   UNL     1      -4.538  -2.099   3.707  0.00  0.00    +0.145 HD
ENDBRANCH  29  30
BRANCH  29  35
ATOM     35  C   UNL     1      -0.177  -1.395   4.186  0.00  0.00    +0.076 C 
ATOM     36  N   UNL     1       0.642  -1.150   4.934  0.00  0.00    -0.196 NA
ENDBRANCH  29  35
ENDBRANCH  21  29
ENDBRANCH   7  21
TORSDOF 7
