REMARK  Name = ZINC60291858
REMARK  3 active torsions:
REMARK  status: ('A' for Active; 'I' for Inactive)
REMARK    1  A    between atoms: C_10  and  C_12
REMARK    2  A    between atoms: C_19  and  C_21
REMARK    3  A    between atoms: C_21  and  C_22
REMARK                            x       y       z     vdW  Elec       q    Type
REMARK                         _______ _______ _______ _____ _____    ______ ____
ROOT
ATOM      1  C   UNL     1       4.738   0.036  -0.910  0.00  0.00    +0.223 C 
ATOM      2  O   UNL     1       5.295  -0.575  -1.797  0.00  0.00    -0.275 OA
ATOM      3  N   UNL     1       4.917   1.367  -0.794  0.00  0.00    -0.297 N 
ATOM      4  C   UNL     1       4.362   2.100   0.353  0.00  0.00    +0.108 C 
ATOM      5  C   UNL     1       5.489   2.895   1.021  0.00  0.00    +0.019 C 
ATOM      6  C   UNL     1       6.169   3.783  -0.023  0.00  0.00    +0.003 C 
ATOM      7  C   UNL     1       6.781   2.908  -1.119  0.00  0.00    +0.023 C 
ATOM      8  C   UNL     1       5.674   2.112  -1.809  0.00  0.00    +0.085 C 
ENDROOT
BRANCH   1  18
ATOM      9  C   UNL     1       1.797  -3.780  -2.073  0.00  0.00    +0.000 A 
ATOM     10  C   UNL     1       1.971  -2.527  -2.633  0.00  0.00    +0.000 A 
ATOM     11  C   UNL     1       2.636  -1.548  -1.926  0.00  0.00    +0.004 A 
ATOM     12  C   UNL     1       3.136  -1.809  -0.656  0.00  0.00    -0.032 A 
ATOM     13  C   UNL     1       2.967  -3.058  -0.101  0.00  0.00    -0.043 A 
ATOM     14  C   UNL     1       2.293  -4.042  -0.813  0.00  0.00    +0.004 A 
ATOM     15  C   UNL     1       3.496  -3.416   1.263  0.00  0.00    +0.035 C 
ATOM     16  C   UNL     1       3.811  -2.156   2.066  0.00  0.00    +0.006 C 
ATOM     17  C   UNL     1       4.693  -1.242   1.207  0.00  0.00    +0.018 C 
ATOM     18  C   UNL     1       3.846  -0.692   0.062  0.00  0.00    +0.105 C 
ENDBRANCH   1  18
BRANCH   8  19
ATOM     19  C   UNL     1       6.295   1.133  -2.807  0.00  0.00    +0.118 C 
BRANCH  19  20
ATOM     20  C   UNL     1       5.216   0.564  -3.690  0.00  0.00    +0.212 C 
ATOM     21  O   UNL     1       4.063   0.907  -3.537  0.00  0.00    -0.276 OA
ATOM     22  N   UNL     1       5.531  -0.328  -4.651  0.00  0.00    -0.329 N 
ATOM     23  H   UNL     1       6.453  -0.603  -4.774  0.00  0.00    +0.145 HD
ATOM     24  H   UNL     1       4.836  -0.694  -5.220  0.00  0.00    +0.145 HD
ENDBRANCH  19  20
ENDBRANCH   8  19
TORSDOF 3
