REMARK  Name = ZINC08971632
REMARK  4 active torsions:
REMARK  status: ('A' for Active; 'I' for Inactive)
REMARK    1  A    between atoms: C_8  and  C_26
REMARK    2  A    between atoms: C_10  and  C_17
REMARK    3  A    between atoms: C_21  and  N_23
REMARK    4  A    between atoms: C_26  and  C_28
REMARK                            x       y       z     vdW  Elec       q    Type
REMARK                         _______ _______ _______ _____ _____    ______ ____
ROOT
ATOM      1  C   UNL     1      -4.354   5.646   0.841  0.00  0.00    +0.000 A 
ATOM      2  C   UNL     1      -5.511   5.844   1.572  0.00  0.00    +0.002 A 
ATOM      3  C   UNL     1      -6.282   4.769   1.962  0.00  0.00    +0.023 A 
ATOM      4  C   UNL     1      -5.901   3.473   1.622  0.00  0.00    +0.036 A 
ATOM      5  C   UNL     1      -4.735   3.285   0.888  0.00  0.00    -0.027 A 
ATOM      6  C   UNL     1      -3.968   4.362   0.499  0.00  0.00    +0.004 A 
ATOM      7  C   UNL     1      -4.603   1.799   0.690  0.00  0.00    +0.051 C 
ATOM      8  C   UNL     1      -3.305   1.273   1.308  0.00  0.00    +0.069 C 
ATOM      9  C   UNL     1      -2.363   1.007   0.118  0.00  0.00    +0.016 C 
ATOM     10  C   UNL     1      -3.157   1.392  -1.143  0.00  0.00    -0.059 C 
ATOM     11  C   UNL     1      -5.115   0.077  -0.944  0.00  0.00    -0.076 C 
ATOM     12  C   UNL     1      -4.452  -0.356  -2.276  0.00  0.00    -0.020 C 
ATOM     13  C   UNL     1      -3.035   0.253  -2.172  0.00  0.00    -0.016 C 
ATOM     14  C   UNL     1      -5.806   1.212   1.383  0.00  0.00    +0.212 C 
ATOM     15  O   UNL     1      -6.091   0.036   1.465  0.00  0.00    -0.277 OA
ATOM     16  N   UNL     1      -6.503   2.244   1.895  0.00  0.00    -0.286 N 
ATOM     17  H   UNL     1      -7.328   2.144   2.395  0.00  0.00    +0.155 HD
ATOM     18  N   UNL     1      -4.548   1.426  -0.737  0.00  0.00    +0.395 N 
ATOM     19  H   UNL     1      -5.068   2.113  -1.296  0.00  0.00    -0.079 HD
ENDROOT
BRANCH   9  20
ATOM     20  C   UNL     1      -1.126   1.859   0.234  0.00  0.00    -0.043 A 
ATOM     21  C   UNL     1      -1.190   3.090   0.862  0.00  0.00    +0.004 A 
ATOM     22  C   UNL     1      -0.057   3.874   0.964  0.00  0.00    +0.002 A 
ATOM     23  C   UNL     1       1.143   3.426   0.442  0.00  0.00    +0.033 A 
ATOM     24  C   UNL     1       1.208   2.194  -0.181  0.00  0.00    +0.126 A 
ATOM     25  C   UNL     1       0.074   1.409  -0.283  0.00  0.00    +0.036 A 
BRANCH  24  26
ATOM     26  N   UNL     1       2.493   1.714  -0.740  0.00  0.00    +0.056 N 
ATOM     27  O   UNL     1       2.550   0.629  -1.289  0.00  0.00    -0.126 OA
ATOM     28  O   UNL     1       3.491   2.406  -0.651  0.00  0.00    -0.126 OA
ENDBRANCH  24  26
ENDBRANCH   9  20
BRANCH   8  29
ATOM     29  C   UNL     1      -3.567  -0.005   2.062  0.00  0.00    +0.166 C 
ATOM     30  O   UNL     1      -3.503  -1.067   1.491  0.00  0.00    -0.292 OA
BRANCH  29  31
ATOM     31  C   UNL     1      -3.900   0.042   3.499  0.00  0.00    +0.021 A 
ATOM     32  C   UNL     1      -3.974   1.262   4.182  0.00  0.00    +0.031 A 
ATOM     33  C   UNL     1      -4.295   1.258   5.525  0.00  0.00    +0.111 A 
ATOM     34  N   UNL     1      -4.520   0.128   6.165  0.00  0.00    -0.263 NA
ATOM     35  C   UNL     1      -4.456  -1.043   5.562  0.00  0.00    +0.111 A 
ATOM     36  C   UNL     1      -4.147  -1.134   4.219  0.00  0.00    +0.031 A 
ENDBRANCH  29  31
ENDBRANCH   8  29
TORSDOF 4
