REMARK  Name = ZINC14128578
REMARK  10 active torsions:
REMARK  status: ('A' for Active; 'I' for Inactive)
REMARK    1  A    between atoms: C_1  and  C_2
REMARK    2  A    between atoms: C_2  and  N_3
REMARK    3  A    between atoms: C_7  and  C_9
REMARK    4  A    between atoms: C_9  and  C_11
REMARK    5  A    between atoms: C_9  and  S_12
REMARK    6  A    between atoms: S_12  and  C_13
REMARK    7  A    between atoms: C_16  and  C_20
REMARK    8  A    between atoms: N_17  and  C_18
REMARK    9  A    between atoms: C_18  and  C_19
REMARK   10  A    between atoms: C_22  and  C_30
REMARK                            x       y       z     vdW  Elec       q    Type
REMARK                         _______ _______ _______ _____ _____    ______ ____
ROOT
ATOM      1  C   UNL     1      -5.912   2.747   0.267  0.00  0.00    +0.193 A 
ATOM      2  N   UNL     1      -5.235   1.633   0.084  0.00  0.00    -0.122 NA
ATOM      3  N   UNL     1      -3.995   1.900  -0.122  0.00  0.00    -0.128 NA
ATOM      4  C   UNL     1      -3.804   3.200  -0.084  0.00  0.00    +0.166 A 
ATOM      5  N   UNL     1      -5.026   3.780   0.173  0.00  0.00    -0.302 N 
ENDROOT
BRANCH   4   6
ATOM      6  C   UNL     1      -2.522   3.904  -0.273  0.00  0.00    +0.030 A 
ATOM      7  C   UNL     1      -2.101   4.891   0.613  0.00  0.00    +0.040 A 
ATOM      8  C   UNL     1      -0.878   5.532   0.396  0.00  0.00    +0.072 A 
ATOM      9  N   UNL     1      -0.099   5.236  -0.627  0.00  0.00    -0.247 NA
ATOM     10  C   UNL     1      -0.422   4.303  -1.526  0.00  0.00    +0.072 A 
ATOM     11  C   UNL     1      -1.641   3.592  -1.400  0.00  0.00    +0.011 A 
ATOM     12  C   UNL     1      -1.980   2.620  -2.346  0.00  0.00    +0.011 A 
ATOM     13  C   UNL     1      -1.128   2.357  -3.377  0.00  0.00    +0.001 A 
ATOM     14  C   UNL     1       0.071   3.053  -3.506  0.00  0.00    +0.002 A 
ATOM     15  C   UNL     1       0.429   4.009  -2.606  0.00  0.00    +0.028 A 
BRANCH   8  16
ATOM     16  C   UNL     1      -0.441   6.582   1.347  0.00  0.00    +0.000 A 
ATOM     17  C   UNL     1      -1.246   6.920   2.434  0.00  0.00    +0.010 A 
ATOM     18  C   UNL     1      -0.833   7.895   3.319  0.00  0.00    +0.001 A 
ATOM     19  C   UNL     1       0.373   8.543   3.124  0.00  0.00    +0.000 A 
ATOM     20  C   UNL     1       1.175   8.215   2.045  0.00  0.00    +0.001 A 
ATOM     21  C   UNL     1       0.773   7.238   1.156  0.00  0.00    +0.010 A 
ENDBRANCH   8  16
ENDBRANCH   4   6
BRANCH   5  22
ATOM     22  C   UNL     1      -5.316   5.210   0.313  0.00  0.00    +0.122 C 
ATOM     23  C   UNL     1      -5.615   5.806  -1.064  0.00  0.00    +0.027 C 
ENDBRANCH   5  22
BRANCH   1  24
ATOM     24  S   UNL     1      -7.641   2.878   0.582  0.00  0.00    -0.074 S 
BRANCH  24  25
ATOM     25  C   UNL     1      -8.098   1.127   0.564  0.00  0.00    +0.137 C 
ATOM     26  C   UNL     1      -7.417   0.411   1.733  0.00  0.00    +0.029 C 
BRANCH  25  31
ATOM     27  N   UNL     1     -12.158  -1.394   0.050  0.00  0.00    -0.299 N 
ATOM     28  C   UNL     1     -11.544  -0.257   0.433  0.00  0.00    +0.306 C 
ATOM     29  O   UNL     1     -12.197   0.663   0.886  0.00  0.00    -0.252 OA
ATOM     30  N   UNL     1     -10.207  -0.141   0.314  0.00  0.00    -0.239 N 
ATOM     31  C   UNL     1      -9.593   0.996   0.698  0.00  0.00    +0.233 C 
ATOM     32  O   UNL     1     -10.244   1.914   1.149  0.00  0.00    -0.274 OA
ATOM     33  H   UNL     1     -11.638  -2.128  -0.312  0.00  0.00    +0.150 HD
ATOM     34  H   UNL     1      -9.686  -0.875  -0.048  0.00  0.00    +0.159 HD
BRANCH  27  36
ATOM     35  C   UNL     1     -14.050  -2.898  -0.323  0.00  0.00    +0.024 C 
ATOM     36  C   UNL     1     -13.612  -1.521   0.179  0.00  0.00    +0.102 C 
ENDBRANCH  27  36
ENDBRANCH  25  31
ENDBRANCH  24  25
ENDBRANCH   1  24
TORSDOF 7
