REMARK  Name = ZINC41992321
REMARK  7 active torsions:
REMARK  status: ('A' for Active; 'I' for Inactive)
REMARK    1  A    between atoms: C_1  and  C_2
REMARK    2  A    between atoms: C_5  and  C_9
REMARK    3  A    between atoms: C_6  and  C_8
REMARK    4  A    between atoms: C_9  and  C_10
REMARK    5  A    between atoms: C_9  and  C_11
REMARK    6  A    between atoms: C_9  and  S_14
REMARK    7  A    between atoms: S_14  and  C_15
REMARK                            x       y       z     vdW  Elec       q    Type
REMARK                         _______ _______ _______ _____ _____    ______ ____
ROOT
ATOM      1  C   UNL     1      -0.077  -4.291   0.453  0.00  0.00    +0.147 C 
ATOM      2  C   UNL     1       1.167  -4.613   1.284  0.00  0.00    +0.040 C 
ENDROOT
BRANCH   1   7
ATOM      3  C   UNL     1      -0.058   1.314  -0.952  0.00  0.00    +0.044 C 
ATOM      4  C   UNL     1      -0.063  -0.147  -0.586  0.00  0.00    -0.050 A 
ATOM      5  C   UNL     1       1.028  -0.702   0.058  0.00  0.00    +0.004 A 
ATOM      6  C   UNL     1       1.023  -2.043   0.395  0.00  0.00    +0.006 A 
ATOM      7  C   UNL     1      -0.072  -2.829   0.087  0.00  0.00    -0.018 A 
ATOM      8  C   UNL     1      -1.162  -2.274  -0.556  0.00  0.00    -0.045 A 
ATOM      9  C   UNL     1      -1.159  -0.932  -0.889  0.00  0.00    +0.007 A 
ATOM     10  C   UNL     1      -2.356  -3.131  -0.892  0.00  0.00    +0.044 C 
ENDBRANCH   1   7
BRANCH   1  11
ATOM     11  C   UNL     1      -1.313  -4.604   1.256  0.00  0.00    +0.376 C 
ATOM     12  O   UNL     1      -2.122  -5.415   0.839  0.00  0.00    -0.244 OA
ATOM     13  O   UNL     1      -1.504  -4.045   2.323  0.00  0.00    -0.244 OA
ENDBRANCH   1  11
BRANCH   1  14
ATOM     14  S   UNL     1      -0.069  -5.292  -1.060  0.00  0.00    -0.062 S 
BRANCH  14  15
ATOM     15  C   UNL     1      -0.075  -6.953  -0.471  0.00  0.00    +0.211 A 
ATOM     16  N   UNL     1      -0.067  -8.050  -1.238  0.00  0.00    -0.188 NA
ATOM     17  C   UNL     1      -0.075  -9.123  -0.475  0.00  0.00    +0.209 A 
ATOM     18  N   UNL     1      -0.088  -8.719   0.812  0.00  0.00    -0.246 N 
ATOM     19  H   UNL     1      -0.096  -9.287   1.598  0.00  0.00    +0.192 HD
ATOM     20  N   UNL     1      -0.083  -7.315   0.789  0.00  0.00    -0.144 NA
ATOM     21  N   UNL     1      -0.070 -10.433  -0.917  0.00  0.00    -0.328 N 
ATOM     22  H   UNL     1      -0.060 -10.625  -1.867  0.00  0.00    +0.145 HD
ATOM     23  H   UNL     1      -0.077 -11.161  -0.275  0.00  0.00    +0.145 HD
ENDBRANCH  14  15
ENDBRANCH   1  14
TORSDOF 4
