REMARK  Name = ZINC14477549
REMARK  6 active torsions:
REMARK  status: ('A' for Active; 'I' for Inactive)
REMARK    1  A    between atoms: C_1  and  C_2
REMARK    2  A    between atoms: C_4  and  C_36
REMARK    3  A    between atoms: C_6  and  N_8
REMARK    4  A    between atoms: N_8  and  S_9
REMARK    5  A    between atoms: S_9  and  C_12
REMARK    6  A    between atoms: C_25  and  C_28
REMARK                            x       y       z     vdW  Elec       q    Type
REMARK                         _______ _______ _______ _____ _____    ______ ____
ROOT
ATOM      1  C   UNL     1       7.620   1.484  -0.016  0.00  0.00    +0.109 A 
ATOM      2  C   UNL     1       7.324   2.485   0.892  0.00  0.00    +0.030 A 
ATOM      3  C   UNL     1       6.028   2.947   1.002  0.00  0.00    +0.025 A 
ATOM      4  C   UNL     1       5.028   2.408   0.202  0.00  0.00    +0.031 A 
ATOM      5  C   UNL     1       5.320   1.406  -0.710  0.00  0.00    -0.018 A 
ATOM      6  C   UNL     1       6.627   0.949  -0.810  0.00  0.00    +0.034 A 
ATOM      7  C   UNL     1       4.278   0.800  -1.595  0.00  0.00    +0.049 C 
ATOM      8  C   UNL     1       3.886  -0.580  -1.122  0.00  0.00    -0.023 C 
ATOM      9  C   UNL     1       2.605  -0.780  -1.317  0.00  0.00    -0.030 C 
ATOM     10  C   UNL     1       1.968   0.441  -1.953  0.00  0.00    +0.033 C 
ATOM     11  C   UNL     1       2.953   1.588  -1.594  0.00  0.00    +0.029 C 
ATOM     12  C   UNL     1       2.622   2.049  -0.172  0.00  0.00    +0.106 C 
ATOM     13  N   UNL     1       3.719   2.886   0.327  0.00  0.00    -0.336 N 
ATOM     14  H   UNL     1       3.541   3.749   0.732  0.00  0.00    +0.147 HD
ENDROOT
BRANCH  12  15
ATOM     15  C   UNL     1       1.344   2.848  -0.185  0.00  0.00    -0.009 A 
ATOM     16  C   UNL     1       0.850   3.341  -1.378  0.00  0.00    +0.008 A 
ATOM     17  C   UNL     1      -0.322   4.074  -1.391  0.00  0.00    +0.020 A 
ATOM     18  C   UNL     1      -1.001   4.315  -0.209  0.00  0.00    +0.042 A 
ATOM     19  C   UNL     1      -0.510   3.817   0.984  0.00  0.00    +0.040 A 
ATOM     20  C   UNL     1       0.666   3.088   0.997  0.00  0.00    +0.047 A 
ATOM     21 CL   UNL     1       1.286   2.468   2.495  0.00  0.00    -0.083 Cl
ATOM     22 CL   UNL     1      -2.472   5.237  -0.226  0.00  0.00    -0.083 Cl
ENDBRANCH  12  15
BRANCH   1  23
ATOM     23  S   UNL     1       9.273   0.890  -0.159  0.00  0.00    +0.072 S 
ATOM     24  O   UNL     1       9.432   0.449  -1.500  0.00  0.00    -0.150 OA
ATOM     25  O   UNL     1      10.112   1.880   0.422  0.00  0.00    -0.150 OA
BRANCH  23  26
ATOM     26  N   UNL     1       9.394  -0.455   0.799  0.00  0.00    -0.216 N 
ATOM     27  H   UNL     1       9.610  -1.314   0.404  0.00  0.00    +0.174 HD
BRANCH  26  33
ATOM     28  C   UNL     1      10.226   1.884   5.041  0.00  0.00    +0.044 C 
ATOM     29  C   UNL     1       9.577   0.771   4.259  0.00  0.00    -0.048 A 
ATOM     30  C   UNL     1       8.774  -0.150   4.905  0.00  0.00    +0.006 A 
ATOM     31  C   UNL     1       8.177  -1.173   4.191  0.00  0.00    -0.048 A 
ATOM     32  C   UNL     1       8.380  -1.277   2.829  0.00  0.00    +0.028 A 
ATOM     33  C   UNL     1       9.186  -0.353   2.177  0.00  0.00    +0.049 A 
ATOM     34  C   UNL     1       9.789   0.670   2.898  0.00  0.00    +0.028 A 
ATOM     35  C   UNL     1       7.303  -2.175   4.900  0.00  0.00    +0.044 C 
ENDBRANCH  26  33
ENDBRANCH  23  26
ENDBRANCH   1  23
TORSDOF 4
