REMARK  Name = ZINC39630346
REMARK  12 active torsions:
REMARK  status: ('A' for Active; 'I' for Inactive)
REMARK    1  A    between atoms: C_1  and  C_2
REMARK    2  A    between atoms: C_8  and  N_10
REMARK    3  A    between atoms: C_11  and  C_13
REMARK    4  A    between atoms: C_13  and  C_15
REMARK    5  A    between atoms: C_13  and  S_16
REMARK    6  A    between atoms: S_16  and  C_17
REMARK    7  A    between atoms: C_21  and  C_33
REMARK    8  A    between atoms: N_27  and  C_28
REMARK    9  A    between atoms: C_28  and  C_29
REMARK   10  A    between atoms: C_29  and  C_30
REMARK   11  A    between atoms: C_30  and  O_31
REMARK   12  A    between atoms: O_31  and  C_32
REMARK                            x       y       z     vdW  Elec       q    Type
REMARK                         _______ _______ _______ _____ _____    ______ ____
ROOT
ATOM      1  C   UNL     1       0.252   1.983   7.276  0.00  0.00    +0.173 A 
ATOM      2  N   UNL     1      -1.046   1.810   7.224  0.00  0.00    -0.223 NA
ATOM      3  C   UNL     1      -1.863   2.277   8.198  0.00  0.00    +0.080 A 
ATOM      4  C   UNL     1      -3.247   2.091   8.141  0.00  0.00    +0.043 A 
ATOM      5  C   UNL     1      -4.046   2.587   9.164  0.00  0.00    +0.065 A 
ATOM      6  C   UNL     1      -3.472   3.268  10.246  0.00  0.00    +0.016 A 
ATOM      7  C   UNL     1      -2.121   3.455  10.312  0.00  0.00    +0.016 A 
ATOM      8  C   UNL     1      -1.301   2.966   9.296  0.00  0.00    +0.065 A 
ATOM      9  C   UNL     1       0.160   3.145   9.329  0.00  0.00    +0.262 A 
ATOM     10  O   UNL     1       0.703   3.729  10.248  0.00  0.00    -0.267 OA
ATOM     11  N   UNL     1       0.876   2.631   8.302  0.00  0.00    -0.287 N 
ENDROOT
BRANCH   5  12
ATOM     12  C   UNL     1      -5.510   2.394   9.111  0.00  0.00    +0.387 C 
ATOM     13  O   UNL     1      -6.015   1.801   8.169  0.00  0.00    -0.241 OA
ATOM     14  O   UNL     1      -6.217   2.829  10.010  0.00  0.00    -0.241 OA
ENDBRANCH   5  12
BRANCH   1  15
ATOM     15  S   UNL     1       1.237   1.343   5.963  0.00  0.00    -0.075 S 
BRANCH  15  16
ATOM     16  C   UNL     1       0.033   0.579   4.842  0.00  0.00    +0.137 C 
ATOM     17  C   UNL     1      -0.639  -0.603   5.543  0.00  0.00    +0.029 C 
BRANCH  16  19
ATOM     18  N   UNL     1       0.056  -0.038   2.447  0.00  0.00    -0.311 N 
ATOM     19  C   UNL     1       0.738   0.093   3.602  0.00  0.00    +0.226 C 
ATOM     20  O   UNL     1       1.919  -0.179   3.644  0.00  0.00    -0.275 OA
ATOM     21  H   UNL     1      -0.888   0.180   2.413  0.00  0.00    +0.149 HD
BRANCH  18  28
ATOM     22  C   UNL     1      -0.019   1.526   0.010  0.00  0.00    +0.009 C 
ATOM     23  C   UNL     1       0.002  -0.004   0.002  0.00  0.00    +0.006 C 
ATOM     24  C   UNL     1      -1.433  -0.534   0.013  0.00  0.00    +0.005 C 
ATOM     25  C   UNL     1      -1.413  -2.063   0.004  0.00  0.00    +0.000 C 
ATOM     26  C   UNL     1      -0.673  -2.570   1.244  0.00  0.00    +0.002 C 
ATOM     27  C   UNL     1       0.763  -2.041   1.233  0.00  0.00    +0.022 C 
ATOM     28  C   UNL     1       0.742  -0.511   1.242  0.00  0.00    +0.076 C 
ENDBRANCH  18  28
ENDBRANCH  16  19
ENDBRANCH  15  16
ENDBRANCH   1  15
BRANCH  11  29
ATOM     29  C   UNL     1       2.334   2.777   8.289  0.00  0.00    +0.129 C 
BRANCH  29  30
ATOM     30  C   UNL     1       2.710   4.078   7.576  0.00  0.00    +0.050 C 
BRANCH  30  31
ATOM     31  C   UNL     1       4.232   4.230   7.562  0.00  0.00    +0.161 C 
BRANCH  31  32
ATOM     32  O   UNL     1       4.584   5.444   6.896  0.00  0.00    -0.383 OA
ATOM     33  C   UNL     1       5.991   5.684   6.827  0.00  0.00    +0.193 C 
ENDBRANCH  31  32
ENDBRANCH  30  31
ENDBRANCH  29  30
ENDBRANCH  11  29
TORSDOF 9
