REMARK  Name = ZINC39773001
REMARK  15 active torsions:
REMARK  status: ('A' for Active; 'I' for Inactive)
REMARK    1  A    between atoms: C_1  and  C_2
REMARK    2  A    between atoms: C_2  and  C_3
REMARK    3  A    between atoms: C_3  and  C_5
REMARK    4  A    between atoms: C_3  and  S_17
REMARK    5  A    between atoms: N_7  and  C_8
REMARK    6  A    between atoms: C_11  and  N_14
REMARK    7  A    between atoms: S_17  and  C_18
REMARK    8  A    between atoms: C_21  and  C_24
REMARK    9  A    between atoms: N_22  and  C_23
REMARK   10  A    between atoms: C_24  and  C_26
REMARK   11  A    between atoms: C_24  and  N_27
REMARK   12  A    between atoms: C_28  and  C_30
REMARK   13  A    between atoms: C_30  and  C_31
REMARK   14  A    between atoms: C_34  and  O_37
REMARK   15  A    between atoms: O_37  and  C_38
REMARK                            x       y       z     vdW  Elec       q    Type
REMARK                         _______ _______ _______ _____ _____    ______ ____
ROOT
ATOM      1  C   UNL     1       0.355   2.081  -2.930  0.00  0.00    +0.192 A 
ATOM      2  N   UNL     1       1.109   2.712  -2.060  0.00  0.00    -0.122 NA
ATOM      3  N   UNL     1       1.098   3.974  -2.307  0.00  0.00    -0.132 NA
ATOM      4  C   UNL     1       0.344   4.221  -3.341  0.00  0.00    +0.154 A 
ATOM      5  N   UNL     1      -0.152   3.023  -3.778  0.00  0.00    -0.308 N 
ATOM      6  C   UNL     1      -1.044   2.799  -4.918  0.00  0.00    +0.152 C 
ENDROOT
BRANCH   4   7
ATOM      7  C   UNL     1       0.073   5.574  -3.946  0.00  0.00    +0.138 C 
ATOM      8  C   UNL     1      -0.899   6.346  -3.053  0.00  0.00    +0.036 C 
BRANCH   7   9
ATOM      9  N   UNL     1       1.330   6.319  -4.058  0.00  0.00    -0.305 N 
ATOM     10  C   UNL     1       1.456   7.291  -4.983  0.00  0.00    +0.218 C 
ATOM     11  O   UNL     1       0.530   7.550  -5.721  0.00  0.00    -0.275 OA
ATOM     12  H   UNL     1       2.071   6.112  -3.467  0.00  0.00    +0.149 HD
BRANCH  10  13
ATOM     13  C   UNL     1       2.749   8.058  -5.098  0.00  0.00    +0.130 C 
BRANCH  13  14
ATOM     14  C   UNL     1       2.630   9.080  -6.199  0.00  0.00    -0.038 A 
ATOM     15  C   UNL     1       2.976   8.743  -7.495  0.00  0.00    +0.007 A 
ATOM     16  C   UNL     1       2.868   9.678  -8.505  0.00  0.00    +0.046 A 
ATOM     17  C   UNL     1       2.412  10.957  -8.220  0.00  0.00    +0.120 A 
ATOM     18  C   UNL     1       2.065  11.293  -6.919  0.00  0.00    +0.046 A 
ATOM     19  C   UNL     1       2.170  10.352  -5.913  0.00  0.00    +0.007 A 
BRANCH  17  20
ATOM     20  O   UNL     1       2.306  11.879  -9.212  0.00  0.00    -0.495 OA
ATOM     21  C   UNL     1       1.829  13.175  -8.845  0.00  0.00    +0.277 C 
ENDBRANCH  17  20
ENDBRANCH  13  14
ENDBRANCH  10  13
ENDBRANCH   7   9
ENDBRANCH   4   7
BRANCH   1  22
ATOM     22  S   UNL     1       0.060   0.345  -2.995  0.00  0.00    -0.073 S 
BRANCH  22  23
ATOM     23  C   UNL     1       0.909  -0.300  -1.528  0.00  0.00    +0.140 C 
BRANCH  23  24
ATOM     24  C   UNL     1       2.394  -0.084  -1.671  0.00  0.00    +0.231 C 
ATOM     25  O   UNL     1       2.876   0.105  -2.768  0.00  0.00    -0.274 OA
ATOM     26  N   UNL     1       3.186  -0.100  -0.581  0.00  0.00    -0.285 N 
ATOM     27  H   UNL     1       2.793  -0.183   0.302  0.00  0.00    +0.155 HD
BRANCH  26  28
ATOM     28  C   UNL     1       4.574   0.002  -0.723  0.00  0.00    +0.034 A 
ATOM     29  C   UNL     1       5.327   0.646   0.251  0.00  0.00    +0.025 A 
ATOM     30  C   UNL     1       6.697   0.746   0.108  0.00  0.00    +0.034 A 
ATOM     31  C   UNL     1       7.319   0.205  -1.003  0.00  0.00    +0.126 A 
ATOM     32  C   UNL     1       6.572  -0.436  -1.974  0.00  0.00    +0.034 A 
ATOM     33  C   UNL     1       5.202  -0.544  -1.834  0.00  0.00    +0.025 A 
BRANCH  31  34
ATOM     34  N   UNL     1       8.788   0.314  -1.153  0.00  0.00    +0.056 N 
ATOM     35  O   UNL     1       9.442   0.874  -0.305  0.00  0.00    -0.126 OA
ATOM     36  O   UNL     1       9.333  -0.158  -2.123  0.00  0.00    -0.126 OA
ENDBRANCH  31  34
ENDBRANCH  26  28
ENDBRANCH  23  24
BRANCH  23  38
ATOM     37  C   UNL     1      -0.865  -2.007  -1.105  0.00  0.00    +0.005 C 
ATOM     38  C   UNL     1       0.623  -1.797  -1.390  0.00  0.00    +0.020 C 
ENDBRANCH  23  38
ENDBRANCH  22  23
ENDBRANCH   1  22
TORSDOF 11
