REMARK  Name = ZINC12155797
REMARK  10 active torsions:
REMARK  status: ('A' for Active; 'I' for Inactive)
REMARK    1  A    between atoms: C_1  and  O_2
REMARK    2  A    between atoms: O_2  and  C_3
REMARK    3  A    between atoms: C_6  and  C_10
REMARK    4  A    between atoms: C_7  and  O_9
REMARK    5  A    between atoms: C_10  and  N_63
REMARK    6  A    between atoms: C_13  and  C_16
REMARK    7  A    between atoms: C_13  and  O_34
REMARK    8  A    between atoms: C_23  and  C_25
REMARK    9  A    between atoms: N_27  and  C_28
REMARK   10  A    between atoms: C_28  and  C_29
REMARK                            x       y       z     vdW  Elec       q    Type
REMARK                         _______ _______ _______ _____ _____    ______ ____
ROOT
ATOM      1  C   UNL     1       1.300  -2.024  -0.684  0.00  0.00    -0.075 C 
ATOM      2  C   UNL     1       1.253  -0.495  -0.731  0.00  0.00    +0.021 C 
ATOM      3  C   UNL     1       0.002  -0.004   0.002  0.00  0.00    +0.088 C 
ATOM      4  C   UNL     1       0.026  -0.523   1.442  0.00  0.00    +0.021 C 
ATOM      5  C   UNL     1       0.110  -2.051   1.427  0.00  0.00    -0.075 C 
ATOM      6  N   UNL     1       1.348  -2.458   0.728  0.00  0.00    +0.383 N 
ATOM      7  H   UNL     1       2.151  -2.013   1.187  0.00  0.00    -0.081 HD
ENDROOT
BRANCH   3   8
ATOM      8  C   UNL     1      -0.018   1.503   0.010  0.00  0.00    -0.015 A 
ATOM      9  C   UNL     1       1.177   2.209   0.003  0.00  0.00    +0.010 A 
ATOM     10  C   UNL     1       1.182   3.587   0.011  0.00  0.00    +0.047 A 
ATOM     11  C   UNL     1      -0.022   4.283   0.026  0.00  0.00    +0.136 A 
ATOM     12  C   UNL     1      -1.230   3.562   0.033  0.00  0.00    +0.021 A 
ATOM     13  C   UNL     1      -1.213   2.165   0.020  0.00  0.00    +0.018 A 
ATOM     14  C   UNL     1      -2.292   4.568   0.049  0.00  0.00    +0.063 A 
ATOM     15  C   UNL     1      -1.667   5.774   0.050  0.00  0.00    +0.190 A 
ATOM     16  O   UNL     1      -0.329   5.594   0.036  0.00  0.00    -0.450 OA
BRANCH  15  17
ATOM     17  C   UNL     1      -2.345   7.078   0.064  0.00  0.00    +0.280 C 
ATOM     18  O   UNL     1      -3.560   7.132   0.076  0.00  0.00    -0.267 OA
ATOM     19  N   UNL     1      -1.620   8.214   0.064  0.00  0.00    -0.304 N 
ATOM     20  H   UNL     1      -0.651   8.171   0.054  0.00  0.00    +0.149 HD
BRANCH  19  21
ATOM     21  C   UNL     1      -2.296   9.514   0.079  0.00  0.00    +0.147 C 
BRANCH  21  22
ATOM     22  C   UNL     1      -1.267  10.615   0.075  0.00  0.00    +0.007 A 
ATOM     23  C   UNL     1      -0.690  11.242  -0.979  0.00  0.00    +0.013 A 
ATOM     24  C   UNL     1       0.238  12.238  -0.742  0.00  0.00    +0.008 A 
ATOM     25  C   UNL     1       0.552  12.552   0.539  0.00  0.00    +0.045 A 
ATOM     26  S   UNL     1      -0.485  11.428   1.460  0.00  0.00    -0.100 S 
ENDBRANCH  21  22
ENDBRANCH  19  21
ENDBRANCH  15  17
ENDBRANCH   3   8
BRANCH   3  27
ATOM     27  O   UNL     1      -1.164  -0.494  -0.663  0.00  0.00    -0.384 OA
ATOM     28  H   UNL     1      -1.995  -0.223  -0.250  0.00  0.00    +0.211 HD
ENDBRANCH   3  27
BRANCH   6  29
ATOM     29  C   UNL     1       1.508  -3.925   0.800  0.00  0.00    -0.039 C 
BRANCH  29  33
ATOM     30  C   UNL     1       0.871  -5.210   4.829  0.00  0.00    +0.124 A 
ATOM     31  C   UNL     1       2.161  -5.039   4.347  0.00  0.00    +0.046 A 
ATOM     32  C   UNL     1       2.364  -4.624   3.045  0.00  0.00    +0.009 A 
ATOM     33  C   UNL     1       1.283  -4.378   2.219  0.00  0.00    -0.022 A 
ATOM     34  C   UNL     1      -0.009  -4.543   2.698  0.00  0.00    +0.122 A 
ATOM     35  C   UNL     1      -0.215  -4.965   4.003  0.00  0.00    +0.091 A 
BRANCH  30  37
ATOM     36  C   UNL     1       1.837  -5.852   6.905  0.00  0.00    +0.277 C 
ATOM     37  O   UNL     1       0.672  -5.618   6.110  0.00  0.00    -0.495 OA
ENDBRANCH  30  37
BRANCH  34  38
ATOM     38  O   UNL     1      -1.071  -4.297   1.887  0.00  0.00    -0.506 OA
ATOM     39  H   UNL     1      -1.370  -5.067   1.385  0.00  0.00    +0.292 HD
ENDBRANCH  34  38
ENDBRANCH  29  33
ENDBRANCH   6  29
TORSDOF 9
