REMARK  Name = ZINC33126338
REMARK  8 active torsions:
REMARK  status: ('A' for Active; 'I' for Inactive)
REMARK    1  A    between atoms: C_1  and  C_2
REMARK    2  A    between atoms: C_2  and  N_3
REMARK    3  A    between atoms: N_3  and  C_4
REMARK    4  A    between atoms: N_3  and  C_12
REMARK    5  A    between atoms: C_4  and  C_5
REMARK    6  A    between atoms: C_12  and  C_13
REMARK    7  A    between atoms: C_21  and  C_24
REMARK    8  A    between atoms: C_27  and  C_30
REMARK                            x       y       z     vdW  Elec       q    Type
REMARK                         _______ _______ _______ _____ _____    ______ ____
ROOT
ATOM      1  C   UNL     1      -1.152   2.106  -1.280  0.00  0.00    +0.032 A 
ATOM      2  C   UNL     1      -0.705   3.127  -2.071  0.00  0.00    +0.093 A 
ATOM      3  C   UNL     1      -1.564   3.659  -3.048  0.00  0.00    +0.273 A 
ATOM      4  O   UNL     1      -1.194   4.569  -3.772  0.00  0.00    -0.266 OA
ATOM      5  N   UNL     1      -2.807   3.149  -3.166  0.00  0.00    -0.201 N 
ATOM      6  C   UNL     1      -3.208   2.127  -2.344  0.00  0.00    +0.158 A 
ATOM      7  N   UNL     1      -2.383   1.632  -1.429  0.00  0.00    -0.234 NA
ATOM      8  C   UNL     1      -4.536   1.800  -2.690  0.00  0.00    +0.075 A 
ATOM      9  C   UNL     1      -4.924   2.618  -3.708  0.00  0.00    +0.066 A 
ATOM     10  N   UNL     1      -3.876   3.457  -4.018  0.00  0.00    -0.288 N 
ATOM     11  H   UNL     1      -3.770   4.256  -4.766  0.00  0.00    +0.187 HD
ENDROOT
BRANCH   9  12
ATOM     12  C   UNL     1      -6.245   2.607  -4.368  0.00  0.00    -0.000 A 
ATOM     13  C   UNL     1      -6.519   3.505  -5.402  0.00  0.00    +0.010 A 
ATOM     14  C   UNL     1      -7.753   3.486  -6.018  0.00  0.00    +0.004 A 
ATOM     15  C   UNL     1      -8.721   2.586  -5.607  0.00  0.00    -0.050 A 
ATOM     16  C   UNL     1      -8.458   1.697  -4.580  0.00  0.00    +0.004 A 
ATOM     17  C   UNL     1      -7.226   1.702  -3.958  0.00  0.00    +0.010 A 
ATOM     18  C   UNL     1     -10.069   2.575  -6.281  0.00  0.00    +0.044 C 
ENDBRANCH   9  12
BRANCH   1  19
ATOM     19  C   UNL     1      -0.245   1.518  -0.230  0.00  0.00    -0.022 C 
BRANCH  19  20
ATOM     20  N   UNL     1      -0.797   1.793   1.103  0.00  0.00    +0.386 N 
ATOM     21  H   UNL     1      -0.998   2.873   1.170  0.00  0.00    -0.081 HD
BRANCH  20  23
ATOM     22  C   UNL     1      -2.781   1.652   2.532  0.00  0.00    -0.017 C 
ATOM     23  C   UNL     1      -2.068   1.084   1.303  0.00  0.00    -0.081 C 
ENDBRANCH  20  23
BRANCH  20  24
ATOM     24  C   UNL     1       0.169   1.448   2.155  0.00  0.00    -0.043 C 
BRANCH  24  25
ATOM     25  C   UNL     1       1.242   2.505   2.218  0.00  0.00    -0.064 A 
ATOM     26  C   UNL     1       2.432   2.323   1.539  0.00  0.00    +0.003 A 
ATOM     27  C   UNL     1       3.413   3.294   1.592  0.00  0.00    +0.020 A 
ATOM     28  C   UNL     1       3.209   4.444   2.334  0.00  0.00    +0.041 A 
ATOM     29  C   UNL     1       2.020   4.623   3.018  0.00  0.00    +0.020 A 
ATOM     30  C   UNL     1       1.037   3.653   2.960  0.00  0.00    +0.003 A 
ATOM     31 CL   UNL     1       4.445   5.661   2.407  0.00  0.00    -0.084 Cl
ENDBRANCH  24  25
ENDBRANCH  20  24
ENDBRANCH  19  20
ENDBRANCH   1  19
TORSDOF 6
