REMARK  Name = ZINC05033362
REMARK  6 active torsions:
REMARK  status: ('A' for Active; 'I' for Inactive)
REMARK    1  A    between atoms: C_1  and  C_2
REMARK    2  A    between atoms: C_2  and  C_3
REMARK    3  A    between atoms: C_6  and  N_9
REMARK    4  A    between atoms: C_14  and  C_28
REMARK    5  A    between atoms: N_16  and  C_22
REMARK    6  A    between atoms: C_31  and  O_34
REMARK                            x       y       z     vdW  Elec       q    Type
REMARK                         _______ _______ _______ _____ _____    ______ ____
ROOT
ATOM      1  N   UNL     1      -5.323  -1.969   0.042  0.00  0.00    -0.208 N 
ATOM      2  C   UNL     1      -6.043  -2.235  -1.095  0.00  0.00    +0.235 C 
ATOM      3  O   UNL     1      -5.628  -2.314  -2.231  0.00  0.00    -0.274 OA
ATOM      4  C   UNL     1      -7.402  -2.402  -0.641  0.00  0.00    +0.145 C 
ATOM      5  C   UNL     1      -8.665  -3.024  -1.071  0.00  0.00    +0.157 C 
ATOM      6  N   UNL     1      -9.385  -3.216   0.229  0.00  0.00    -0.244 N 
ATOM      7  O   UNL     1      -8.496  -2.788   1.286  0.00  0.00    -0.257 OA
ATOM      8  C   UNL     1      -7.188  -3.088   0.767  0.00  0.00    +0.249 C 
ATOM      9  C   UNL     1      -6.023  -2.233   1.184  0.00  0.00    +0.259 C 
ATOM     10  O   UNL     1      -5.761  -1.854   2.305  0.00  0.00    -0.272 OA
ENDROOT
BRANCH   1  14
ATOM     11  C   UNL     1      -1.412  -0.526   0.013  0.00  0.00    -0.048 A 
ATOM     12  C   UNL     1      -2.050  -0.765   1.216  0.00  0.00    +0.005 A 
ATOM     13  C   UNL     1      -3.345  -1.244   1.229  0.00  0.00    +0.024 A 
ATOM     14  C   UNL     1      -4.008  -1.483   0.032  0.00  0.00    +0.044 A 
ATOM     15  C   UNL     1      -3.365  -1.241  -1.174  0.00  0.00    +0.024 A 
ATOM     16  C   UNL     1      -2.071  -0.758  -1.181  0.00  0.00    +0.005 A 
BRANCH  11  18
ATOM     17  C   UNL     1      -0.019   1.526   0.010  0.00  0.00    +0.009 C 
ATOM     18  C   UNL     1       0.002  -0.004   0.002  0.00  0.00    +0.032 C 
ENDBRANCH  11  18
ENDBRANCH   1  14
BRANCH   6  19
ATOM     19  C   UNL     1     -10.679  -3.717   0.391  0.00  0.00    +0.065 A 
ATOM     20  C   UNL     1     -11.422  -4.096  -0.720  0.00  0.00    +0.028 A 
ATOM     21  C   UNL     1     -12.701  -4.591  -0.557  0.00  0.00    +0.002 A 
ATOM     22  C   UNL     1     -13.242  -4.709   0.710  0.00  0.00    +0.000 A 
ATOM     23  C   UNL     1     -12.505  -4.332   1.818  0.00  0.00    +0.002 A 
ATOM     24  C   UNL     1     -11.223  -3.841   1.662  0.00  0.00    +0.028 A 
ENDBRANCH   6  19
BRANCH   5  25
ATOM     25  C   UNL     1      -8.409  -4.347  -1.747  0.00  0.00    -0.022 A 
ATOM     26  C   UNL     1      -8.176  -5.477  -0.986  0.00  0.00    +0.009 A 
ATOM     27  C   UNL     1      -7.940  -6.690  -1.603  0.00  0.00    +0.046 A 
ATOM     28  C   UNL     1      -7.937  -6.774  -2.988  0.00  0.00    +0.117 A 
ATOM     29  C   UNL     1      -8.171  -5.638  -3.749  0.00  0.00    +0.046 A 
ATOM     30  C   UNL     1      -8.412  -4.428  -3.127  0.00  0.00    +0.009 A 
BRANCH  28  31
ATOM     31  O   UNL     1      -7.705  -7.966  -3.597  0.00  0.00    -0.507 OA
ATOM     32  H   UNL     1      -8.504  -8.484  -3.765  0.00  0.00    +0.292 HD
ENDBRANCH  28  31
ENDBRANCH   5  25
TORSDOF 5
