REMARK  Name = ZINC04466155
REMARK  8 active torsions:
REMARK  status: ('A' for Active; 'I' for Inactive)
REMARK    1  A    between atoms: C_1  and  C_2
REMARK    2  A    between atoms: N_5  and  C_8
REMARK    3  A    between atoms: C_8  and  C_9
REMARK    4  A    between atoms: C_10  and  C_20
REMARK    5  A    between atoms: N_22  and  N_23
REMARK    6  A    between atoms: C_24  and  C_25
REMARK    7  A    between atoms: C_25  and  C_33
REMARK    8  A    between atoms: C_26  and  C_27
REMARK                            x       y       z     vdW  Elec       q    Type
REMARK                         _______ _______ _______ _____ _____    ______ ____
ROOT
ATOM      1  C   UNL     1      -0.138  -4.413   2.774  0.00  0.00    +0.063 A 
ATOM      2  C   UNL     1       1.196  -4.579   3.018  0.00  0.00    +0.170 A 
ATOM      3  N   UNL     1       1.375  -4.692   4.346  0.00  0.00    -0.124 NA
ATOM      4  N   UNL     1       0.238  -4.607   4.944  0.00  0.00    -0.058 NA
ATOM      5  N   UNL     1      -0.758  -4.423   3.974  0.00  0.00    -0.194 N 
ATOM      6  C   UNL     1      -2.131  -4.278   4.205  0.00  0.00    +0.240 A 
ATOM      7  C   UNL     1      -2.786  -4.286   5.517  0.00  0.00    +0.206 A 
ATOM      8  N   UNL     1      -4.068  -4.125   5.336  0.00  0.00    -0.032 NA
ATOM      9  O   UNL     1      -4.298  -4.010   3.943  0.00  0.00    -0.239 OA
ATOM     10  N   UNL     1      -3.044  -4.109   3.292  0.00  0.00    -0.027 NA
ATOM     11  N   UNL     1      -2.149  -4.438   6.744  0.00  0.00    -0.337 N 
ATOM     12  H   UNL     1      -1.187  -4.552   6.780  0.00  0.00    +0.144 HD
ATOM     13  H   UNL     1      -2.668  -4.430   7.563  0.00  0.00    +0.144 HD
ENDROOT
BRANCH   2  14
ATOM     14  C   UNL     1       2.260  -4.626   1.998  0.00  0.00    +0.285 C 
ATOM     15  O   UNL     1       1.979  -4.511   0.820  0.00  0.00    -0.267 OA
ATOM     16  N   UNL     1       3.544  -4.796   2.371  0.00  0.00    -0.202 N 
ATOM     17  H   UNL     1       3.769  -4.887   3.310  0.00  0.00    +0.178 HD
BRANCH  16  18
ATOM     18  N   UNL     1       4.555  -4.840   1.402  0.00  0.00    -0.188 NA
ATOM     19  C   UNL     1       5.796  -5.004   1.762  0.00  0.00    +0.133 C 
BRANCH  19  20
ATOM     20  C   UNL     1       6.819  -5.050   0.781  0.00  0.00    -0.030 C 
ATOM     21  C   UNL     1       8.087  -5.335   1.142  0.00  0.00    +0.012 C 
ATOM     22  C   UNL     1       6.489  -4.779  -0.664  0.00  0.00    +0.045 C 
BRANCH  21  23
ATOM     23  C   UNL     1       8.387  -5.727   2.528  0.00  0.00    -0.025 A 
ATOM     24  C   UNL     1       7.509  -6.560   3.229  0.00  0.00    +0.008 A 
ATOM     25  C   UNL     1       7.798  -6.923   4.528  0.00  0.00    +0.001 A 
ATOM     26  C   UNL     1       8.953  -6.465   5.138  0.00  0.00    +0.000 A 
ATOM     27  C   UNL     1       9.826  -5.640   4.451  0.00  0.00    +0.001 A 
ATOM     28  C   UNL     1       9.555  -5.273   3.150  0.00  0.00    +0.008 A 
ENDBRANCH  21  23
ENDBRANCH  19  20
ENDBRANCH  16  18
ENDBRANCH   2  14
BRANCH   1  29
ATOM     29  C   UNL     1      -0.790  -4.244   1.426  0.00  0.00    -0.020 C 
BRANCH  29  34
ATOM     30  C   UNL     1      -0.429   0.960  -0.879  0.00  0.00    +0.007 C 
ATOM     31  C   UNL     1      -0.311  -0.546  -0.637  0.00  0.00    -0.018 C 
ATOM     32  C   UNL     1      -1.710  -1.153  -0.493  0.00  0.00    -0.016 C 
ATOM     33  C   UNL     1      -1.583  -2.644  -0.173  0.00  0.00    -0.078 C 
ATOM     34  N   UNL     1      -0.842  -2.817   1.082  0.00  0.00    +0.383 N 
ATOM     35  C   UNL     1       0.524  -2.302   0.929  0.00  0.00    -0.078 C 
ATOM     36  C   UNL     1       0.478  -0.798   0.651  0.00  0.00    -0.016 C 
ATOM     37  H   UNL     1      -1.310  -2.312   1.820  0.00  0.00    -0.081 HD
ENDBRANCH  29  34
ENDBRANCH   1  29
TORSDOF 6
