REMARK  Name = ZINC09127818
REMARK  10 active torsions:
REMARK  status: ('A' for Active; 'I' for Inactive)
REMARK    1  A    between atoms: C_1  and  C_2
REMARK    2  A    between atoms: C_2  and  O_3
REMARK    3  A    between atoms: O_3  and  C_4
REMARK    4  A    between atoms: C_4  and  C_6
REMARK    5  A    between atoms: C_7  and  C_20
REMARK    6  A    between atoms: C_12  and  C_14
REMARK    7  A    between atoms: C_20  and  S_21
REMARK    8  A    between atoms: S_21  and  C_22
REMARK    9  A    between atoms: C_25  and  C_28
REMARK   10  A    between atoms: N_26  and  N_27
REMARK                            x       y       z     vdW  Elec       q    Type
REMARK                         _______ _______ _______ _____ _____    ______ ____
ROOT
ATOM      1  C   UNL     1       4.318  -0.216  -7.821  0.00  0.00    +0.079 C 
ATOM      2  C   UNL     1       2.968  -0.200  -7.822  0.00  0.00    +0.034 C 
ATOM      3  N   UNL     1       2.267   0.049  -8.967  0.00  0.00    -0.272 N 
ATOM      4  C   UNL     1       2.841   0.285 -10.153  0.00  0.00    +0.304 C 
ATOM      5  O   UNL     1       2.133   0.497 -11.117  0.00  0.00    -0.252 OA
ATOM      6  N   UNL     1       4.179   0.297 -10.312  0.00  0.00    -0.288 N 
ATOM      7  C   UNL     1       5.027   0.039  -9.135  0.00  0.00    +0.144 C 
ATOM      8  H   UNL     1       1.298   0.054  -8.918  0.00  0.00    +0.156 HD
ATOM      9  H   UNL     1       4.575   0.470 -11.180  0.00  0.00    +0.151 HD
ENDROOT
BRANCH   7  10
ATOM     10  C   UNL     1       5.894  -1.155  -9.440  0.00  0.00    -0.023 A 
ATOM     11  C   UNL     1       5.365  -2.238 -10.117  0.00  0.00    +0.006 A 
ATOM     12  C   UNL     1       6.161  -3.332 -10.400  0.00  0.00    +0.000 A 
ATOM     13  C   UNL     1       7.484  -3.347  -9.999  0.00  0.00    +0.000 A 
ATOM     14  C   UNL     1       8.011  -2.266  -9.317  0.00  0.00    +0.000 A 
ATOM     15  C   UNL     1       7.216  -1.171  -9.038  0.00  0.00    +0.006 A 
ENDBRANCH   7  10
BRANCH   1  16
ATOM     16  C   UNL     1       5.046  -0.468  -6.634  0.00  0.00    +0.339 C 
ATOM     17  O   UNL     1       5.542   0.456  -6.017  0.00  0.00    -0.245 OA
BRANCH  16  18
ATOM     18  O   UNL     1       5.189  -1.733  -6.187  0.00  0.00    -0.462 OA
BRANCH  18  20
ATOM     19  C   UNL     1       5.991  -3.403  -4.635  0.00  0.00    +0.048 C 
ATOM     20  C   UNL     1       5.937  -1.914  -4.982  0.00  0.00    +0.229 C 
ENDBRANCH  18  20
ENDBRANCH  16  18
ENDBRANCH   1  16
BRANCH   2  21
ATOM     21  C   UNL     1       2.223  -0.455  -6.537  0.00  0.00    +0.128 C 
BRANCH  21  22
ATOM     22  S   UNL     1       1.569   1.108  -5.898  0.00  0.00    -0.079 S 
BRANCH  22  23
ATOM     23  C   UNL     1       0.770   0.531  -4.437  0.00  0.00    +0.209 A 
ATOM     24  N   UNL     1       0.719  -0.710  -4.014  0.00  0.00    -0.121 NA
ATOM     25  N   UNL     1       0.059  -0.769  -2.913  0.00  0.00    -0.132 NA
ATOM     26  C   UNL     1      -0.353   0.420  -2.575  0.00  0.00    +0.154 A 
ATOM     27  N   UNL     1       0.088   1.291  -3.532  0.00  0.00    -0.228 N 
BRANCH  26  28
ATOM     28  C   UNL     1      -1.162   0.770  -1.352  0.00  0.00    +0.059 C 
ATOM     29  C   UNL     1      -0.386   0.371  -0.096  0.00  0.00    +0.011 C 
ATOM     30  C   UNL     1      -1.206   0.727   1.146  0.00  0.00    +0.001 C 
ATOM     31  C   UNL     1      -2.538  -0.025   1.109  0.00  0.00    +0.000 C 
ATOM     32  C   UNL     1      -3.315   0.374  -0.147  0.00  0.00    +0.001 C 
ATOM     33  C   UNL     1      -2.494   0.019  -1.389  0.00  0.00    +0.011 C 
ENDBRANCH  26  28
BRANCH  27  34
ATOM     34  N   UNL     1      -0.113   2.642  -3.573  0.00  0.00    -0.295 N 
ATOM     35  H   UNL     1       0.629   3.132  -3.096  0.00  0.00    +0.163 HD
ATOM     36  H   UNL     1      -0.207   2.965  -4.524  0.00  0.00    +0.163 HD
ENDBRANCH  27  34
ENDBRANCH  22  23
ENDBRANCH  21  22
ENDBRANCH   2  21
TORSDOF 9
