REMARK  Name = ZINC09046074
REMARK  8 active torsions:
REMARK  status: ('A' for Active; 'I' for Inactive)
REMARK    1  A    between atoms: C_1  and  C_2
REMARK    2  A    between atoms: C_18  and  C_20
REMARK    3  A    between atoms: C_20  and  N_65
REMARK    4  A    between atoms: C_21  and  C_22
REMARK    5  A    between atoms: C_21  and  N_65
REMARK    6  A    between atoms: C_22  and  C_23
REMARK    7  A    between atoms: C_30  and  O_33
REMARK    8  A    between atoms: O_33  and  C_34
REMARK                            x       y       z     vdW  Elec       q    Type
REMARK                         _______ _______ _______ _____ _____    ______ ____
ROOT
ATOM      1  C   UNL     1      -3.174  -0.271   4.445  0.00  0.00    -0.068 C 
ENDROOT
BRANCH   1  16
ATOM      2  C   UNL     1       1.763  -2.030   1.121  0.00  0.00    +0.011 C 
ATOM      3  C   UNL     1       0.241  -2.144   1.234  0.00  0.00    -0.023 C 
ATOM      4  C   UNL     1      -0.303  -2.875   0.009  0.00  0.00    +0.007 C 
ATOM      5  C   UNL     1       0.154  -2.157  -1.262  0.00  0.00    +0.003 C 
ATOM      6  C   UNL     1      -0.396  -0.727  -1.286  0.00  0.00    +0.037 C 
ATOM      7  C   UNL     1       0.002  -0.004   0.002  0.00  0.00    +0.096 C 
ATOM      8  C   UNL     1      -0.370  -0.737   1.297  0.00  0.00    +0.030 C 
ATOM      9  C   UNL     1      -1.891  -0.884   1.355  0.00  0.00    +0.014 C 
ATOM     10  C   UNL     1      -2.337  -1.699   2.540  0.00  0.00    +0.042 C 
ATOM     11  C   UNL     1      -1.628  -3.064   2.657  0.00  0.00    +0.181 C 
ATOM     12  C   UNL     1      -0.114  -2.901   2.505  0.00  0.00    +0.052 C 
ATOM     13  O   UNL     1      -1.861  -3.377   4.084  0.00  0.00    -0.461 OA
ATOM     14  C   UNL     1      -1.655  -2.239   4.781  0.00  0.00    +0.309 C 
ATOM     15  O   UNL     1      -1.276  -2.175   5.926  0.00  0.00    -0.251 OA
ATOM     16  C   UNL     1      -1.980  -1.050   3.890  0.00  0.00    +0.087 C 
ATOM     17  C   UNL     1       1.283   0.826  -0.006  0.00  0.00    +0.196 C 
ATOM     18  O   UNL     1      -0.017   1.421   0.010  0.00  0.00    -0.368 OA
ENDBRANCH   1  16
BRANCH   1  19
ATOM     19  N   UNL     1      -2.762   0.434   5.674  0.00  0.00    +0.380 N 
ATOM     20  H   UNL     1      -1.996   1.081   5.452  0.00  0.00    -0.086 HD
ATOM     21  H   UNL     1      -2.441  -0.253   6.367  0.00  0.00    -0.086 HD
BRANCH  19  22
ATOM     22  C   UNL     1      -3.896   1.195   6.232  0.00  0.00    -0.078 C 
BRANCH  22  23
ATOM     23  C   UNL     1      -3.439   1.914   7.503  0.00  0.00    +0.018 C 
BRANCH  23  24
ATOM     24  C   UNL     1      -4.592   2.694   8.080  0.00  0.00    -0.024 A 
ATOM     25  C   UNL     1      -4.859   3.994   7.874  0.00  0.00    +0.087 A 
ATOM     26  N   UNL     1      -5.988   4.352   8.558  0.00  0.00    -0.360 N 
ATOM     27  H   UNL     1      -6.380   5.239   8.561  0.00  0.00    +0.165 HD
ATOM     28  C   UNL     1      -6.483   3.265   9.247  0.00  0.00    +0.047 A 
ATOM     29  C   UNL     1      -5.630   2.180   8.977  0.00  0.00    +0.006 A 
ATOM     30  C   UNL     1      -5.886   0.931   9.547  0.00  0.00    +0.056 A 
ATOM     31  C   UNL     1      -6.980   0.771  10.374  0.00  0.00    +0.121 A 
ATOM     32  C   UNL     1      -7.823   1.847  10.640  0.00  0.00    +0.047 A 
ATOM     33  C   UNL     1      -7.580   3.083  10.083  0.00  0.00    +0.030 A 
BRANCH  31  34
ATOM     34  O   UNL     1      -7.235  -0.443  10.932  0.00  0.00    -0.495 OA
ATOM     35  C   UNL     1      -8.382  -0.540  11.778  0.00  0.00    +0.277 C 
ENDBRANCH  31  34
ENDBRANCH  23  24
ENDBRANCH  22  23
ENDBRANCH  19  22
ENDBRANCH   1  19
TORSDOF 6
