REMARK  Name = ZINC39030213
REMARK  6 active torsions:
REMARK  status: ('A' for Active; 'I' for Inactive)
REMARK    1  A    between atoms: C_4  and  S_24
REMARK    2  A    between atoms: C_5  and  C_7
REMARK    3  A    between atoms: N_12  and  C_13
REMARK    4  A    between atoms: N_15  and  C_16
REMARK    5  A    between atoms: S_24  and  C_25
REMARK    6  A    between atoms: C_25  and  C_26
REMARK                            x       y       z     vdW  Elec       q    Type
REMARK                         _______ _______ _______ _____ _____    ______ ____
ROOT
ATOM      1  C   UNL     1       1.224  -2.185  -0.023  0.00  0.00    +0.194 C 
ATOM      2  N   UNL     1      -0.072  -2.750  -0.465  0.00  0.00    -0.289 N 
ATOM      3  N   UNL     1      -0.096  -3.415  -1.476  0.00  0.00    -0.153 NA
ATOM      4  C   UNL     1       1.004  -3.689  -2.259  0.00  0.00    +0.203 C 
ATOM      5  N   UNL     1       1.081  -4.398  -3.370  0.00  0.00    -0.136 NA
ATOM      6  S   UNL     1       2.305  -2.833  -1.370  0.00  0.00    -0.056 S 
ATOM      7  H   UNL     1      -0.882  -2.591   0.044  0.00  0.00    +0.184 HD
ENDROOT
BRANCH   1  12
ATOM      8  C   UNL     1      -0.041   1.373   0.006  0.00  0.00    +0.000 A 
ATOM      9  C   UNL     1       1.141   2.092  -0.007  0.00  0.00    +0.001 A 
ATOM     10  C   UNL     1       2.353   1.431  -0.025  0.00  0.00    +0.015 A 
ATOM     11  C   UNL     1       2.385   0.041  -0.031  0.00  0.00    +0.014 A 
ATOM     12  C   UNL     1       1.195  -0.678  -0.017  0.00  0.00    -0.000 A 
ATOM     13  C   UNL     1      -0.013  -0.010   0.001  0.00  0.00    +0.007 A 
BRANCH  11  14
ATOM     14  S   UNL     1       3.929  -0.807  -0.055  0.00  0.00    -0.120 S 
BRANCH  14  15
ATOM     15  C   UNL     1       5.160   0.525  -0.067  0.00  0.00    +0.109 C 
BRANCH  15  16
ATOM     16  C   UNL     1       6.545  -0.071  -0.088  0.00  0.00    -0.037 A 
ATOM     17  C   UNL     1       7.193  -0.354   1.100  0.00  0.00    +0.006 A 
ATOM     18  C   UNL     1       8.462  -0.900   1.081  0.00  0.00    +0.020 A 
ATOM     19  C   UNL     1       9.084  -1.165  -0.126  0.00  0.00    +0.041 A 
ATOM     20  C   UNL     1       8.434  -0.882  -1.314  0.00  0.00    +0.020 A 
ATOM     21  C   UNL     1       7.163  -0.341  -1.294  0.00  0.00    +0.006 A 
ATOM     22 CL   UNL     1      10.678  -1.851  -0.150  0.00  0.00    -0.084 Cl
ENDBRANCH  15  16
ENDBRANCH  14  15
ENDBRANCH  11  14
ENDBRANCH   1  12
BRANCH   5  23
ATOM     23  C   UNL     1       2.263  -4.549  -3.990  0.00  0.00    +0.330 C 
ATOM     24  O   UNL     1       3.264  -4.033  -3.527  0.00  0.00    -0.250 OA
ATOM     25  N   UNL     1       2.342  -5.272  -5.125  0.00  0.00    -0.268 N 
ATOM     26  H   UNL     1       1.559  -5.739  -5.458  0.00  0.00    +0.156 HD
BRANCH  25  27
ATOM     27  C   UNL     1       3.552  -5.350  -5.823  0.00  0.00    +0.035 A 
ATOM     28  C   UNL     1       3.552  -5.403  -7.211  0.00  0.00    +0.026 A 
ATOM     29  C   UNL     1       4.748  -5.480  -7.898  0.00  0.00    +0.040 A 
ATOM     30  C   UNL     1       5.946  -5.504  -7.204  0.00  0.00    +0.124 A 
ATOM     31  C   UNL     1       5.948  -5.452  -5.820  0.00  0.00    +0.040 A 
ATOM     32  C   UNL     1       4.755  -5.369  -5.130  0.00  0.00    +0.026 A 
ATOM     33  F   UNL     1       7.114  -5.580  -7.878  0.00  0.00    -0.205 F 
ENDBRANCH  25  27
ENDBRANCH   5  23
TORSDOF 6
