REMARK  Name = ZINC12206992
REMARK  6 active torsions:
REMARK  status: ('A' for Active; 'I' for Inactive)
REMARK    1  A    between atoms: C_4  and  N_7
REMARK    2  A    between atoms: C_9  and  C_21
REMARK    3  A    between atoms: C_10  and  C_12
REMARK    4  A    between atoms: C_21  and  N_50
REMARK    5  A    between atoms: C_22  and  C_23
REMARK    6  A    between atoms: C_22  and  N_50
REMARK                            x       y       z     vdW  Elec       q    Type
REMARK                         _______ _______ _______ _____ _____    ______ ____
ROOT
ATOM      1  N   UNL     1       5.555   4.841  -4.832  0.00  0.00    -0.239 N 
ATOM      2  C   UNL     1       5.482   4.314  -3.581  0.00  0.00    +0.116 A 
ATOM      3  C   UNL     1       4.598   5.050  -2.873  0.00  0.00    -0.019 A 
ATOM      4  C   UNL     1       4.114   6.073  -3.713  0.00  0.00    +0.095 A 
ATOM      5  N   UNL     1       4.693   5.943  -4.889  0.00  0.00    -0.166 NA
ENDROOT
BRANCH   4   6
ATOM      6  C   UNL     1       3.126   7.114  -3.339  0.00  0.00    +0.006 A 
ATOM      7  C   UNL     1       2.088   6.808  -2.461  0.00  0.00    +0.014 A 
ATOM      8  C   UNL     1       1.169   7.777  -2.113  0.00  0.00    +0.050 A 
ATOM      9  C   UNL     1       1.275   9.057  -2.635  0.00  0.00    +0.166 A 
ATOM     10  C   UNL     1       2.311   9.369  -3.513  0.00  0.00    +0.167 A 
ATOM     11  C   UNL     1       3.238   8.402  -3.859  0.00  0.00    +0.059 A 
ATOM     12  O   UNL     1       2.193  10.679  -3.880  0.00  0.00    -0.453 OA
ATOM     13  C   UNL     1       1.319  11.274  -2.902  0.00  0.00    +0.466 C 
ATOM     14  O   UNL     1       0.508  10.172  -2.452  0.00  0.00    -0.453 OA
ENDBRANCH   4   6
BRANCH   1  18
ATOM     15  C   UNL     1       7.943   3.435  -7.945  0.00  0.00    +0.000 A 
ATOM     16  C   UNL     1       7.133   4.538  -8.141  0.00  0.00    +0.002 A 
ATOM     17  C   UNL     1       6.340   5.007  -7.111  0.00  0.00    +0.028 A 
ATOM     18  C   UNL     1       6.358   4.368  -5.878  0.00  0.00    +0.065 A 
ATOM     19  C   UNL     1       7.176   3.263  -5.683  0.00  0.00    +0.028 A 
ATOM     20  C   UNL     1       7.962   2.797  -6.718  0.00  0.00    +0.002 A 
ENDBRANCH   1  18
BRANCH   3  21
ATOM     21  C   UNL     1       4.203   4.822  -1.437  0.00  0.00    -0.043 C 
BRANCH  21  22
ATOM     22  N   UNL     1       2.907   4.119  -1.398  0.00  0.00    +0.384 N 
ATOM     23  H   UNL     1       2.995   3.218  -1.883  0.00  0.00    -0.085 HD
ATOM     24  H   UNL     1       2.196   4.692  -1.868  0.00  0.00    -0.085 HD
BRANCH  22  25
ATOM     25  C   UNL     1       2.495   3.882  -0.001  0.00  0.00    -0.046 C 
BRANCH  25  26
ATOM     26  C   UNL     1       1.170   3.163   0.007  0.00  0.00    -0.062 A 
ATOM     27  C   UNL     1       1.151   1.769   0.001  0.00  0.00    +0.004 A 
ATOM     28  C   UNL     1      -0.013   1.076   0.008  0.00  0.00    +0.031 A 
ATOM     29  C   UNL     1      -1.251   1.768   0.018  0.00  0.00    +0.100 A 
ATOM     30  C   UNL     1      -1.232   3.228   0.030  0.00  0.00    +0.100 A 
ATOM     31  C   UNL     1       0.025   3.887   0.021  0.00  0.00    +0.032 A 
ATOM     32  N   UNL     1      -2.459   3.745   0.044  0.00  0.00    -0.191 NA
ATOM     33  S   UNL     1      -3.446   2.528   0.032  0.00  0.00    +0.116 S 
ATOM     34  N   UNL     1      -2.492   1.285   0.021  0.00  0.00    -0.191 NA
ENDBRANCH  25  26
ENDBRANCH  22  25
ENDBRANCH  21  22
ENDBRANCH   3  21
TORSDOF 6
