REMARK  Name = ZINC38903166
REMARK  15 active torsions:
REMARK  status: ('A' for Active; 'I' for Inactive)
REMARK    1  A    between atoms: C_1  and  C_2
REMARK    2  A    between atoms: C_2  and  O_3
REMARK    3  A    between atoms: O_3  and  C_4
REMARK    4  A    between atoms: C_9  and  C_10
REMARK    5  A    between atoms: C_10  and  C_11
REMARK    6  A    between atoms: C_11  and  C_12
REMARK    7  A    between atoms: C_12  and  N_13
REMARK    8  A    between atoms: C_14  and  C_16
REMARK    9  A    between atoms: N_21  and  C_23
REMARK   10  A    between atoms: C_23  and  C_24
REMARK   11  A    between atoms: C_26  and  C_29
REMARK   12  A    between atoms: C_32  and  C_35
REMARK   13  A    between atoms: C_35  and  C_36
REMARK   14  A    between atoms: C_35  and  C_37
REMARK   15  A    between atoms: C_35  and  C_38
REMARK                            x       y       z     vdW  Elec       q    Type
REMARK                         _______ _______ _______ _____ _____    ______ ____
ROOT
ATOM      1  C   UNL     1       7.429   1.638  -4.077  0.00  0.00    +0.058 C 
ATOM      2  C   UNL     1       7.361   2.360  -2.729  0.00  0.00    +0.009 C 
ATOM      3  C   UNL     1       8.762   2.851  -2.352  0.00  0.00    -0.018 C 
ATOM      4  C   UNL     1       9.297   3.753  -3.466  0.00  0.00    -0.078 C 
ATOM      5  N   UNL     1       9.363   2.997  -4.723  0.00  0.00    +0.386 N 
ATOM      6  C   UNL     1       8.015   2.584  -5.128  0.00  0.00    -0.065 C 
ATOM      7  H   UNL     1       9.939   2.179  -4.592  0.00  0.00    -0.081 HD
ENDROOT
BRANCH   1   9
ATOM      8  N   UNL     1       5.330   0.382  -3.715  0.00  0.00    -0.315 N 
ATOM      9  C   UNL     1       6.043   1.218  -4.494  0.00  0.00    +0.214 C 
ATOM     10  O   UNL     1       5.570   1.633  -5.531  0.00  0.00    -0.276 OA
ATOM     11  H   UNL     1       5.708   0.050  -2.886  0.00  0.00    +0.149 HD
BRANCH   8  12
ATOM     12  C   UNL     1       3.982  -0.027  -4.120  0.00  0.00    +0.104 C 
BRANCH  12  13
ATOM     13  C   UNL     1       3.397  -0.971  -3.068  0.00  0.00    +0.023 C 
BRANCH  13  14
ATOM     14  C   UNL     1       1.990  -1.397  -3.491  0.00  0.00    +0.040 C 
BRANCH  14  20
ATOM     15  C   UNL     1       0.777  -1.810  -1.336  0.00  0.00    +0.124 A 
ATOM     16  C   UNL     1       0.243  -2.669  -0.386  0.00  0.00    +0.046 A 
ATOM     17  C   UNL     1       0.351  -4.036  -0.554  0.00  0.00    +0.004 A 
ATOM     18  C   UNL     1       0.991  -4.548  -1.667  0.00  0.00    +0.000 A 
ATOM     19  C   UNL     1       1.525  -3.695  -2.615  0.00  0.00    +0.007 A 
ATOM     20  C   UNL     1       1.414  -2.327  -2.455  0.00  0.00    -0.006 A 
BRANCH  15  21
ATOM     21  O   UNL     1       0.671  -0.465  -1.174  0.00  0.00    -0.492 OA
BRANCH  21  23
ATOM     22  C   UNL     1      -0.019   1.526   0.010  0.00  0.00    +0.048 C 
ATOM     23  C   UNL     1       0.002  -0.004   0.002  0.00  0.00    +0.225 C 
ENDBRANCH  21  23
ENDBRANCH  15  21
ENDBRANCH  14  20
ENDBRANCH  13  14
ENDBRANCH  12  13
ENDBRANCH   8  12
ENDBRANCH   1   9
BRANCH   5  24
ATOM     24  C   UNL     1       9.950   3.843  -5.771  0.00  0.00    +0.022 C 
BRANCH  24  25
ATOM     25  C   UNL     1      11.381   4.159  -5.419  0.00  0.00    +0.211 A 
ATOM     26  N   UNL     1      12.423   3.457  -5.765  0.00  0.00    -0.193 NA
ATOM     27  C   UNL     1      13.542   4.026  -5.282  0.00  0.00    +0.202 A 
ATOM     28  N   UNL     1      13.210   5.106  -4.619  0.00  0.00    -0.056 NA
ATOM     29  O   UNL     1      11.797   5.211  -4.703  0.00  0.00    -0.340 OA
BRANCH  27  30
ATOM     30  C   UNL     1      14.923   3.514  -5.469  0.00  0.00    +0.022 A 
ATOM     31  C   UNL     1      15.144   2.351  -6.203  0.00  0.00    +0.012 A 
ATOM     32  C   UNL     1      16.430   1.880  -6.374  0.00  0.00    +0.005 A 
ATOM     33  C   UNL     1      17.498   2.560  -5.817  0.00  0.00    -0.042 A 
ATOM     34  C   UNL     1      17.284   3.715  -5.087  0.00  0.00    +0.005 A 
ATOM     35  C   UNL     1      16.003   4.199  -4.916  0.00  0.00    +0.012 A 
BRANCH  33  36
ATOM     36  C   UNL     1      18.900   2.040  -6.006  0.00  0.00    -0.013 C 
ATOM     37  C   UNL     1      19.229   1.991  -7.500  0.00  0.00    +0.015 C 
ATOM     38  C   UNL     1      19.888   2.968  -5.297  0.00  0.00    +0.015 C 
ATOM     39  C   UNL     1      19.006   0.633  -5.414  0.00  0.00    +0.015 C 
ENDBRANCH  33  36
ENDBRANCH  27  30
ENDBRANCH  24  25
ENDBRANCH   5  24
TORSDOF 11
