REMARK  Name = ZINC06587841
REMARK  2 active torsions:
REMARK  status: ('A' for Active; 'I' for Inactive)
REMARK    1  A    between atoms: C_11  and  C_13
REMARK    2  A    between atoms: C_13  and  N_14
REMARK                            x       y       z     vdW  Elec       q    Type
REMARK                         _______ _______ _______ _____ _____    ______ ____
ROOT
ATOM      1  N   UNL     1      -4.740  -0.766   2.739  0.00  0.00    -0.215 N 
ATOM      2  C   UNL     1      -5.202  -0.440   3.961  0.00  0.00    +0.247 C 
ATOM      3  O   UNL     1      -5.306   0.673   4.430  0.00  0.00    -0.273 OA
ATOM      4  C   UNL     1      -5.565  -1.754   4.631  0.00  0.00    +0.113 C 
ATOM      5  C   UNL     1      -7.097  -1.779   4.829  0.00  0.00    +0.035 C 
ATOM      6  C   UNL     1      -7.550  -3.209   4.923  0.00  0.00    +0.003 C 
ATOM      7  C   UNL     1      -7.643  -3.709   6.378  0.00  0.00    +0.000 C 
ATOM      8  C   UNL     1      -6.458  -3.244   7.246  0.00  0.00    +0.000 C 
ATOM      9  C   UNL     1      -5.144  -3.335   6.516  0.00  0.00    +0.003 C 
ATOM     10  C   UNL     1      -4.844  -1.964   5.881  0.00  0.00    +0.035 C 
ATOM     11  N   UNL     1      -5.226  -2.762   3.606  0.00  0.00    -0.285 N 
ATOM     12  C   UNL     1      -4.761  -2.088   2.539  0.00  0.00    +0.310 C 
ATOM     13  O   UNL     1      -4.396  -2.622   1.510  0.00  0.00    -0.252 OA
ATOM     14  H   UNL     1      -5.325  -3.724   3.685  0.00  0.00    +0.151 HD
ENDROOT
BRANCH   1  15
ATOM     15  C   UNL     1      -4.278   0.208   1.747  0.00  0.00    +0.213 C 
BRANCH  15  26
ATOM     16  C   UNL     1      -0.617   2.022  -3.583  0.00  0.00    +0.000 A 
ATOM     17  C   UNL     1      -1.933   2.446  -3.566  0.00  0.00    +0.000 A 
ATOM     18  C   UNL     1      -2.638   2.437  -2.380  0.00  0.00    +0.005 A 
ATOM     19  C   UNL     1      -2.036   2.007  -1.205  0.00  0.00    -0.027 A 
ATOM     20  C   UNL     1      -0.728   1.578  -1.222  0.00  0.00    -0.041 A 
ATOM     21  C   UNL     1      -0.019   1.591  -2.418  0.00  0.00    +0.004 A 
ATOM     22  C   UNL     1      -0.013   1.086   0.008  0.00  0.00    +0.054 C 
ATOM     23  C   UNL     1      -0.714   1.572   1.275  0.00  0.00    +0.113 C 
ATOM     24  N   UNL     1      -2.155   1.314   1.123  0.00  0.00    -0.296 N 
ATOM     25  C   UNL     1      -2.859   2.037   0.059  0.00  0.00    +0.143 C 
ATOM     26  C   UNL     1      -2.801   0.449   1.930  0.00  0.00    +0.234 C 
ATOM     27  O   UNL     1      -2.195  -0.136   2.802  0.00  0.00    -0.274 OA
ENDBRANCH  15  26
ENDBRANCH   1  15
TORSDOF 2
