REMARK  Name = ZINC14330588
REMARK  6 active torsions:
REMARK  status: ('A' for Active; 'I' for Inactive)
REMARK    1  A    between atoms: C_1  and  C_2
REMARK    2  A    between atoms: C_10  and  C_11
REMARK    3  A    between atoms: N_13  and  N_14
REMARK    4  A    between atoms: C_15  and  C_17
REMARK    5  A    between atoms: C_17  and  C_18
REMARK    6  A    between atoms: C_18  and  C_19
REMARK                            x       y       z     vdW  Elec       q    Type
REMARK                         _______ _______ _______ _____ _____    ______ ____
ROOT
ATOM      1  N   UNL     1      -4.032  -2.193  -0.520  0.00  0.00    -0.234 N 
ATOM      2  C   UNL     1      -3.687  -1.080   0.158  0.00  0.00    +0.229 C 
ATOM      3  O   UNL     1      -4.240  -0.811   1.203  0.00  0.00    -0.274 OA
ATOM      4  H   UNL     1      -3.590  -2.407  -1.357  0.00  0.00    +0.173 HD
ENDROOT
BRANCH   1   7
ATOM      5  C   UNL     1      -5.372  -4.153  -0.694  0.00  0.00    +0.296 C 
ATOM      6  O   UNL     1      -4.818  -4.422  -1.743  0.00  0.00    -0.265 OA
ATOM      7  N   UNL     1      -5.028  -3.040  -0.016  0.00  0.00    -0.228 N 
ATOM      8  H   UNL     1      -5.469  -2.825   0.820  0.00  0.00    +0.173 HD
BRANCH   5  18
ATOM      9  C   UNL     1      -6.350  -6.771  -2.057  0.00  0.00    +0.048 C 
ATOM     10  C   UNL     1      -6.844  -6.185  -0.760  0.00  0.00    +0.008 A 
ATOM     11  C   UNL     1      -7.881  -6.733   0.114  0.00  0.00    +0.024 A 
ATOM     12  C   UNL     1      -8.694  -7.867   0.067  0.00  0.00    +0.012 A 
ATOM     13  C   UNL     1      -9.590  -8.100   1.072  0.00  0.00    +0.001 A 
ATOM     14  C   UNL     1      -9.697  -7.217   2.138  0.00  0.00    +0.004 A 
ATOM     15  C   UNL     1      -8.903  -6.093   2.203  0.00  0.00    +0.047 A 
ATOM     16  C   UNL     1      -7.985  -5.834   1.192  0.00  0.00    +0.136 A 
ATOM     17  O   UNL     1      -7.092  -4.846   0.987  0.00  0.00    -0.450 OA
ATOM     18  C   UNL     1      -6.417  -5.041  -0.165  0.00  0.00    +0.195 A 
ENDBRANCH   5  18
ENDBRANCH   1   7
BRANCH   2  19
ATOM     19  C   UNL     1      -2.616  -0.169  -0.384  0.00  0.00    +0.098 C 
BRANCH  19  20
ATOM     20  C   UNL     1      -2.420   1.012   0.569  0.00  0.00    +0.022 C 
BRANCH  20  21
ATOM     21  C   UNL     1      -1.333   1.937   0.019  0.00  0.00    +0.080 C 
ATOM     22  C   UNL     1      -1.225   3.181   0.907  0.00  0.00    +0.049 C 
ATOM     23  C   UNL     1       0.016   3.954   0.543  0.00  0.00    -0.025 A 
ATOM     24  C   UNL     1       0.026   5.332   0.646  0.00  0.00    +0.005 A 
ATOM     25  C   UNL     1       1.176   6.040   0.352  0.00  0.00    +0.000 A 
ATOM     26  C   UNL     1       2.321   5.372  -0.042  0.00  0.00    +0.002 A 
ATOM     27  C   UNL     1       2.315   3.996  -0.154  0.00  0.00    +0.023 A 
ATOM     28  C   UNL     1       1.156   3.282   0.122  0.00  0.00    +0.037 A 
ATOM     29  N   UNL     1       1.144   1.890   0.001  0.00  0.00    -0.285 N 
ATOM     30  C   UNL     1      -0.014   1.209   0.009  0.00  0.00    +0.221 C 
ATOM     31  O   UNL     1       0.002  -0.004   0.002  0.00  0.00    -0.275 OA
ATOM     32  H   UNL     1       1.982   1.410  -0.089  0.00  0.00    +0.155 HD
ENDBRANCH  20  21
ENDBRANCH  19  20
ENDBRANCH   2  19
TORSDOF 5
