REMARK  Name = ZINC63271909
REMARK  7 active torsions:
REMARK  status: ('A' for Active; 'I' for Inactive)
REMARK    1  A    between atoms: C_1  and  C_2
REMARK    2  A    between atoms: C_7  and  O_28
REMARK    3  A    between atoms: C_13  and  C_15
REMARK    4  A    between atoms: C_15  and  C_16
REMARK    5  A    between atoms: O_28  and  C_29
REMARK    6  A    between atoms: C_29  and  C_30
REMARK    7  A    between atoms: C_30  and  C_32
REMARK                            x       y       z     vdW  Elec       q    Type
REMARK                         _______ _______ _______ _____ _____    ______ ____
ROOT
ATOM      1  C   UNL     1      -0.019   1.526   0.010  0.00  0.00    +0.013 C 
ATOM      2  C   UNL     1       0.002  -0.004   0.002  0.00  0.00    +0.034 C 
ATOM      3  C   UNL     1      -1.413  -0.524   0.009  0.00  0.00    +0.000 A 
ATOM      4  C   UNL     1      -2.362   0.134  -0.759  0.00  0.00    +0.031 A 
ATOM      5  C   UNL     1      -3.668  -0.311  -0.790  0.00  0.00    +0.083 A 
ATOM      6  C   UNL     1      -4.039  -1.425  -0.048  0.00  0.00    +0.143 A 
ATOM      7  C   UNL     1      -3.095  -2.083   0.722  0.00  0.00    +0.093 A 
ATOM      8  C   UNL     1      -1.781  -1.631   0.754  0.00  0.00    +0.139 A 
ATOM      9  O   UNL     1      -0.889  -2.295   1.540  0.00  0.00    -0.425 OA
ATOM     10  C   UNL     1       0.414  -1.979   1.408  0.00  0.00    +0.316 C 
ATOM     11  O   UNL     1       1.276  -2.826   1.423  0.00  0.00    -0.250 OA
ATOM     12  C   UNL     1       0.747  -0.510   1.241  0.00  0.00    +0.114 C 
ATOM     13 CL   UNL     1      -4.847   0.523  -1.754  0.00  0.00    -0.080 Cl
ENDROOT
BRANCH  12  14
ATOM     14  C   UNL     1       0.290   0.270   2.476  0.00  0.00    +0.111 C 
BRANCH  14  15
ATOM     15  C   UNL     1       1.113  -0.147   3.667  0.00  0.00    +0.217 C 
ATOM     16  O   UNL     1       1.980  -0.986   3.541  0.00  0.00    -0.276 OA
ATOM     17  N   UNL     1       0.886   0.412   4.872  0.00  0.00    -0.295 N 
ATOM     18  C   UNL     1       1.682   0.023   6.046  0.00  0.00    +0.114 C 
ATOM     19  C   UNL     1       2.491   1.233   6.529  0.00  0.00    +0.074 C 
ATOM     20  C   UNL     1       1.591   2.442   6.556  0.00  0.00    +0.039 A 
ATOM     21  H   UNL     1      -0.936   4.122   5.822  0.00  0.00    +0.166 HD
ATOM     22  C   UNL     1       0.415   2.532   5.897  0.00  0.00    +0.054 A 
ATOM     23  N   UNL     1      -0.100   3.763   6.158  0.00  0.00    -0.348 N 
ATOM     24  C   UNL     1       0.776   4.393   6.975  0.00  0.00    +0.171 A 
ATOM     25  N   UNL     1       1.784   3.593   7.207  0.00  0.00    -0.349 N 
ATOM     26  C   UNL     1      -0.163   1.433   5.047  0.00  0.00    +0.162 C 
ATOM     27  H   UNL     1       2.550   3.802   7.764  0.00  0.00    +0.166 HD
ENDBRANCH  14  15
ENDBRANCH  12  14
BRANCH   6  28
ATOM     28  O   UNL     1      -5.324  -1.867  -0.078  0.00  0.00    -0.486 OA
BRANCH  28  29
ATOM     29  C   UNL     1      -5.632  -3.019   0.710  0.00  0.00    +0.259 C 
BRANCH  29  30
ATOM     30  C   UNL     1      -7.091  -3.360   0.552  0.00  0.00    -0.043 C 
ATOM     31  C   UNL     1      -7.855  -2.629  -0.222  0.00  0.00    +0.011 C 
ATOM     32  C   UNL     1      -7.672  -4.541   1.285  0.00  0.00    +0.042 C 
ENDBRANCH  29  30
ENDBRANCH  28  29
ENDBRANCH   6  28
TORSDOF 5
