REMARK  Name = ZINC12378903
REMARK  8 active torsions:
REMARK  status: ('A' for Active; 'I' for Inactive)
REMARK    1  A    between atoms: C_1  and  C_2
REMARK    2  A    between atoms: C_2  and  C_23
REMARK    3  A    between atoms: N_3  and  N_4
REMARK    4  A    between atoms: C_5  and  S_7
REMARK    5  A    between atoms: S_7  and  C_8
REMARK    6  A    between atoms: N_13  and  C_16
REMARK    7  A    between atoms: C_26  and  O_30
REMARK    8  A    between atoms: O_30  and  C_31
REMARK                            x       y       z     vdW  Elec       q    Type
REMARK                         _______ _______ _______ _____ _____    ______ ____
ROOT
ATOM      1  N   UNL     1      -1.452   5.851  -0.009  0.00  0.00    -0.259 N 
ATOM      2  C   UNL     1      -1.447   7.146   0.236  0.00  0.00    +0.146 C 
ATOM      3  N   UNL     1      -0.255   7.818   0.353  0.00  0.00    -0.338 N 
ATOM      4  H   UNL     1      -0.251   8.899   0.557  0.00  0.00    +0.144 HD
ATOM      5  H   UNL     1       0.696   7.276   0.242  0.00  0.00    +0.144 HD
ATOM      6  H   UNL     1      -0.504   5.292  -0.034  0.00  0.00    +0.191 HD
ENDROOT
BRANCH   1   9
ATOM      7  C   UNL     1      -3.879   3.213  -0.569  0.00  0.00    +0.068 C 
ATOM      8  C   UNL     1      -2.571   3.956  -0.463  0.00  0.00    +0.066 C 
ATOM      9  N   UNL     1      -2.567   5.238  -0.221  0.00  0.00    -0.177 NA
BRANCH   8  10
ATOM     10  C   UNL     1      -1.300   3.235  -0.634  0.00  0.00    +0.001 A 
ATOM     11  C   UNL     1      -1.185   1.906  -0.213  0.00  0.00    +0.013 A 
ATOM     12  C   UNL     1       0.009   1.236  -0.371  0.00  0.00    +0.049 A 
ATOM     13  C   UNL     1       1.094   1.874  -0.955  0.00  0.00    +0.155 A 
ATOM     14  C   UNL     1       0.985   3.193  -1.380  0.00  0.00    +0.165 A 
ATOM     15  C   UNL     1      -0.204   3.874  -1.222  0.00  0.00    +0.051 A 
ATOM     16  F   UNL     1       2.045   3.809  -1.948  0.00  0.00    -0.202 F 
BRANCH  13  17
ATOM     17  O   UNL     1       2.268   1.206  -1.113  0.00  0.00    -0.492 OA
ATOM     18  C   UNL     1       2.311  -0.147  -0.655  0.00  0.00    +0.277 C 
ENDBRANCH  13  17
ENDBRANCH   8  10
ENDBRANCH   1   9
BRANCH   2  19
ATOM     19  S   UNL     1      -2.970   8.014   0.413  0.00  0.00    -0.078 S 
BRANCH  19  20
ATOM     20  C   UNL     1      -2.351   9.711   0.537  0.00  0.00    +0.149 C 
ATOM     21  C   UNL     1      -3.505  10.688   0.843  0.00  0.00    +0.120 C 
ATOM     22  C   UNL     1      -3.513  11.613  -0.355  0.00  0.00    +0.228 C 
ATOM     23  O   UNL     1      -4.275  12.541  -0.520  0.00  0.00    -0.275 OA
ATOM     24  N   UNL     1      -2.544  11.245  -1.202  0.00  0.00    -0.207 N 
ATOM     25  C   UNL     1      -1.829  10.187  -0.801  0.00  0.00    +0.240 C 
ATOM     26  O   UNL     1      -0.908   9.688  -1.412  0.00  0.00    -0.274 OA
BRANCH  24  27
ATOM     27  C   UNL     1      -2.298  11.913  -2.411  0.00  0.00    +0.079 A 
ATOM     28  C   UNL     1      -2.946  11.511  -3.571  0.00  0.00    +0.027 A 
ATOM     29  C   UNL     1      -2.702  12.171  -4.760  0.00  0.00    +0.002 A 
ATOM     30  C   UNL     1      -1.815  13.231  -4.797  0.00  0.00    +0.003 A 
ATOM     31  C   UNL     1      -1.168  13.635  -3.644  0.00  0.00    +0.040 A 
ATOM     32  C   UNL     1      -1.411  12.982  -2.449  0.00  0.00    +0.145 A 
ATOM     33  F   UNL     1      -0.782  13.379  -1.321  0.00  0.00    -0.204 F 
ENDBRANCH  24  27
ENDBRANCH  19  20
ENDBRANCH   2  19
TORSDOF 6
