REMARK  Name = ZINC01139341
REMARK  7 active torsions:
REMARK  status: ('A' for Active; 'I' for Inactive)
REMARK    1  A    between atoms: C_1  and  C_2
REMARK    2  A    between atoms: C_15  and  C_17
REMARK    3  A    between atoms: C_19  and  C_26
REMARK    4  A    between atoms: C_20  and  O_25
REMARK    5  A    between atoms: C_21  and  O_23
REMARK    6  A    between atoms: O_23  and  C_24
REMARK    7  A    between atoms: C_26  and  C_27
REMARK                            x       y       z     vdW  Elec       q    Type
REMARK                         _______ _______ _______ _____ _____    ______ ____
ROOT
ATOM      1  C   UNL     1      -0.019   1.526   0.010  0.00  0.00    +0.008 C 
ATOM      2  C   UNL     1       0.002  -0.004   0.002  0.00  0.00    -0.009 C 
ATOM      3  C   UNL     1       0.726  -0.501  -1.253  0.00  0.00    +0.008 C 
ATOM      4  C   UNL     1       0.535  -2.011  -1.397  0.00  0.00    +0.037 C 
ATOM      5  C   UNL     1       0.948  -2.688  -0.093  0.00  0.00    -0.023 A 
ATOM      6  C   UNL     1       1.031  -1.976   1.055  0.00  0.00    -0.004 A 
ATOM      7  S   UNL     1       1.536  -3.145   2.292  0.00  0.00    -0.073 S 
ATOM      8  C   UNL     1       1.635  -4.581   1.271  0.00  0.00    +0.116 A 
ATOM      9  C   UNL     1       1.270  -4.102  -0.008  0.00  0.00    +0.075 A 
ATOM     10  C   UNL     1       1.254  -5.051  -1.085  0.00  0.00    +0.260 A 
ATOM     11  O   UNL     1       0.952  -4.734  -2.222  0.00  0.00    -0.267 OA
ATOM     12  N   UNL     1       1.594  -6.320  -0.758  0.00  0.00    -0.306 N 
ATOM     13  H   UNL     1       1.597  -6.993  -1.456  0.00  0.00    +0.170 HD
ATOM     14  C   UNL     1       1.934  -6.694   0.510  0.00  0.00    +0.142 A 
ATOM     15  N   UNL     1       1.959  -5.842   1.525  0.00  0.00    -0.222 NA
ATOM     16  C   UNL     1       0.751  -0.516   1.241  0.00  0.00    +0.046 C 
ENDROOT
BRANCH  14  17
ATOM     17  C   UNL     1       2.289  -8.104   0.760  0.00  0.00    +0.021 A 
ATOM     18  C   UNL     1       2.636  -8.521   2.048  0.00  0.00    +0.019 A 
ATOM     19  C   UNL     1       2.967  -9.838   2.280  0.00  0.00    +0.002 A 
ATOM     20  C   UNL     1       2.958 -10.754   1.237  0.00  0.00    +0.162 A 
ATOM     21  C   UNL     1       2.613 -10.345  -0.050  0.00  0.00    +0.162 A 
ATOM     22  C   UNL     1       2.273  -9.027  -0.289  0.00  0.00    +0.061 A 
BRANCH  21  23
ATOM     23  O   UNL     1       2.605 -11.245  -1.070  0.00  0.00    -0.491 OA
ATOM     24  C   UNL     1       2.242 -10.756  -2.363  0.00  0.00    +0.277 C 
ENDBRANCH  21  23
BRANCH  20  25
ATOM     25  O   UNL     1       3.285 -12.051   1.471  0.00  0.00    -0.503 OA
ATOM     26  H   UNL     1       2.533 -12.611   1.708  0.00  0.00    +0.292 HD
ENDBRANCH  20  25
BRANCH  19  27
ATOM     27  C   UNL     1       3.341 -10.286   3.670  0.00  0.00    +0.065 C 
BRANCH  27  28
ATOM     28  C   UNL     1       4.841 -10.257   3.820  0.00  0.00    -0.030 C 
ATOM     29  C   UNL     1       5.388  -9.574   4.795  0.00  0.00    +0.004 C 
ENDBRANCH  27  28
ENDBRANCH  19  27
ENDBRANCH  14  17
TORSDOF 5
