REMARK  Name = ZINC12470440
REMARK  7 active torsions:
REMARK  status: ('A' for Active; 'I' for Inactive)
REMARK    1  A    between atoms: C_1  and  C_2
REMARK    2  A    between atoms: C_4  and  C_37
REMARK    3  A    between atoms: C_7  and  C_14
REMARK    4  A    between atoms: C_14  and  C_16
REMARK    5  A    between atoms: C_14  and  N_26
REMARK    6  A    between atoms: N_20  and  C_21
REMARK    7  A    between atoms: C_34  and  C_36
REMARK                            x       y       z     vdW  Elec       q    Type
REMARK                         _______ _______ _______ _____ _____    ______ ____
ROOT
ATOM      1  C   UNL     1      -5.447   3.558   0.042  0.00  0.00    +0.179 C 
ENDROOT
BRANCH   1   8
ATOM      2  C   UNL     1       1.930   0.687  -0.932  0.00  0.00    +0.044 C 
ATOM      3  C   UNL     1       0.635   1.440  -0.764  0.00  0.00    -0.048 A 
ATOM      4  C   UNL     1       0.638   2.828  -0.803  0.00  0.00    +0.007 A 
ATOM      5  C   UNL     1      -0.524   3.530  -0.654  0.00  0.00    -0.041 A 
ATOM      6  C   UNL     1      -1.728   2.844  -0.459  0.00  0.00    +0.002 A 
ATOM      7  C   UNL     1      -2.991   3.565  -0.296  0.00  0.00    +0.021 A 
ATOM      8  C   UNL     1      -4.129   2.847  -0.125  0.00  0.00    +0.045 A 
ATOM      9  C   UNL     1      -4.082   1.437  -0.093  0.00  0.00    +0.255 A 
ATOM     10  O   UNL     1      -5.115   0.812   0.070  0.00  0.00    -0.268 OA
ATOM     11  N   UNL     1      -2.925   0.767  -0.237  0.00  0.00    -0.322 N 
ATOM     12  H   UNL     1      -2.928  -0.203  -0.210  0.00  0.00    +0.169 HD
ATOM     13  C   UNL     1      -1.735   1.437  -0.424  0.00  0.00    +0.050 A 
ATOM     14  C   UNL     1      -0.538   0.744  -0.574  0.00  0.00    +0.029 A 
ATOM     15  C   UNL     1      -0.509   5.036  -0.698  0.00  0.00    +0.044 C 
ENDBRANCH   1   8
BRANCH   1  16
ATOM     16  N   UNL     1      -6.047   3.182   1.329  0.00  0.00    -0.312 N 
ATOM     17  C   UNL     1      -7.233   3.890   1.557  0.00  0.00    +0.034 A 
ATOM     18  C   UNL     1      -8.255   4.232   0.672  0.00  0.00    +0.023 A 
ATOM     19  C   UNL     1      -9.352   4.939   1.120  0.00  0.00    +0.002 A 
ATOM     20  C   UNL     1      -9.446   5.312   2.448  0.00  0.00    +0.000 A 
ATOM     21  C   UNL     1      -8.435   4.979   3.331  0.00  0.00    +0.005 A 
ATOM     22  C   UNL     1      -7.335   4.276   2.888  0.00  0.00    -0.025 A 
ATOM     23  C   UNL     1      -6.092   3.794   3.610  0.00  0.00    +0.059 C 
ATOM     24  C   UNL     1      -5.124   3.471   2.449  0.00  0.00    +0.076 C 
ATOM     25  C   UNL     1      -4.271   2.244   2.779  0.00  0.00    +0.028 C 
ENDBRANCH   1  16
BRANCH   1  26
ATOM     26  C   UNL     1      -6.376   3.165  -1.078  0.00  0.00    +0.177 A 
ATOM     27  N   UNL     1      -7.080   2.063  -1.161  0.00  0.00    -0.111 NA
ATOM     28  N   UNL     1      -7.746   2.098  -2.263  0.00  0.00    -0.023 NA
ATOM     29  N   UNL     1      -7.479   3.191  -2.889  0.00  0.00    -0.044 NA
ATOM     30  N   UNL     1      -6.638   3.876  -2.191  0.00  0.00    -0.224 N 
BRANCH  30  31
ATOM     31  C   UNL     1      -6.074   5.181  -2.543  0.00  0.00    +0.111 C 
ATOM     32  C   UNL     1      -7.206   6.208  -2.750  0.00  0.00    +0.027 C 
ATOM     33  C   UNL     1      -6.712   7.085  -3.928  0.00  0.00    +0.002 C 
ATOM     34  C   UNL     1      -6.016   6.056  -4.853  0.00  0.00    +0.002 C 
ATOM     35  C   UNL     1      -5.317   5.085  -3.880  0.00  0.00    +0.027 C 
ENDBRANCH  30  31
ENDBRANCH   1  26
TORSDOF 4
