REMARK  Name = ZINC33624176
REMARK  15 active torsions:
REMARK  status: ('A' for Active; 'I' for Inactive)
REMARK    1  A    between atoms: C_1  and  C_2
REMARK    2  A    between atoms: C_2  and  C_3
REMARK    3  A    between atoms: C_3  and  O_4
REMARK    4  A    between atoms: O_4  and  C_5
REMARK    5  A    between atoms: C_8  and  C_11
REMARK    6  A    between atoms: C_13  and  C_34
REMARK    7  A    between atoms: C_14  and  C_33
REMARK    8  A    between atoms: C_21  and  C_22
REMARK    9  A    between atoms: C_25  and  O_31
REMARK   10  A    between atoms: C_26  and  O_28
REMARK   11  A    between atoms: O_28  and  C_29
REMARK   12  A    between atoms: C_29  and  C_30
REMARK   13  A    between atoms: C_34  and  O_36
REMARK   14  A    between atoms: O_36  and  C_37
REMARK   15  A    between atoms: C_37  and  C_38
REMARK                            x       y       z     vdW  Elec       q    Type
REMARK                         _______ _______ _______ _____ _____    ______ ____
ROOT
ATOM      1  C   UNL     1      -6.257  -0.128   0.501  0.00  0.00    +0.162 C 
ATOM      2  C   UNL     1      -7.240   1.016   0.601  0.00  0.00    +0.085 C 
ATOM      3  C   UNL     1      -6.750   2.291   0.557  0.00  0.00    +0.053 C 
ATOM      4  N   UNL     1      -5.447   2.509   0.431  0.00  0.00    -0.228 NA
ATOM      5  C   UNL     1      -4.538   1.572   0.339  0.00  0.00    +0.178 A 
ATOM      6  N   UNL     1      -4.816   0.224   0.361  0.00  0.00    -0.275 N 
ATOM      7  C   UNL     1      -3.801  -0.643   0.253  0.00  0.00    +0.268 A 
ATOM      8  O   UNL     1      -3.999  -1.844   0.261  0.00  0.00    -0.266 OA
ATOM      9  C   UNL     1      -2.441  -0.101   0.128  0.00  0.00    +0.081 A 
ATOM     10  C   UNL     1      -1.258  -0.758   0.011  0.00  0.00    +0.028 C 
ATOM     11  S   UNL     1      -2.766   1.655   0.166  0.00  0.00    -0.046 S 
ATOM     12  C   UNL     1      -7.697   3.459   0.653  0.00  0.00    +0.066 C 
ENDROOT
BRANCH   1  16
ATOM     13  C   UNL     1      -6.688  -2.541   4.001  0.00  0.00    +0.121 A 
ATOM     14  C   UNL     1      -7.285  -2.930   2.811  0.00  0.00    +0.046 A 
ATOM     15  C   UNL     1      -7.144  -2.148   1.681  0.00  0.00    +0.009 A 
ATOM     16  C   UNL     1      -6.409  -0.979   1.735  0.00  0.00    -0.020 A 
ATOM     17  C   UNL     1      -5.808  -0.591   2.919  0.00  0.00    +0.009 A 
ATOM     18  C   UNL     1      -5.950  -1.367   4.053  0.00  0.00    +0.046 A 
BRANCH  13  19
ATOM     19  O   UNL     1      -6.825  -3.308   5.115  0.00  0.00    -0.492 OA
BRANCH  19  20
ATOM     20  C   UNL     1      -6.182  -2.845   6.304  0.00  0.00    +0.229 C 
BRANCH  20  22
ATOM     21  C   UNL     1      -5.759  -3.337   8.717  0.00  0.00    +0.007 C 
ATOM     22  C   UNL     1      -6.447  -3.832   7.444  0.00  0.00    +0.038 C 
ENDBRANCH  20  22
ENDBRANCH  19  20
ENDBRANCH  13  19
ENDBRANCH   1  16
BRANCH  10  23
ATOM     23  C   UNL     1      -0.028  -0.008  -0.274  0.00  0.00    -0.020 A 
ATOM     24  C   UNL     1      -0.101   1.300  -0.767  0.00  0.00    +0.012 A 
ATOM     25  C   UNL     1       1.055   2.001  -1.033  0.00  0.00    +0.050 A 
ATOM     26  C   UNL     1       2.294   1.413  -0.813  0.00  0.00    +0.158 A 
ATOM     27  C   UNL     1       2.375   0.110  -0.323  0.00  0.00    +0.162 A 
ATOM     28  C   UNL     1       1.222  -0.600  -0.053  0.00  0.00    +0.057 A 
BRANCH  26  29
ATOM     29  O   UNL     1       3.430   2.110  -1.077  0.00  0.00    -0.503 OA
ATOM     30  H   UNL     1       4.412   1.646  -0.903  0.00  0.00    +0.292 HD
ENDBRANCH  26  29
BRANCH  27  31
ATOM     31  O   UNL     1       3.591  -0.461  -0.110  0.00  0.00    -0.489 OA
BRANCH  31  32
ATOM     32  C   UNL     1       3.600  -1.798   0.394  0.00  0.00    +0.226 C 
ATOM     33  C   UNL     1       5.046  -2.268   0.569  0.00  0.00    +0.048 C 
ENDBRANCH  31  32
ENDBRANCH  27  31
ENDBRANCH  10  23
BRANCH   2  34
ATOM     34  C   UNL     1      -8.617   0.775   0.735  0.00  0.00    +0.339 C 
ATOM     35  O   UNL     1      -9.394   1.710   0.814  0.00  0.00    -0.245 OA
BRANCH  34  36
ATOM     36  O   UNL     1      -9.081  -0.493   0.775  0.00  0.00    -0.462 OA
BRANCH  36  37
ATOM     37  C   UNL     1     -10.492  -0.664   0.913  0.00  0.00    +0.229 C 
ATOM     38  C   UNL     1     -10.825  -2.157   0.940  0.00  0.00    +0.048 C 
ENDBRANCH  36  37
ENDBRANCH  34  36
ENDBRANCH   2  34
TORSDOF 11
