REMARK  Name = ZINC08871874
REMARK  11 active torsions:
REMARK  status: ('A' for Active; 'I' for Inactive)
REMARK    1  A    between atoms: C_1  and  C_2
REMARK    2  A    between atoms: C_2  and  N_3
REMARK    3  A    between atoms: C_7  and  S_16
REMARK    4  A    between atoms: S_16  and  N_19
REMARK    5  A    between atoms: N_19  and  C_20
REMARK    6  A    between atoms: C_26  and  C_30
REMARK    7  A    between atoms: C_27  and  C_29
REMARK    8  A    between atoms: C_30  and  O_32
REMARK    9  A    between atoms: O_32  and  C_33
REMARK   10  A    between atoms: C_33  and  C_34
REMARK   11  A    between atoms: C_33  and  C_35
REMARK                            x       y       z     vdW  Elec       q    Type
REMARK                         _______ _______ _______ _____ _____    ______ ____
ROOT
ATOM      1  S   UNL     1       1.339   2.354  -0.124  0.00  0.00    +0.073 S 
ATOM      2  O   UNL     1       0.993   3.713   0.107  0.00  0.00    -0.150 OA
ATOM      3  O   UNL     1       2.288   1.662   0.676  0.00  0.00    -0.150 OA
ENDROOT
BRANCH   1   8
ATOM      4  N   UNL     1       3.062   2.172  -5.814  0.00  0.00    -0.267 N 
ATOM      5  C   UNL     1       2.900   2.064  -4.439  0.00  0.00    +0.045 A 
ATOM      6  C   UNL     1       3.586   1.497  -3.381  0.00  0.00    +0.026 A 
ATOM      7  C   UNL     1       3.084   1.610  -2.085  0.00  0.00    +0.031 A 
ATOM      8  C   UNL     1       1.915   2.257  -1.786  0.00  0.00    +0.116 A 
ATOM      9  C   UNL     1       1.189   2.846  -2.834  0.00  0.00    +0.011 A 
ATOM     10  C   UNL     1       1.717   2.723  -4.119  0.00  0.00    +0.018 A 
ATOM     11  C   UNL     1       1.119   3.251  -5.274  0.00  0.00    +0.047 A 
ATOM     12  C   UNL     1      -0.071   3.936  -5.100  0.00  0.00    +0.014 A 
ATOM     13  C   UNL     1      -0.611   4.069  -3.822  0.00  0.00    +0.001 A 
ATOM     14  C   UNL     1      -0.021   3.549  -2.701  0.00  0.00    +0.010 A 
ATOM     15  C   UNL     1       2.030   2.869  -6.359  0.00  0.00    +0.251 C 
ATOM     16  O   UNL     1       1.886   3.129  -7.539  0.00  0.00    -0.270 OA
BRANCH   4  18
ATOM     17  C   UNL     1       3.845   0.191  -7.016  0.00  0.00    +0.025 C 
ATOM     18  C   UNL     1       4.187   1.614  -6.570  0.00  0.00    +0.110 C 
ENDBRANCH   4  18
ENDBRANCH   1   8
BRANCH   1  19
ATOM     19  N   UNL     1      -0.070   1.487  -0.043  0.00  0.00    -0.216 N 
ATOM     20  H   UNL     1      -0.901   1.933   0.181  0.00  0.00    +0.174 HD
BRANCH  19  21
ATOM     21  C   UNL     1      -0.061   0.112  -0.302  0.00  0.00    +0.049 A 
ATOM     22  C   UNL     1       0.925  -0.696   0.259  0.00  0.00    +0.028 A 
ATOM     23  C   UNL     1       0.945  -2.051   0.013  0.00  0.00    +0.049 A 
ATOM     24  C   UNL     1      -0.024  -2.625  -0.802  0.00  0.00    +0.136 A 
ATOM     25  C   UNL     1      -1.016  -1.812  -1.367  0.00  0.00    +0.036 A 
ATOM     26  C   UNL     1      -1.036  -0.445  -1.112  0.00  0.00    +0.037 A 
ATOM     27  C   UNL     1      -1.866  -2.723  -2.161  0.00  0.00    +0.107 A 
ATOM     28  C   UNL     1      -1.324  -3.962  -2.005  0.00  0.00    +0.117 A 
ATOM     29  O   UNL     1      -0.250  -3.892  -1.210  0.00  0.00    -0.459 OA
ATOM     30  C   UNL     1      -1.854  -5.225  -2.634  0.00  0.00    +0.087 C 
BRANCH  27  31
ATOM     31  C   UNL     1      -3.050  -2.366  -2.954  0.00  0.00    +0.343 C 
ATOM     32  O   UNL     1      -2.928  -2.057  -4.123  0.00  0.00    -0.245 OA
BRANCH  31  33
ATOM     33  O   UNL     1      -4.272  -2.382  -2.385  0.00  0.00    -0.458 OA
BRANCH  33  34
ATOM     34  C   UNL     1      -5.396  -2.018  -3.229  0.00  0.00    +0.171 C 
ATOM     35  C   UNL     1      -6.650  -2.756  -2.755  0.00  0.00    +0.052 C 
ATOM     36  C   UNL     1      -5.631  -0.508  -3.143  0.00  0.00    +0.052 C 
ENDBRANCH  33  34
ENDBRANCH  31  33
ENDBRANCH  27  31
ENDBRANCH  19  21
ENDBRANCH   1  19
TORSDOF 7
