REMARK  Name = ZINC21252137
REMARK  11 active torsions:
REMARK  status: ('A' for Active; 'I' for Inactive)
REMARK    1  A    between atoms: C_1  and  C_2
REMARK    2  A    between atoms: C_2  and  C_3
REMARK    3  A    between atoms: C_2  and  C_4
REMARK    4  A    between atoms: C_4  and  O_5
REMARK    5  A    between atoms: O_5  and  C_6
REMARK    6  A    between atoms: C_9  and  C_12
REMARK    7  A    between atoms: C_17  and  C_22
REMARK    8  A    between atoms: C_25  and  O_28
REMARK    9  A    between atoms: O_28  and  C_29
REMARK   10  A    between atoms: C_29  and  C_30
REMARK   11  A    between atoms: C_29  and  C_31
REMARK                            x       y       z     vdW  Elec       q    Type
REMARK                         _______ _______ _______ _____ _____    ______ ____
ROOT
ATOM      1  C   UNL     1      -1.936   7.139   2.583  0.00  0.00    +0.136 C 
ATOM      2  C   UNL     1      -2.844   7.689   1.509  0.00  0.00    +0.036 C 
ATOM      3  C   UNL     1      -2.453   8.164   0.314  0.00  0.00    +0.017 C 
ATOM      4  C   UNL     1      -3.475   8.698  -0.676  0.00  0.00    +0.059 C 
ATOM      5  C   UNL     1      -4.795   7.944  -0.522  0.00  0.00    +0.032 C 
ATOM      6  C   UNL     1      -5.284   8.149   0.917  0.00  0.00    +0.088 C 
ATOM      7  C   UNL     1      -4.215   7.671   1.854  0.00  0.00    +0.163 C 
ATOM      8  O   UNL     1      -4.539   7.254   2.949  0.00  0.00    -0.292 OA
ATOM      9  N   UNL     1      -1.165   8.229  -0.109  0.00  0.00    -0.316 N 
ATOM     10  C   UNL     1      -0.239   7.198  -0.000  0.00  0.00    +0.052 A 
ATOM     11  C   UNL     1       0.303   6.569  -1.108  0.00  0.00    +0.025 A 
ATOM     12  C   UNL     1       1.257   5.582  -0.928  0.00  0.00    +0.002 A 
ATOM     13  C   UNL     1       1.666   5.230   0.345  0.00  0.00    +0.002 A 
ATOM     14  C   UNL     1       1.111   5.846   1.454  0.00  0.00    +0.025 A 
ATOM     15  C   UNL     1       0.141   6.818   1.278  0.00  0.00    +0.049 A 
ATOM     16  N   UNL     1      -0.526   7.384   2.363  0.00  0.00    -0.331 N 
ATOM     17  H   UNL     1      -0.785   9.149  -0.577  0.00  0.00    +0.152 HD
ATOM     18  H   UNL     1       0.035   8.026   3.058  0.00  0.00    +0.147 HD
ENDROOT
BRANCH   1  22
ATOM     19  C   UNL     1      -2.550   2.918   2.842  0.00  0.00    +0.121 A 
ATOM     20  C   UNL     1      -2.883   3.736   3.912  0.00  0.00    +0.046 A 
ATOM     21  C   UNL     1      -2.678   5.099   3.828  0.00  0.00    +0.009 A 
ATOM     22  C   UNL     1      -2.152   5.650   2.674  0.00  0.00    -0.023 A 
ATOM     23  C   UNL     1      -1.825   4.838   1.604  0.00  0.00    +0.009 A 
ATOM     24  C   UNL     1      -2.022   3.473   1.686  0.00  0.00    +0.046 A 
BRANCH  19  25
ATOM     25  O   UNL     1      -2.745   1.575   2.925  0.00  0.00    -0.492 OA
BRANCH  25  26
ATOM     26  C   UNL     1      -3.292   1.073   4.146  0.00  0.00    +0.232 C 
BRANCH  26  28
ATOM     27  C   UNL     1      -3.906  -0.998   5.400  0.00  0.00    +0.010 C 
ATOM     28  C   UNL     1      -3.439  -0.447   4.052  0.00  0.00    +0.020 C 
ATOM     29  C   UNL     1      -4.468  -0.794   2.974  0.00  0.00    +0.010 C 
ENDBRANCH  26  28
ENDBRANCH  25  26
ENDBRANCH  19  25
ENDBRANCH   1  22
BRANCH   5  30
ATOM     30  C   UNL     1      -5.811   8.492  -1.491  0.00  0.00    -0.043 A 
ATOM     31  C   UNL     1      -6.186   9.821  -1.421  0.00  0.00    +0.007 A 
ATOM     32  C   UNL     1      -7.113  10.326  -2.311  0.00  0.00    +0.046 A 
ATOM     33  C   UNL     1      -7.677   9.496  -3.269  0.00  0.00    +0.121 A 
ATOM     34  C   UNL     1      -7.304   8.161  -3.334  0.00  0.00    +0.046 A 
ATOM     35  C   UNL     1      -6.372   7.662  -2.445  0.00  0.00    +0.007 A 
BRANCH  33  36
ATOM     36  O   UNL     1      -8.594   9.990  -4.143  0.00  0.00    -0.489 OA
BRANCH  36  37
ATOM     37  C   UNL     1      -9.042   9.112  -5.178  0.00  0.00    +0.167 C 
ATOM     38  C   UNL     1     -10.205   8.264  -4.659  0.00  0.00    +0.051 C 
ATOM     39  C   UNL     1      -9.508   9.936  -6.379  0.00  0.00    +0.051 C 
ENDBRANCH  36  37
ENDBRANCH  33  36
ENDBRANCH   5  30
TORSDOF 7
