REMARK  Name = ZINC39920673
REMARK  5 active torsions:
REMARK  status: ('A' for Active; 'I' for Inactive)
REMARK    1  A    between atoms: C_10  and  O_11
REMARK    2  A    between atoms: O_11  and  C_12
REMARK    3  A    between atoms: C_12  and  C_13
REMARK    4  A    between atoms: N_15  and  N_16
REMARK    5  A    between atoms: C_17  and  C_29
REMARK                            x       y       z     vdW  Elec       q    Type
REMARK                         _______ _______ _______ _____ _____    ______ ____
ROOT
ATOM      1  N   UNL     1       9.579   0.631  -0.086  0.00  0.00    -0.188 N 
ATOM      2  C   UNL     1      10.332   0.829  -1.325  0.00  0.00    +0.247 C 
ATOM      3  N   UNL     1      11.748   1.072  -1.027  0.00  0.00    -0.318 N 
ATOM      4  C   UNL     1      12.075   1.930   0.018  0.00  0.00    +0.041 A 
ATOM      5  C   UNL     1      13.250   2.662   0.018  0.00  0.00    +0.025 A 
ATOM      6  C   UNL     1      13.538   3.494   1.083  0.00  0.00    +0.017 A 
ATOM      7  C   UNL     1      12.660   3.600   2.151  0.00  0.00    +0.019 A 
ATOM      8  C   UNL     1      11.483   2.879   2.164  0.00  0.00    +0.030 A 
ATOM      9  C   UNL     1      11.178   2.042   1.094  0.00  0.00    +0.060 A 
ATOM     10  C   UNL     1       9.920   1.275   1.048  0.00  0.00    +0.267 C 
ATOM     11  O   UNL     1       9.197   1.221   2.025  0.00  0.00    -0.268 OA
ATOM     12 BR   UNL     1      13.079   4.739   3.601  0.00  0.00    -0.050 Br
ATOM     13  H   UNL     1      12.443   0.641  -1.549  0.00  0.00    +0.148 HD
ENDROOT
BRANCH   2  14
ATOM     14  C   UNL     1       9.770   2.016  -2.065  0.00  0.00    +0.145 A 
ATOM     15  C   UNL     1      10.462   2.835  -2.877  0.00  0.00    +0.048 A 
ATOM     16  C   UNL     1       9.550   3.804  -3.354  0.00  0.00    +0.041 A 
ATOM     17  C   UNL     1       8.355   3.519  -2.805  0.00  0.00    +0.195 A 
ATOM     18  O   UNL     1       8.494   2.432  -2.030  0.00  0.00    -0.464 OA
ENDBRANCH   2  14
BRANCH   1  21
ATOM     19  C   UNL     1       7.228   0.256  -0.065  0.00  0.00    +0.267 C 
ATOM     20  O   UNL     1       7.051   1.456  -0.058  0.00  0.00    -0.271 OA
ATOM     21  N   UNL     1       8.481  -0.240  -0.080  0.00  0.00    -0.227 N 
ATOM     22  H   UNL     1       8.623  -1.199  -0.085  0.00  0.00    +0.173 HD
BRANCH  19  23
ATOM     23  C   UNL     1       6.047  -0.680  -0.059  0.00  0.00    +0.326 C 
BRANCH  23  24
ATOM     24  O   UNL     1       4.837   0.080  -0.043  0.00  0.00    -0.482 OA
BRANCH  24  34
ATOM     25  C   UNL     1      -0.016   1.357   0.009  0.00  0.00    +0.001 A 
ATOM     26  C   UNL     1       1.169   2.090   0.002  0.00  0.00    +0.001 A 
ATOM     27  C   UNL     1       2.379   1.467  -0.013  0.00  0.00    +0.012 A 
ATOM     28  C   UNL     1       2.437   0.064  -0.021  0.00  0.00    +0.024 A 
ATOM     29  C   UNL     1       1.233  -0.683  -0.013  0.00  0.00    -0.014 A 
ATOM     30  C   UNL     1       0.002  -0.004   0.002  0.00  0.00    +0.008 A 
ATOM     31  C   UNL     1       1.292  -2.087  -0.021  0.00  0.00    +0.009 A 
ATOM     32  C   UNL     1       2.501  -2.713  -0.035  0.00  0.00    +0.004 A 
ATOM     33  C   UNL     1       3.687  -1.984  -0.043  0.00  0.00    +0.046 A 
ATOM     34  C   UNL     1       3.671  -0.617  -0.036  0.00  0.00    +0.129 A 
ENDBRANCH  24  34
ENDBRANCH  23  24
ENDBRANCH  19  23
ENDBRANCH   1  21
TORSDOF 5
