REMARK  Name = ZINC00778223
REMARK  7 active torsions:
REMARK  status: ('A' for Active; 'I' for Inactive)
REMARK    1  A    between atoms: C_3  and  S_27
REMARK    2  A    between atoms: C_6  and  N_7
REMARK    3  A    between atoms: C_8  and  C_10
REMARK    4  A    between atoms: C_10  and  C_25
REMARK    5  A    between atoms: C_11  and  C_12
REMARK    6  A    between atoms: C_15  and  C_17
REMARK    7  A    between atoms: S_27  and  N_30
REMARK                            x       y       z     vdW  Elec       q    Type
REMARK                         _______ _______ _______ _____ _____    ______ ____
ROOT
ATOM      1  C   UNL     1       2.425   1.030   0.103  0.00  0.00    +0.117 C 
ATOM      2  C   UNL     1       3.591   1.784   0.101  0.00  0.00    +0.070 C 
ENDROOT
BRANCH   2   3
ATOM      3  C   UNL     1       4.839   1.146   0.194  0.00  0.00    +0.130 A 
ATOM      4  C   UNL     1       6.076   1.774   0.198  0.00  0.00    +0.050 A 
ATOM      5  C   UNL     1       7.037   0.771   0.308  0.00  0.00    +0.050 A 
ATOM      6  C   UNL     1       6.362  -0.431   0.358  0.00  0.00    +0.137 A 
ATOM      7  O   UNL     1       5.043  -0.186   0.288  0.00  0.00    -0.455 OA
BRANCH   6   8
ATOM      8  C   UNL     1       6.985  -1.764   0.470  0.00  0.00    +0.037 A 
ATOM      9  C   UNL     1       6.541  -2.668   1.438  0.00  0.00    +0.033 A 
ATOM     10  C   UNL     1       7.128  -3.913   1.536  0.00  0.00    +0.042 A 
ATOM     11  C   UNL     1       8.156  -4.267   0.677  0.00  0.00    +0.021 A 
ATOM     12  C   UNL     1       8.601  -3.378  -0.284  0.00  0.00    +0.022 A 
ATOM     13  C   UNL     1       8.019  -2.130  -0.397  0.00  0.00    +0.052 A 
ATOM     14 CL   UNL     1       8.575  -1.018  -1.608  0.00  0.00    -0.083 Cl
ATOM     15 CL   UNL     1       6.578  -5.037   2.739  0.00  0.00    -0.084 Cl
ENDBRANCH   6   8
ENDBRANCH   2   3
BRANCH   1  17
ATOM     16  N   UNL     1      -0.011   0.966   0.007  0.00  0.00    -0.281 N 
ATOM     17  C   UNL     1       1.121   1.697   0.006  0.00  0.00    +0.259 C 
ATOM     18  O   UNL     1       1.062   2.910  -0.075  0.00  0.00    -0.269 OA
ATOM     19  H   UNL     1       0.037  -0.003   0.004  0.00  0.00    +0.155 HD
BRANCH  16  25
ATOM     20  C   UNL     1      -2.325   1.044   0.694  0.00  0.00    +0.025 A 
ATOM     21  C   UNL     1      -3.551   1.680   0.697  0.00  0.00    +0.030 A 
ATOM     22  C   UNL     1      -3.717   2.867   0.007  0.00  0.00    +0.105 A 
ATOM     23  C   UNL     1      -2.656   3.424  -0.683  0.00  0.00    +0.030 A 
ATOM     24  C   UNL     1      -1.426   2.796  -0.685  0.00  0.00    +0.025 A 
ATOM     25  C   UNL     1      -1.255   1.604   0.007  0.00  0.00    +0.034 A 
BRANCH  22  26
ATOM     26  S   UNL     1      -5.285   3.671   0.008  0.00  0.00    +0.056 S 
ATOM     27  O   UNL     1      -5.966   3.233   1.175  0.00  0.00    -0.153 OA
ATOM     28  O   UNL     1      -5.036   5.045  -0.259  0.00  0.00    -0.153 OA
BRANCH  26  29
ATOM     29  N   UNL     1      -6.137   3.085  -1.286  0.00  0.00    -0.204 NA
ATOM     30  H   UNL     1      -7.105   3.035  -1.246  0.00  0.00    +0.144 HD
ATOM     31  H   UNL     1      -5.668   2.791  -2.082  0.00  0.00    +0.144 HD
ENDBRANCH  26  29
ENDBRANCH  22  26
ENDBRANCH  16  25
ENDBRANCH   1  17
BRANCH   1  32
ATOM     32  C   UNL     1       2.494  -0.397   0.198  0.00  0.00    +0.104 C 
ATOM     33  N   UNL     1       2.549  -1.529   0.274  0.00  0.00    -0.191 NA
ENDBRANCH   1  32
TORSDOF 7
