REMARK  Name = ZINC23005897
REMARK  9 active torsions:
REMARK  status: ('A' for Active; 'I' for Inactive)
REMARK    1  A    between atoms: C_7  and  C_11
REMARK    2  A    between atoms: C_11  and  C_12
REMARK    3  A    between atoms: C_12  and  C_14
REMARK    4  A    between atoms: C_12  and  N_28
REMARK    5  A    between atoms: C_14  and  O_16
REMARK    6  A    between atoms: O_16  and  C_17
REMARK    7  A    between atoms: C_17  and  C_18
REMARK    8  A    between atoms: C_20  and  C_23
REMARK    9  A    between atoms: C_29  and  C_31
REMARK                            x       y       z     vdW  Elec       q    Type
REMARK                         _______ _______ _______ _____ _____    ______ ____
ROOT
ATOM      1  C   UNL     1       4.175   0.621   1.403  0.00  0.00    +0.186 C 
ENDROOT
BRANCH   1   2
ATOM      2  N   UNL     1       3.850   1.938   1.956  0.00  0.00    -0.298 N 
ATOM      3  C   UNL     1       2.646   2.153   2.523  0.00  0.00    +0.245 C 
ATOM      4  O   UNL     1       1.830   1.254   2.576  0.00  0.00    -0.270 OA
ATOM      5  H   UNL     1       4.589   2.752   1.908  0.00  0.00    +0.150 HD
BRANCH   3   6
ATOM      6  C   UNL     1       2.319   3.481   3.081  0.00  0.00    +0.037 A 
ATOM      7  C   UNL     1       3.257   4.514   3.026  0.00  0.00    +0.016 A 
ATOM      8  C   UNL     1       2.944   5.754   3.542  0.00  0.00    +0.039 A 
ATOM      9  C   UNL     1       1.706   5.972   4.126  0.00  0.00    +0.123 A 
ATOM     10  C   UNL     1       0.773   4.948   4.188  0.00  0.00    +0.039 A 
ATOM     11  C   UNL     1       1.073   3.707   3.669  0.00  0.00    +0.016 A 
ATOM     12  F   UNL     1       1.406   7.187   4.635  0.00  0.00    -0.205 F 
ENDBRANCH   3   6
ENDBRANCH   1   2
BRANCH   1  13
ATOM     13  C   UNL     1       5.670   0.432   1.400  0.00  0.00    +0.328 C 
ATOM     14  O   UNL     1       6.390   1.307   1.817  0.00  0.00    -0.249 OA
BRANCH  13  15
ATOM     15  O   UNL     1       6.201  -0.710   0.934  0.00  0.00    -0.455 OA
BRANCH  15  16
ATOM     16  C   UNL     1       7.648  -0.823   0.962  0.00  0.00    +0.311 C 
BRANCH  16  17
ATOM     17  C   UNL     1       8.058  -2.161   0.404  0.00  0.00    +0.209 A 
ATOM     18  N   UNL     1       8.226  -3.293   1.105  0.00  0.00    -0.188 NA
ATOM     19  C   UNL     1       8.581  -4.209   0.218  0.00  0.00    +0.259 A 
ATOM     20  O   UNL     1       8.621  -3.594  -0.974  0.00  0.00    -0.333 OA
ATOM     21  N   UNL     1       8.319  -2.426  -0.842  0.00  0.00    -0.057 NA
BRANCH  19  22
ATOM     22  C   UNL     1       8.881  -5.627   0.488  0.00  0.00    +0.046 A 
ATOM     23  C   UNL     1       9.258  -6.527  -0.572  0.00  0.00    +0.021 A 
ATOM     24  C   UNL     1       9.517  -7.805  -0.225  0.00  0.00    +0.046 A 
ATOM     25  S   UNL     1       9.240  -7.804   1.535  0.00  0.00    -0.104 S 
ATOM     26  C   UNL     1       8.805  -6.142   1.753  0.00  0.00    +0.058 A 
ENDBRANCH  19  22
ENDBRANCH  16  17
ENDBRANCH  15  16
ENDBRANCH  13  15
ENDBRANCH   1  13
BRANCH   1  27
ATOM     27  C   UNL     1       3.646   0.525  -0.030  0.00  0.00    +0.071 C 
BRANCH  27  34
ATOM     28  C   UNL     1       0.593   4.082   0.018  0.00  0.00    +0.001 A 
ATOM     29  C   UNL     1      -0.730   3.659   0.029  0.00  0.00    +0.002 A 
ATOM     30  C   UNL     1      -1.038   2.317   0.029  0.00  0.00    +0.026 A 
ATOM     31  C   UNL     1      -0.017   1.373   0.010  0.00  0.00    +0.047 A 
ATOM     32  C   UNL     1       1.322   1.806  -0.001  0.00  0.00    +0.003 A 
ATOM     33  C   UNL     1       1.612   3.172   0.004  0.00  0.00    +0.010 A 
ATOM     34  C   UNL     1       2.140   0.591  -0.015  0.00  0.00    -0.020 A 
ATOM     35  C   UNL     1       1.295  -0.452  -0.013  0.00  0.00    +0.087 A 
ATOM     36  N   UNL     1       0.002  -0.004   0.002  0.00  0.00    -0.360 N 
ATOM     37  H   UNL     1      -0.943  -0.567   0.008  0.00  0.00    +0.165 HD
ENDBRANCH  27  34
ENDBRANCH   1  27
TORSDOF 9
