REMARK  Name = ZINC34750151
REMARK  8 active torsions:
REMARK  status: ('A' for Active; 'I' for Inactive)
REMARK    1  A    between atoms: C_1  and  C_2
REMARK    2  A    between atoms: C_2  and  C_4
REMARK    3  A    between atoms: C_4  and  N_5
REMARK    4  A    between atoms: C_18  and  S_20
REMARK    5  A    between atoms: S_20  and  C_21
REMARK    6  A    between atoms: C_21  and  C_22
REMARK    7  A    between atoms: C_27  and  C_29
REMARK    8  A    between atoms: C_27  and  C_30
REMARK                            x       y       z     vdW  Elec       q    Type
REMARK                         _______ _______ _______ _____ _____    ______ ____
ROOT
ATOM      1  N   UNL     1      -2.397  -0.370  -1.051  0.00  0.00    +0.384 N 
ATOM      2  C   UNL     1      -3.828  -0.231  -1.351  0.00  0.00    -0.059 C 
ATOM      3  C   UNL     1      -4.131  -0.886  -2.703  0.00  0.00    +0.088 C 
ATOM      4  N   UNL     1      -3.652  -2.276  -2.665  0.00  0.00    -0.318 N 
ATOM      5  C   UNL     1      -2.273  -2.522  -2.216  0.00  0.00    +0.088 C 
ATOM      6  C   UNL     1      -2.057  -1.789  -0.887  0.00  0.00    -0.059 C 
ATOM      7  C   UNL     1      -4.475  -3.323  -3.040  0.00  0.00    +0.134 A 
ATOM      8  C   UNL     1      -4.596  -3.687  -4.411  0.00  0.00    +0.051 A 
ATOM      9  C   UNL     1      -3.947  -3.092  -5.578  0.00  0.00    -0.020 A 
ATOM     10  C   UNL     1      -4.235  -3.630  -6.782  0.00  0.00    +0.021 A 
ATOM     11  S   UNL     1      -5.371  -4.944  -6.441  0.00  0.00    -0.071 S 
ATOM     12  C   UNL     1      -5.460  -4.768  -4.677  0.00  0.00    +0.115 A 
ATOM     13  N   UNL     1      -6.108  -5.390  -3.711  0.00  0.00    -0.214 NA
ATOM     14  C   UNL     1      -5.957  -5.006  -2.451  0.00  0.00    +0.191 A 
ATOM     15  N   UNL     1      -5.153  -3.999  -2.129  0.00  0.00    -0.206 NA
ATOM     16  C   UNL     1      -3.692  -3.184  -8.105  0.00  0.00    +0.203 C 
ATOM     17  O   UNL     1      -3.072  -1.902  -7.918  0.00  0.00    -0.368 OA
ATOM     18  C   UNL     1      -2.183  -1.857  -6.799  0.00  0.00    +0.068 C 
ATOM     19  C   UNL     1      -2.979  -1.915  -5.491  0.00  0.00    +0.071 C 
ATOM     20  C   UNL     1      -1.225  -3.048  -6.863  0.00  0.00    +0.041 C 
ATOM     21  C   UNL     1      -1.376  -0.557  -6.844  0.00  0.00    +0.041 C 
ATOM     22  H   UNL     1      -1.857   0.018  -1.810  0.00  0.00    -0.081 HD
ENDROOT
BRANCH   1  23
ATOM     23  C   UNL     1      -2.086   0.353   0.189  0.00  0.00    -0.048 C 
BRANCH  23  25
ATOM     24  C   UNL     1      -1.234   2.684  -0.618  0.00  0.00    +0.036 C 
ATOM     25  C   UNL     1      -2.318   1.827  -0.017  0.00  0.00    -0.096 C 
ATOM     26  C   UNL     1      -3.463   2.364   0.326  0.00  0.00    +0.005 C 
ENDBRANCH  23  25
ENDBRANCH   1  23
BRANCH  14  27
ATOM     27  S   UNL     1      -6.834  -5.853  -1.178  0.00  0.00    -0.077 S 
BRANCH  27  28
ATOM     28  C   UNL     1      -7.775  -7.125  -2.066  0.00  0.00    +0.172 C 
BRANCH  28  29
ATOM     29  C   UNL     1      -8.580  -7.933  -1.081  0.00  0.00    +0.221 C 
ATOM     30  O   UNL     1      -8.525  -7.676   0.103  0.00  0.00    -0.275 OA
ATOM     31  N   UNL     1      -9.362  -8.941  -1.516  0.00  0.00    -0.329 N 
ATOM     32  H   UNL     1      -9.406  -9.146  -2.463  0.00  0.00    +0.145 HD
ATOM     33  H   UNL     1      -9.881  -9.460  -0.882  0.00  0.00    +0.145 HD
ENDBRANCH  28  29
ENDBRANCH  27  28
ENDBRANCH  14  27
TORSDOF 5
