REMARK  Name = ZINC19720623
REMARK  5 active torsions:
REMARK  status: ('A' for Active; 'I' for Inactive)
REMARK    1  A    between atoms: C_1  and  C_2
REMARK    2  A    between atoms: C_3  and  C_12
REMARK    3  A    between atoms: C_14  and  C_17
REMARK    4  A    between atoms: C_17  and  S_18
REMARK    5  A    between atoms: S_18  and  C_19
REMARK                            x       y       z     vdW  Elec       q    Type
REMARK                         _______ _______ _______ _____ _____    ______ ____
ROOT
ATOM      1  C   UNL     1      -2.519   1.401   0.042  0.00  0.00    +0.204 A 
ATOM      2  N   UNL     1      -3.765   1.928   0.061  0.00  0.00    -0.191 NA
ATOM      3  C   UNL     1      -4.580   0.903   0.068  0.00  0.00    +0.238 A 
ATOM      4  O   UNL     1      -3.826  -0.200   0.052  0.00  0.00    -0.337 OA
ATOM      5  N   UNL     1      -2.651   0.100   0.032  0.00  0.00    -0.056 NA
ENDROOT
BRANCH   1   8
ATOM      6  C   UNL     1      -2.554   4.297   0.043  0.00  0.00    +0.066 C 
ATOM      7  C   UNL     1      -1.245   3.551   0.029  0.00  0.00    +0.049 A 
ATOM      8  C   UNL     1      -1.243   2.158   0.028  0.00  0.00    +0.047 A 
ATOM      9  C   UNL     1      -0.017   1.484   0.008  0.00  0.00    -0.034 A 
ATOM     10  C   UNL     1       1.144   2.227  -0.001  0.00  0.00    -0.043 A 
ATOM     11  C   UNL     1       1.058   3.611   0.008  0.00  0.00    +0.113 A 
ATOM     12  N   UNL     1      -0.111   4.220   0.022  0.00  0.00    -0.259 NA
ATOM     13  C   UNL     1       2.501   1.577  -0.022  0.00  0.00    -0.045 C 
ATOM     14  N   UNL     1       2.400   0.170   0.382  0.00  0.00    +0.382 N 
ATOM     15  C   UNL     1       1.381  -0.522  -0.423  0.00  0.00    -0.077 C 
ATOM     16  C   UNL     1      -0.000  -0.020   0.004  0.00  0.00    +0.017 C 
ATOM     17  H   UNL     1       3.371  -0.325   0.233  0.00  0.00    -0.085 HD
ATOM     18  H   UNL     1       2.118   0.113   1.444  0.00  0.00    -0.085 HD
ENDBRANCH   1   8
BRANCH   3  19
ATOM     19  C   UNL     1      -6.086   0.958   0.089  0.00  0.00    +0.176 C 
BRANCH  19  20
ATOM     20  S   UNL     1      -6.713   0.988  -1.609  0.00  0.00    -0.075 S 
BRANCH  20  21
ATOM     21  C   UNL     1      -8.445   1.049  -1.295  0.00  0.00    +0.210 A 
ATOM     22  N   UNL     1      -9.420   1.099  -2.228  0.00  0.00    -0.144 NA
ATOM     23  H   UNL     1     -11.588   1.169  -2.082  0.00  0.00    +0.192 HD
ATOM     24  N   UNL     1     -10.638   1.131  -1.529  0.00  0.00    -0.246 N 
ATOM     25  C   UNL     1     -10.346   1.106  -0.251  0.00  0.00    +0.209 A 
ATOM     26  N   UNL     1      -9.017   1.055  -0.109  0.00  0.00    -0.188 NA
ATOM     27  N   UNL     1     -11.273   1.129   0.792  0.00  0.00    -0.328 N 
ATOM     28  H   UNL     1     -12.349   1.172   0.571  0.00  0.00    +0.145 HD
ATOM     29  H   UNL     1     -10.927   1.105   1.836  0.00  0.00    +0.145 HD
ENDBRANCH  20  21
ENDBRANCH  19  20
ENDBRANCH   3  19
TORSDOF 4
