REMARK  Name = ZINC01510871
REMARK  9 active torsions:
REMARK  status: ('A' for Active; 'I' for Inactive)
REMARK    1  A    between atoms: C_1  and  C_2
REMARK    2  A    between atoms: C_5  and  N_8
REMARK    3  A    between atoms: N_8  and  S_9
REMARK    4  A    between atoms: S_9  and  C_12
REMARK    5  A    between atoms: C_15  and  C_18
REMARK    6  A    between atoms: C_21  and  S_24
REMARK    7  A    between atoms: S_24  and  N_27
REMARK    8  A    between atoms: N_27  and  C_28
REMARK    9  A    between atoms: C_31  and  C_34
REMARK                            x       y       z     vdW  Elec       q    Type
REMARK                         _______ _______ _______ _____ _____    ______ ____
ROOT
ATOM      1  C   UNL     1       0.241  -1.323   2.218  0.00  0.00    +0.109 A 
ATOM      2  C   UNL     1       1.585  -1.274   1.891  0.00  0.00    +0.029 A 
ATOM      3  C   UNL     1       2.542  -1.441   2.871  0.00  0.00    +0.010 A 
ATOM      4  C   UNL     1       2.153  -1.672   4.189  0.00  0.00    -0.018 A 
ATOM      5  C   UNL     1       0.799  -1.727   4.511  0.00  0.00    +0.010 A 
ATOM      6  C   UNL     1      -0.150  -1.551   3.525  0.00  0.00    +0.029 A 
ENDROOT
BRANCH   4   7
ATOM      7  C   UNL     1       3.178  -1.861   5.246  0.00  0.00    -0.018 A 
ATOM      8  C   UNL     1       2.789  -2.086   6.565  0.00  0.00    +0.010 A 
ATOM      9  C   UNL     1       3.746  -2.266   7.543  0.00  0.00    +0.029 A 
ATOM     10  C   UNL     1       5.090  -2.212   7.217  0.00  0.00    +0.109 A 
ATOM     11  C   UNL     1       5.481  -1.982   5.911  0.00  0.00    +0.029 A 
ATOM     12  C   UNL     1       4.532  -1.806   4.924  0.00  0.00    +0.010 A 
BRANCH  10  13
ATOM     13  S   UNL     1       6.306  -2.435   8.472  0.00  0.00    +0.072 S 
ATOM     14  O   UNL     1       5.653  -3.067   9.564  0.00  0.00    -0.150 OA
ATOM     15  O   UNL     1       7.446  -2.998   7.837  0.00  0.00    -0.150 OA
BRANCH  13  16
ATOM     16  N   UNL     1       6.752  -0.929   8.995  0.00  0.00    -0.216 N 
ATOM     17  H   UNL     1       7.654  -0.608   8.839  0.00  0.00    +0.174 HD
BRANCH  16  18
ATOM     18  C   UNL     1       5.830  -0.119   9.662  0.00  0.00    +0.048 A 
ATOM     19  C   UNL     1       5.277   0.982   9.020  0.00  0.00    +0.025 A 
ATOM     20  C   UNL     1       4.362   1.777   9.680  0.00  0.00    +0.005 A 
ATOM     21  C   UNL     1       4.002   1.484  10.983  0.00  0.00    -0.050 A 
ATOM     22  C   UNL     1       4.553   0.392  11.627  0.00  0.00    +0.005 A 
ATOM     23  C   UNL     1       5.466  -0.411  10.971  0.00  0.00    +0.025 A 
ATOM     24  C   UNL     1       3.006   2.357  11.702  0.00  0.00    +0.044 C 
ENDBRANCH  16  18
ENDBRANCH  13  16
ENDBRANCH  10  13
ENDBRANCH   4   7
BRANCH   1  25
ATOM     25  S   UNL     1      -0.975  -1.100   0.963  0.00  0.00    +0.072 S 
ATOM     26  O   UNL     1      -2.190  -1.628   1.477  0.00  0.00    -0.150 OA
ATOM     27  O   UNL     1      -0.397  -1.563  -0.250  0.00  0.00    -0.150 OA
BRANCH  25  28
ATOM     28  N   UNL     1      -1.205   0.530   0.786  0.00  0.00    -0.216 N 
ATOM     29  H   UNL     1      -0.999   0.960  -0.058  0.00  0.00    +0.174 HD
BRANCH  28  34
ATOM     30  C   UNL     1      -3.174   3.603   5.127  0.00  0.00    +0.044 C 
ATOM     31  C   UNL     1      -2.651   2.786   3.973  0.00  0.00    -0.050 A 
ATOM     32  C   UNL     1      -1.571   3.242   3.239  0.00  0.00    +0.005 A 
ATOM     33  C   UNL     1      -1.089   2.496   2.182  0.00  0.00    +0.025 A 
ATOM     34  C   UNL     1      -1.690   1.287   1.856  0.00  0.00    +0.048 A 
ATOM     35  C   UNL     1      -2.777   0.835   2.592  0.00  0.00    +0.025 A 
ATOM     36  C   UNL     1      -3.251   1.583   3.652  0.00  0.00    +0.005 A 
ENDBRANCH  28  34
ENDBRANCH  25  28
ENDBRANCH   1  25
TORSDOF 7
