REMARK  Name = ZINC66572085
REMARK  8 active torsions:
REMARK  status: ('A' for Active; 'I' for Inactive)
REMARK    1  A    between atoms: C_1  and  C_2
REMARK    2  A    between atoms: C_2  and  C_3
REMARK    3  A    between atoms: C_2  and  C_4
REMARK    4  A    between atoms: C_4  and  C_5
REMARK    5  A    between atoms: C_5  and  C_6
REMARK    6  A    between atoms: N_8  and  N_9
REMARK    7  A    between atoms: C_10  and  C_12
REMARK    8  A    between atoms: C_16  and  N_18
REMARK                            x       y       z     vdW  Elec       q    Type
REMARK                         _______ _______ _______ _____ _____    ______ ____
ROOT
ATOM      1  C   UNL     1      -8.097  -0.824  -3.104  0.00  0.00    +0.040 A 
ATOM      2  C   UNL     1      -8.345  -1.907  -2.259  0.00  0.00    +0.013 A 
ATOM      3  C   UNL     1      -9.421  -2.737  -2.498  0.00  0.00    +0.003 A 
ATOM      4  C   UNL     1     -10.256  -2.500  -3.574  0.00  0.00    +0.025 A 
ATOM      5  C   UNL     1     -10.018  -1.425  -4.421  0.00  0.00    +0.057 A 
ATOM      6  C   UNL     1      -8.942  -0.582  -4.186  0.00  0.00    +0.038 A 
ENDROOT
BRANCH   5   7
ATOM      7  N   UNL     1     -10.866  -1.189  -5.510  0.00  0.00    -0.188 N 
ATOM      8  C   UNL     1     -12.203  -1.180  -5.331  0.00  0.00    +0.240 C 
ATOM      9  O   UNL     1     -12.671  -1.323  -4.221  0.00  0.00    -0.273 OA
ATOM     10  C   UNL     1     -13.111  -0.991  -6.516  0.00  0.00    +0.093 C 
ATOM     11  C   UNL     1     -14.477  -1.625  -6.247  0.00  0.00    +0.040 C 
ATOM     12  C   UNL     1     -15.278  -1.656  -7.518  0.00  0.00    -0.030 C 
ATOM     13  C   UNL     1     -14.769  -1.516  -8.701  0.00  0.00    -0.030 C 
ATOM     14  C   UNL     1     -13.307  -1.298  -8.970  0.00  0.00    +0.040 C 
ATOM     15  C   UNL     1     -12.485  -1.678  -7.739  0.00  0.00    +0.092 C 
ATOM     16  C   UNL     1     -11.060  -1.216  -7.885  0.00  0.00    +0.234 C 
ATOM     17  O   UNL     1     -10.576  -1.071  -8.987  0.00  0.00    -0.274 OA
ATOM     18  N   UNL     1     -10.325  -0.959  -6.781  0.00  0.00    -0.227 N 
ATOM     19  H   UNL     1      -9.421  -0.617  -6.868  0.00  0.00    +0.173 HD
ENDBRANCH   5   7
BRANCH   1  21
ATOM     20  N   UNL     1      -6.128  -0.169  -1.803  0.00  0.00    -0.230 N 
ATOM     21  C   UNL     1      -6.944   0.067  -2.849  0.00  0.00    +0.260 C 
ATOM     22  O   UNL     1      -6.733   1.012  -3.584  0.00  0.00    -0.269 OA
ATOM     23  H   UNL     1      -6.297  -0.923  -1.217  0.00  0.00    +0.173 HD
BRANCH  20  26
ATOM     24  C   UNL     1      -4.221   0.439  -0.515  0.00  0.00    +0.229 C 
ATOM     25  O   UNL     1      -4.431  -0.504   0.218  0.00  0.00    -0.274 OA
ATOM     26  N   UNL     1      -5.037   0.675  -1.562  0.00  0.00    -0.234 N 
ATOM     27  H   UNL     1      -4.868   1.430  -2.147  0.00  0.00    +0.173 HD
BRANCH  24  28
ATOM     28  C   UNL     1      -3.046   1.347  -0.255  0.00  0.00    +0.097 C 
BRANCH  28  29
ATOM     29  C   UNL     1      -2.289   0.861   0.982  0.00  0.00    +0.012 C 
BRANCH  29  31
ATOM     30  C   UNL     1      -1.604   3.182   1.604  0.00  0.00    +0.007 C 
ATOM     31  C   UNL     1      -1.097   1.783   1.246  0.00  0.00    -0.017 C 
ATOM     32  C   UNL     1      -0.270   1.227   2.406  0.00  0.00    +0.007 C 
ENDBRANCH  29  31
ENDBRANCH  28  29
ENDBRANCH  24  28
ENDBRANCH  20  26
ENDBRANCH   1  21
TORSDOF 6
