REMARK  Name = ZINC13532844
REMARK  9 active torsions:
REMARK  status: ('A' for Active; 'I' for Inactive)
REMARK    1  A    between atoms: C_4  and  C_7
REMARK    2  A    between atoms: C_7  and  C_8
REMARK    3  A    between atoms: C_8  and  C_10
REMARK    4  A    between atoms: C_8  and  N_21
REMARK    5  A    between atoms: C_10  and  C_12
REMARK    6  A    between atoms: C_22  and  C_24
REMARK    7  A    between atoms: C_24  and  N_25
REMARK    8  A    between atoms: C_28  and  N_39
REMARK    9  A    between atoms: C_31  and  C_32
REMARK                            x       y       z     vdW  Elec       q    Type
REMARK                         _______ _______ _______ _____ _____    ______ ____
ROOT
ATOM      1  N   UNL     1       0.330  -0.683  -2.108  0.00  0.00    -0.303 N 
ATOM      2  C   UNL     1       1.672  -0.803  -2.088  0.00  0.00    +0.234 C 
ATOM      3  O   UNL     1       2.309  -0.346  -1.162  0.00  0.00    -0.274 OA
ATOM      4  H   UNL     1      -0.173  -0.987  -2.879  0.00  0.00    +0.149 HD
ENDROOT
BRANCH   1   5
ATOM      5  C   UNL     1      -0.369  -0.091  -0.964  0.00  0.00    +0.153 C 
BRANCH   5   6
ATOM      6  C   UNL     1      -1.689  -0.790  -0.767  0.00  0.00    +0.238 C 
ATOM      7  O   UNL     1      -2.141  -1.493  -1.645  0.00  0.00    -0.285 OA
BRANCH   6   8
ATOM      8  C   UNL     1      -2.432  -0.620   0.495  0.00  0.00    +0.268 A 
ATOM      9  N   UNL     1      -2.034   0.108   1.507  0.00  0.00    -0.187 NA
ATOM     10  C   UNL     1      -2.957   0.039   2.487  0.00  0.00    +0.199 A 
ATOM     11  C   UNL     1      -3.979  -0.807   2.017  0.00  0.00    +0.175 A 
ATOM     12  O   UNL     1      -3.617  -1.196   0.778  0.00  0.00    -0.431 OA
ATOM     13  C   UNL     1      -5.074  -1.069   2.832  0.00  0.00    +0.051 A 
ATOM     14  C   UNL     1      -5.114  -0.480   4.083  0.00  0.00    +0.023 A 
ATOM     15  C   UNL     1      -4.071   0.345   4.485  0.00  0.00    +0.113 A 
ATOM     16  N   UNL     1      -3.044   0.581   3.701  0.00  0.00    -0.233 NA
ENDBRANCH   6   8
ENDBRANCH   5   6
BRANCH   5  17
ATOM     17  C   UNL     1      -0.614   1.395  -1.230  0.00  0.00    +0.065 C 
BRANCH  17  21
ATOM     18  C   UNL     1       3.130   3.388  -1.739  0.00  0.00    +0.000 A 
ATOM     19  C   UNL     1       2.418   2.962  -2.844  0.00  0.00    +0.000 A 
ATOM     20  C   UNL     1       1.206   2.318  -2.679  0.00  0.00    +0.004 A 
ATOM     21  C   UNL     1       0.707   2.098  -1.409  0.00  0.00    -0.045 A 
ATOM     22  C   UNL     1       1.417   2.528  -0.304  0.00  0.00    +0.004 A 
ATOM     23  C   UNL     1       2.631   3.168  -0.468  0.00  0.00    +0.000 A 
ENDBRANCH  17  21
ENDBRANCH   5  17
ENDBRANCH   1   5
BRANCH   2  24
ATOM     24  C   UNL     1       2.383  -1.506  -3.216  0.00  0.00    +0.222 C 
BRANCH  24  25
ATOM     25  N   UNL     1       3.809  -1.619  -2.901  0.00  0.00    -0.282 N 
ATOM     26  C   UNL     1       4.654  -0.614  -3.215  0.00  0.00    +0.275 A 
ATOM     27  O   UNL     1       4.244   0.396  -3.762  0.00  0.00    -0.266 OA
ATOM     28  C   UNL     1       6.026  -0.757  -2.895  0.00  0.00    +0.108 A 
ATOM     29  C   UNL     1       6.442  -1.906  -2.281  0.00  0.00    +0.141 A 
ATOM     30  N   UNL     1       5.564  -2.866  -1.994  0.00  0.00    -0.235 NA
ATOM     31  C   UNL     1       4.287  -2.738  -2.283  0.00  0.00    +0.144 A 
BRANCH  31  32
ATOM     32  C   UNL     1       3.354  -3.829  -1.938  0.00  0.00    +0.018 A 
ATOM     33  C   UNL     1       3.310  -4.328  -0.634  0.00  0.00    +0.014 A 
ATOM     34  C   UNL     1       2.433  -5.343  -0.316  0.00  0.00    +0.039 A 
ATOM     35  C   UNL     1       1.603  -5.876  -1.290  0.00  0.00    +0.123 A 
ATOM     36  C   UNL     1       1.647  -5.389  -2.587  0.00  0.00    +0.039 A 
ATOM     37  C   UNL     1       2.516  -4.371  -2.915  0.00  0.00    +0.014 A 
ATOM     38  F   UNL     1       0.750  -6.875  -0.974  0.00  0.00    -0.205 F 
ENDBRANCH  31  32
BRANCH  28  39
ATOM     39  N   UNL     1       6.940   0.260  -3.202  0.00  0.00    -0.353 N 
ATOM     40  H   UNL     1       6.635   1.071  -3.637  0.00  0.00    +0.143 HD
ATOM     41  H   UNL     1       7.877   0.152  -2.979  0.00  0.00    +0.143 HD
ENDBRANCH  28  39
ENDBRANCH  24  25
ENDBRANCH   2  24
TORSDOF 9
