REMARK  Name = ZINC09502505
REMARK  5 active torsions:
REMARK  status: ('A' for Active; 'I' for Inactive)
REMARK    1  A    between atoms: C_1  and  C_2
REMARK    2  A    between atoms: C_2  and  C_19
REMARK    3  A    between atoms: N_5  and  C_9
REMARK    4  A    between atoms: C_9  and  C_10
REMARK    5  A    between atoms: C_13  and  N_16
REMARK                            x       y       z     vdW  Elec       q    Type
REMARK                         _______ _______ _______ _____ _____    ______ ____
ROOT
ATOM      1  C   UNL     1      -3.045   4.056   1.485  0.00  0.00    +0.047 C 
ATOM      2  C   UNL     1      -2.569   3.842   0.047  0.00  0.00    +0.135 C 
ATOM      3  C   UNL     1      -3.596   3.061  -0.748  0.00  0.00    +0.251 C 
ATOM      4  O   UNL     1      -3.991   1.936  -0.528  0.00  0.00    -0.272 OA
ATOM      5  N   UNL     1      -3.978   3.877  -1.751  0.00  0.00    -0.220 N 
ATOM      6  C   UNL     1      -3.341   5.052  -1.700  0.00  0.00    +0.310 C 
ATOM      7  O   UNL     1      -3.518   5.952  -2.498  0.00  0.00    -0.252 OA
ATOM      8  N   UNL     1      -2.483   5.128  -0.667  0.00  0.00    -0.281 N 
ATOM      9  H   UNL     1      -1.918   5.882  -0.437  0.00  0.00    +0.152 HD
ENDROOT
BRANCH   2  10
ATOM     10  C   UNL     1      -1.237   3.137   0.031  0.00  0.00    -0.015 A 
ATOM     11  C   UNL     1      -1.198   1.744   0.017  0.00  0.00    +0.007 A 
ATOM     12  C   UNL     1      -0.013   1.076   0.008  0.00  0.00    +0.009 A 
ATOM     13  C   UNL     1       1.193   1.799   0.000  0.00  0.00    -0.018 A 
ATOM     14  C   UNL     1       2.436   1.144  -0.015  0.00  0.00    +0.008 A 
ATOM     15  C   UNL     1       3.583   1.877  -0.022  0.00  0.00    +0.001 A 
ATOM     16  C   UNL     1       3.544   3.270  -0.015  0.00  0.00    +0.001 A 
ATOM     17  C   UNL     1       2.358   3.938   0.000  0.00  0.00    +0.008 A 
ATOM     18  C   UNL     1       1.153   3.215   0.008  0.00  0.00    -0.018 A 
ATOM     19  C   UNL     1      -0.090   3.870   0.023  0.00  0.00    +0.014 A 
ENDBRANCH   2  10
BRANCH   5  20
ATOM     20  C   UNL     1      -4.967   3.520  -2.771  0.00  0.00    +0.153 C 
BRANCH  20  21
ATOM     21  C   UNL     1      -4.271   2.873  -3.941  0.00  0.00    -0.029 A 
ATOM     22  C   UNL     1      -3.818   3.649  -4.991  0.00  0.00    +0.007 A 
ATOM     23  C   UNL     1      -3.176   3.056  -6.061  0.00  0.00    +0.033 A 
ATOM     24  C   UNL     1      -2.995   1.686  -6.087  0.00  0.00    +0.126 A 
ATOM     25  C   UNL     1      -3.454   0.909  -5.040  0.00  0.00    +0.033 A 
ATOM     26  C   UNL     1      -4.091   1.502  -3.966  0.00  0.00    +0.007 A 
BRANCH  24  27
ATOM     27  N   UNL     1      -2.312   1.051  -7.236  0.00  0.00    +0.056 N 
ATOM     28  O   UNL     1      -2.154  -0.157  -7.259  0.00  0.00    -0.126 OA
ATOM     29  O   UNL     1      -1.908   1.735  -8.159  0.00  0.00    -0.126 OA
ENDBRANCH  24  27
ENDBRANCH  20  21
ENDBRANCH   5  20
TORSDOF 4
