REMARK  Name = ZINC09293017
REMARK  10 active torsions:
REMARK  status: ('A' for Active; 'I' for Inactive)
REMARK    1  A    between atoms: C_1  and  N_2
REMARK    2  A    between atoms: N_7  and  C_10
REMARK    3  A    between atoms: N_11  and  C_27
REMARK    4  A    between atoms: C_12  and  C_14
REMARK    5  A    between atoms: C_14  and  N_71
REMARK    6  A    between atoms: C_17  and  C_20
REMARK    7  A    between atoms: C_20  and  C_21
REMARK    8  A    between atoms: C_27  and  C_28
REMARK    9  A    between atoms: C_28  and  C_29
REMARK   10  A    between atoms: C_29  and  C_30
REMARK                            x       y       z     vdW  Elec       q    Type
REMARK                         _______ _______ _______ _____ _____    ______ ____
ROOT
ATOM      1  C   UNL     1       3.114   4.644   0.031  0.00  0.00    +0.155 C 
ATOM      2  N   UNL     1       1.652   4.723  -0.015  0.00  0.00    -0.280 N 
ATOM      3  C   UNL     1       0.896   3.562  -0.037  0.00  0.00    +0.168 A 
ATOM      4  C   UNL     1      -0.488   3.664  -0.080  0.00  0.00    +0.152 A 
ATOM      5  C   UNL     1      -1.084   4.943  -0.102  0.00  0.00    +0.282 A 
ATOM      6  O   UNL     1      -2.296   5.058  -0.140  0.00  0.00    -0.265 OA
ATOM      7  N   UNL     1      -0.294   6.037  -0.080  0.00  0.00    -0.262 N 
ATOM      8  C   UNL     1       1.044   5.925  -0.038  0.00  0.00    +0.333 A 
ATOM      9  O   UNL     1       1.724   6.933  -0.020  0.00  0.00    -0.246 OA
ATOM     10  C   UNL     1      -0.906   7.369  -0.103  0.00  0.00    +0.157 C 
ATOM     11  N   UNL     1      -0.970   2.370  -0.097  0.00  0.00    -0.324 N 
ATOM     12  C   UNL     1       0.099   1.551  -0.056  0.00  0.00    +0.096 A 
ATOM     13  N   UNL     1       1.198   2.261  -0.024  0.00  0.00    -0.216 NA
ENDROOT
BRANCH  12  14
ATOM     14  C   UNL     1       0.038   0.045  -0.055  0.00  0.00    -0.003 C 
BRANCH  14  20
ATOM     15  C   UNL     1       0.985   0.138  -2.281  0.00  0.00    -0.078 C 
ATOM     16  C   UNL     1       0.759  -0.274  -3.737  0.00  0.00    -0.015 C 
ATOM     17  C   UNL     1       0.781  -1.802  -3.839  0.00  0.00    -0.010 C 
ATOM     18  C   UNL     1      -0.292  -2.383  -2.914  0.00  0.00    -0.015 C 
ATOM     19  C   UNL     1      -0.035  -1.909  -1.481  0.00  0.00    -0.078 C 
ATOM     20  N   UNL     1      -0.093  -0.432  -1.447  0.00  0.00    +0.384 N 
ATOM     21  H   UNL     1      -1.000  -0.126  -1.820  0.00  0.00    -0.081 HD
BRANCH  17  22
ATOM     22  C   UNL     1       0.495  -2.224  -5.282  0.00  0.00    +0.038 C 
BRANCH  22  23
ATOM     23  C   UNL     1       1.624  -1.770  -6.170  0.00  0.00    -0.047 A 
ATOM     24  C   UNL     1       1.524  -0.577  -6.861  0.00  0.00    +0.003 A 
ATOM     25  C   UNL     1       2.561  -0.159  -7.673  0.00  0.00    +0.000 A 
ATOM     26  C   UNL     1       3.695  -0.938  -7.802  0.00  0.00    +0.000 A 
ATOM     27  C   UNL     1       3.794  -2.134  -7.115  0.00  0.00    +0.000 A 
ATOM     28  C   UNL     1       2.758  -2.550  -6.300  0.00  0.00    +0.003 A 
ENDBRANCH  22  23
ENDBRANCH  17  22
ENDBRANCH  14  20
ENDBRANCH  12  14
BRANCH  11  29
ATOM     29  C   UNL     1      -2.377   1.965  -0.147  0.00  0.00    +0.124 C 
BRANCH  29  30
ATOM     30  C   UNL     1      -2.954   1.946   1.270  0.00  0.00    +0.026 C 
BRANCH  30  31
ATOM     31  C   UNL     1      -4.384   1.405   1.232  0.00  0.00    +0.037 C 
BRANCH  31  32
ATOM     32  C   UNL     1      -4.994   1.501   2.607  0.00  0.00    -0.047 A 
ATOM     33  C   UNL     1      -4.784   0.492   3.528  0.00  0.00    +0.003 A 
ATOM     34  C   UNL     1      -5.340   0.582   4.790  0.00  0.00    +0.000 A 
ATOM     35  C   UNL     1      -6.114   1.676   5.129  0.00  0.00    +0.000 A 
ATOM     36  C   UNL     1      -6.328   2.683   4.206  0.00  0.00    +0.000 A 
ATOM     37  C   UNL     1      -5.768   2.595   2.945  0.00  0.00    +0.003 A 
ENDBRANCH  31  32
ENDBRANCH  30  31
ENDBRANCH  29  30
ENDBRANCH  11  29
TORSDOF 8
