REMARK  Name = ZINC04102980
REMARK  10 active torsions:
REMARK  status: ('A' for Active; 'I' for Inactive)
REMARK    1  A    between atoms: C_1  and  C_2
REMARK    2  A    between atoms: C_2  and  C_3
REMARK    3  A    between atoms: C_2  and  C_4
REMARK    4  A    between atoms: C_2  and  O_5
REMARK    5  A    between atoms: O_5  and  C_6
REMARK    6  A    between atoms: C_15  and  C_27
REMARK    7  A    between atoms: C_17  and  C_23
REMARK    8  A    between atoms: C_17  and  C_25
REMARK    9  A    between atoms: C_18  and  N_22
REMARK   10  A    between atoms: C_19  and  C_20
REMARK                            x       y       z     vdW  Elec       q    Type
REMARK                         _______ _______ _______ _____ _____    ______ ____
ROOT
ATOM      1  C   UNL     1       1.952  -0.085  -1.337  0.00  0.00    +0.404 C 
ATOM      2  O   UNL     1       2.488   0.619  -0.503  0.00  0.00    -0.226 OA
ATOM      3  N   UNL     1       2.641  -0.485  -2.424  0.00  0.00    -0.263 N 
ATOM      4  C   UNL     1       2.020  -1.334  -3.457  0.00  0.00    +0.138 C 
ATOM      5  C   UNL     1       2.879  -2.565  -3.593  0.00  0.00    -0.003 C 
ATOM      6  C   UNL     1       4.169  -2.530  -3.322  0.00  0.00    -0.026 C 
ATOM      7  C   UNL     1       4.912  -1.299  -2.897  0.00  0.00    +0.048 C 
ATOM      8  C   UNL     1       4.038  -0.089  -2.633  0.00  0.00    +0.120 C 
ATOM      9  C   UNL     1       5.787  -1.655  -1.694  0.00  0.00    +0.074 C 
ATOM     10  C   UNL     1       6.824  -2.691  -2.128  0.00  0.00    +0.189 C 
ATOM     11  C   UNL     1       6.191  -3.841  -2.851  0.00  0.00    +0.054 C 
ATOM     12  C   UNL     1       4.963  -3.785  -3.424  0.00  0.00    +0.074 C 
ENDROOT
BRANCH   9  13
ATOM     13  C   UNL     1       6.484  -0.417  -1.193  0.00  0.00    -0.004 A 
ATOM     14  C   UNL     1       6.417   0.166   0.029  0.00  0.00    +0.011 A 
ATOM     15  C   UNL     1       7.153   1.310   0.268  0.00  0.00    +0.008 A 
ATOM     16  C   UNL     1       7.922   1.817  -0.727  0.00  0.00    +0.045 A 
ATOM     17  S   UNL     1       7.621   0.659  -2.052  0.00  0.00    -0.101 S 
ENDBRANCH   9  13
BRANCH  11  18
ATOM     18  N   UNL     1       6.890  -5.012  -2.939  0.00  0.00    -0.358 N 
ATOM     19  H   UNL     1       7.771  -5.082  -2.538  0.00  0.00    +0.142 HD
ATOM     20  H   UNL     1       6.506  -5.773  -3.401  0.00  0.00    +0.142 HD
ENDBRANCH  11  18
BRANCH  12  21
ATOM     21  C   UNL     1       4.435  -4.920  -4.120  0.00  0.00    +0.101 C 
ATOM     22  N   UNL     1       4.017  -5.821  -4.671  0.00  0.00    -0.191 NA
ENDBRANCH  12  21
BRANCH  10  23
ATOM     23  C   UNL     1       7.522  -3.200  -0.936  0.00  0.00    +0.091 C 
ATOM     24  N   UNL     1       8.061  -3.592  -0.016  0.00  0.00    -0.194 NA
ENDBRANCH  10  23
BRANCH  10  25
ATOM     25  C   UNL     1       7.804  -2.046  -3.017  0.00  0.00    +0.091 C 
ATOM     26  N   UNL     1       8.560  -1.548  -3.703  0.00  0.00    -0.194 NA
ENDBRANCH  10  25
BRANCH   1  27
ATOM     27  O   UNL     1       0.671  -0.465  -1.174  0.00  0.00    -0.445 OA
BRANCH  27  29
ATOM     28  C   UNL     1      -0.019   1.526   0.010  0.00  0.00    +0.055 C 
ATOM     29  C   UNL     1       0.002  -0.004   0.002  0.00  0.00    +0.107 C 
ATOM     30  C   UNL     1       0.742  -0.511   1.242  0.00  0.00    +0.055 C 
ATOM     31  C   UNL     1      -1.433  -0.534   0.013  0.00  0.00    +0.055 C 
ENDBRANCH  27  29
ENDBRANCH   1  27
TORSDOF 7
