REMARK  Name = ZINC38705697
REMARK  15 active torsions:
REMARK  status: ('A' for Active; 'I' for Inactive)
REMARK    1  A    between atoms: C_1  and  C_2
REMARK    2  A    between atoms: C_4  and  C_41
REMARK    3  A    between atoms: C_5  and  C_9
REMARK    4  A    between atoms: C_6  and  O_8
REMARK    5  A    between atoms: N_17  and  C_34
REMARK    6  A    between atoms: C_18  and  C_20
REMARK    7  A    between atoms: C_24  and  O_26
REMARK    8  A    between atoms: O_26  and  C_27
REMARK    9  A    between atoms: C_27  and  C_28
REMARK   10  A    between atoms: C_34  and  C_35
REMARK   11  A    between atoms: C_35  and  C_36
REMARK   12  A    between atoms: C_36  and  O_37
REMARK   13  A    between atoms: O_37  and  C_38
REMARK   14  A    between atoms: C_38  and  C_39
REMARK   15  A    between atoms: C_38  and  C_40
REMARK                            x       y       z     vdW  Elec       q    Type
REMARK                         _______ _______ _______ _____ _____    ______ ____
ROOT
ATOM      1  C   UNL     1       0.104  -4.354  -0.124  0.00  0.00    +0.102 A 
ATOM      2  C   UNL     1       0.198  -5.154   1.019  0.00  0.00    +0.035 A 
ATOM      3  C   UNL     1       0.167  -6.460   0.568  0.00  0.00    +0.126 A 
ATOM      4  N   UNL     1       0.059  -6.389  -0.792  0.00  0.00    -0.272 N 
ATOM      5  H   UNL     1       0.014  -7.154  -1.387  0.00  0.00    +0.189 HD
ATOM      6  N   UNL     1       0.018  -5.160  -1.164  0.00  0.00    -0.173 NA
ATOM      7  C   UNL     1       0.263  -7.356   1.726  0.00  0.00    +0.265 C 
ATOM      8  O   UNL     1       0.262  -8.570   1.666  0.00  0.00    -0.268 OA
ATOM      9  N   UNL     1       0.350  -6.643   2.864  0.00  0.00    -0.285 N 
ATOM     10  C   UNL     1       0.318  -5.216   2.517  0.00  0.00    +0.141 C 
ENDROOT
BRANCH   1  15
ATOM     11  C   UNL     1       0.073   1.408  -0.267  0.00  0.00    +0.044 C 
ATOM     12  C   UNL     1       0.079  -0.099  -0.228  0.00  0.00    -0.047 A 
ATOM     13  C   UNL     1       0.938  -0.806  -1.051  0.00  0.00    +0.007 A 
ATOM     14  C   UNL     1       0.950  -2.186  -1.021  0.00  0.00    -0.037 A 
ATOM     15  C   UNL     1       0.095  -2.870  -0.160  0.00  0.00    +0.047 A 
ATOM     16  C   UNL     1      -0.771  -2.153   0.670  0.00  0.00    +0.127 A 
ATOM     17  C   UNL     1      -0.769  -0.768   0.635  0.00  0.00    +0.049 A 
ATOM     18  C   UNL     1       1.886  -2.952  -1.920  0.00  0.00    +0.044 C 
BRANCH  16  19
ATOM     19  O   UNL     1      -1.608  -2.812   1.514  0.00  0.00    -0.506 OA
ATOM     20  H   UNL     1      -1.264  -2.911   2.412  0.00  0.00    +0.292 HD
ENDBRANCH  16  19
ENDBRANCH   1  15
BRANCH  10  21
ATOM     21  C   UNL     1       1.591  -4.544   2.964  0.00  0.00    -0.019 A 
ATOM     22  C   UNL     1       2.813  -5.137   2.705  0.00  0.00    +0.006 A 
ATOM     23  C   UNL     1       3.982  -4.524   3.114  0.00  0.00    +0.004 A 
ATOM     24  C   UNL     1       3.932  -3.315   3.783  0.00  0.00    +0.045 A 
ATOM     25  C   UNL     1       2.708  -2.718   4.043  0.00  0.00    +0.121 A 
ATOM     26  C   UNL     1       1.536  -3.333   3.627  0.00  0.00    +0.051 A 
BRANCH  25  27
ATOM     27  O   UNL     1       2.656  -1.530   4.700  0.00  0.00    -0.487 OA
BRANCH  27  28
ATOM     28  C   UNL     1       3.902  -0.952   5.094  0.00  0.00    +0.264 C 
BRANCH  28  29
ATOM     29  C   UNL     1       3.648   0.353   5.804  0.00  0.00    -0.010 A 
ATOM     30  C   UNL     1       3.587   1.532   5.084  0.00  0.00    +0.007 A 
ATOM     31  C   UNL     1       3.354   2.728   5.736  0.00  0.00    +0.000 A 
ATOM     32  C   UNL     1       3.182   2.747   7.107  0.00  0.00    +0.000 A 
ATOM     33  C   UNL     1       3.242   1.568   7.827  0.00  0.00    +0.000 A 
ATOM     34  C   UNL     1       3.471   0.371   7.175  0.00  0.00    +0.007 A 
ENDBRANCH  28  29
ENDBRANCH  27  28
ENDBRANCH  25  27
ENDBRANCH  10  21
BRANCH   9  35
ATOM     35  C   UNL     1       0.459  -7.196   4.216  0.00  0.00    +0.111 C 
BRANCH  35  36
ATOM     36  C   UNL     1       1.934  -7.383   4.574  0.00  0.00    +0.047 C 
BRANCH  36  37
ATOM     37  C   UNL     1       2.047  -7.960   5.987  0.00  0.00    +0.161 C 
BRANCH  37  38
ATOM     38  O   UNL     1       3.426  -8.135   6.321  0.00  0.00    -0.377 OA
BRANCH  38  39
ATOM     39  C   UNL     1       3.644  -8.672   7.627  0.00  0.00    +0.112 C 
ATOM     40  C   UNL     1       4.936  -9.490   7.633  0.00  0.00    +0.037 C 
ATOM     41  C   UNL     1       3.760  -7.527   8.636  0.00  0.00    +0.037 C 
ENDBRANCH  38  39
ENDBRANCH  37  38
ENDBRANCH  36  37
ENDBRANCH  35  36
ENDBRANCH   9  35
TORSDOF 11
