REMARK  Name = ZINC58891169
REMARK  9 active torsions:
REMARK  status: ('A' for Active; 'I' for Inactive)
REMARK    1  A    between atoms: C_4  and  C_7
REMARK    2  A    between atoms: C_7  and  C_9
REMARK    3  A    between atoms: C_7  and  O_32
REMARK    4  A    between atoms: C_9  and  C_10
REMARK    5  A    between atoms: C_10  and  C_11
REMARK    6  A    between atoms: N_13  and  N_14
REMARK    7  A    between atoms: C_15  and  C_16
REMARK    8  A    between atoms: C_19  and  C_21
REMARK    9  A    between atoms: C_23  and  N_29
REMARK                            x       y       z     vdW  Elec       q    Type
REMARK                         _______ _______ _______ _____ _____    ______ ____
ROOT
ATOM      1  N   UNL     1       7.336  -3.131   4.273  0.00  0.00    -0.185 NA
ATOM      2  C   UNL     1       8.361  -3.957   4.439  0.00  0.00    +0.176 C 
ENDROOT
BRANCH   2   3
ATOM      3  C   UNL     1       9.277  -4.143   3.412  0.00  0.00    +0.148 A 
ATOM      4  C   UNL     1      10.502  -4.951   3.485  0.00  0.00    +0.051 A 
ATOM      5  C   UNL     1      11.100  -4.862   2.270  0.00  0.00    +0.050 A 
ATOM      6  C   UNL     1      10.254  -4.003   1.443  0.00  0.00    +0.136 A 
ATOM      7  O   UNL     1       9.192  -3.617   2.172  0.00  0.00    -0.454 OA
BRANCH   6   8
ATOM      8  C   UNL     1      10.507  -3.644   0.097  0.00  0.00    +0.021 A 
ATOM      9  C   UNL     1       9.612  -2.800  -0.592  0.00  0.00    +0.045 A 
ATOM     10  C   UNL     1       9.865  -2.459  -1.889  0.00  0.00    +0.142 A 
ATOM     11  C   UNL     1      11.000  -2.939  -2.531  0.00  0.00    +0.066 A 
ATOM     12  C   UNL     1      11.889  -3.772  -1.861  0.00  0.00    +0.058 A 
ATOM     13  C   UNL     1      11.657  -4.121  -0.560  0.00  0.00    +0.032 A 
ATOM     14 CL   UNL     1      13.303  -4.364  -2.676  0.00  0.00    -0.082 Cl
ATOM     15 BR   UNL     1      11.337  -2.459  -4.328  0.00  0.00    -0.046 Br
BRANCH  10  16
ATOM     16  N   UNL     1       8.927  -1.573  -2.615  0.00  0.00    +0.058 N 
ATOM     17  O   UNL     1       7.851  -1.117  -2.009  0.00  0.00    -0.126 OA
ATOM     18  O   UNL     1       9.169  -1.242  -3.866  0.00  0.00    -0.126 OA
ENDBRANCH  10  16
ENDBRANCH   6   8
ENDBRANCH   2   3
BRANCH   1  21
ATOM     19  C   UNL     1       6.168  -1.648   2.986  0.00  0.00    +0.232 C 
ATOM     20  O   UNL     1       5.244  -1.677   3.765  0.00  0.00    -0.274 OA
ATOM     21  N   UNL     1       7.269  -2.390   3.219  0.00  0.00    -0.207 N 
ATOM     22  H   UNL     1       8.010  -2.368   2.595  0.00  0.00    +0.177 HD
BRANCH  19  23
ATOM     23  C   UNL     1       6.089  -0.783   1.755  0.00  0.00    +0.100 C 
BRANCH  23  24
ATOM     24  C   UNL     1       4.746  -0.051   1.731  0.00  0.00    +0.045 C 
BRANCH  24  25
ATOM     25  C   UNL     1       4.666   0.827   0.481  0.00  0.00    +0.145 C 
BRANCH  25  29
ATOM     26  C   UNL     1       1.071   3.132   0.585  0.00  0.00    +0.000 A 
ATOM     27  C   UNL     1       2.272   3.708   0.956  0.00  0.00    +0.000 A 
ATOM     28  C   UNL     1       3.436   2.961   0.922  0.00  0.00    +0.006 A 
ATOM     29  C   UNL     1       3.398   1.640   0.518  0.00  0.00    -0.019 A 
ATOM     30  C   UNL     1       2.197   1.065   0.148  0.00  0.00    +0.006 A 
ATOM     31  C   UNL     1       1.034   1.811   0.180  0.00  0.00    +0.000 A 
ENDBRANCH  25  29
BRANCH  25  32
ATOM     32  O   UNL     1       4.667  -0.001  -0.684  0.00  0.00    -0.387 OA
ATOM     33  H   UNL     1       3.928  -0.623  -0.725  0.00  0.00    +0.210 HD
ENDBRANCH  25  32
ENDBRANCH  24  25
ENDBRANCH  23  24
ENDBRANCH  19  23
ENDBRANCH   1  21
TORSDOF 9
