REMARK  Name = ZINC23114130
REMARK  14 active torsions:
REMARK  status: ('A' for Active; 'I' for Inactive)
REMARK    1  A    between atoms: C_1  and  N_2
REMARK    2  A    between atoms: N_2  and  C_3
REMARK    3  A    between atoms: N_2  and  C_4
REMARK    4  A    between atoms: C_4  and  C_6
REMARK    5  A    between atoms: C_4  and  C_27
REMARK    6  A    between atoms: C_6  and  N_7
REMARK    7  A    between atoms: C_8  and  C_10
REMARK    8  A    between atoms: C_13  and  S_16
REMARK    9  A    between atoms: S_16  and  N_19
REMARK   10  A    between atoms: N_19  and  C_20
REMARK   11  A    between atoms: C_20  and  C_21
REMARK   12  A    between atoms: C_21  and  C_22
REMARK   13  A    between atoms: C_32  and  O_33
REMARK   14  A    between atoms: O_33  and  C_34
REMARK                            x       y       z     vdW  Elec       q    Type
REMARK                         _______ _______ _______ _____ _____    ______ ____
ROOT
ATOM      1  N   UNL     1       3.222   5.397  -1.664  0.00  0.00    -0.313 N 
ATOM      2  C   UNL     1       3.171   6.079  -2.825  0.00  0.00    +0.244 C 
ATOM      3  O   UNL     1       2.257   5.888  -3.603  0.00  0.00    -0.270 OA
ATOM      4  H   UNL     1       4.050   5.570  -0.960  0.00  0.00    +0.149 HD
ENDROOT
BRANCH   2   5
ATOM      5  C   UNL     1       4.228   7.060  -3.153  0.00  0.00    +0.037 A 
ATOM      6  C   UNL     1       5.276   7.286  -2.259  0.00  0.00    +0.015 A 
ATOM      7  C   UNL     1       6.261   8.199  -2.574  0.00  0.00    +0.029 A 
ATOM      8  C   UNL     1       6.206   8.898  -3.767  0.00  0.00    +0.105 A 
ATOM      9  C   UNL     1       5.167   8.682  -4.654  0.00  0.00    +0.029 A 
ATOM     10  C   UNL     1       4.178   7.768  -4.355  0.00  0.00    +0.015 A 
BRANCH   8  11
ATOM     11  S   UNL     1       7.465  10.066  -4.158  0.00  0.00    +0.058 S 
ATOM     12  O   UNL     1       8.616   9.688  -3.414  0.00  0.00    -0.153 OA
ATOM     13  O   UNL     1       7.480  10.189  -5.574  0.00  0.00    -0.153 OA
BRANCH  11  14
ATOM     14  N   UNL     1       6.976  11.531  -3.561  0.00  0.00    -0.190 NA
ATOM     15  H   UNL     1       6.605  12.298  -4.256  0.00  0.00    +0.148 HD
BRANCH  14  16
ATOM     16  C   UNL     1       6.834  11.723  -2.115  0.00  0.00    +0.111 C 
BRANCH  16  17
ATOM     17  C   UNL     1       6.744  13.218  -1.805  0.00  0.00    +0.059 C 
BRANCH  17  18
ATOM     18  C   UNL     1       6.597  13.415  -0.318  0.00  0.00    -0.009 A 
ATOM     19  C   UNL     1       7.562  13.564   0.622  0.00  0.00    +0.011 A 
ATOM     20  C   UNL     1       7.190  13.737   1.942  0.00  0.00    +0.008 A 
ATOM     21  C   UNL     1       5.872  13.742   2.259  0.00  0.00    +0.045 A 
ATOM     22  S   UNL     1       5.108  13.504   0.663  0.00  0.00    -0.102 S 
ENDBRANCH  17  18
ENDBRANCH  16  17
ENDBRANCH  14  16
ENDBRANCH  11  14
ENDBRANCH   8  11
ENDBRANCH   2   5
BRANCH   1  23
ATOM     23  C   UNL     1       2.175   4.425  -1.339  0.00  0.00    +0.094 C 
BRANCH  23  24
ATOM     24  C   UNL     1       2.409   3.875   0.070  0.00  0.00    -0.017 C 
BRANCH  24  25
ATOM     25  C   UNL     1       3.687   3.076   0.091  0.00  0.00    -0.018 A 
ATOM     26  C   UNL     1       4.848   3.643   0.582  0.00  0.00    +0.005 A 
ATOM     27  C   UNL     1       6.021   2.911   0.602  0.00  0.00    +0.000 A 
ATOM     28  C   UNL     1       6.037   1.613   0.125  0.00  0.00    +0.004 A 
ATOM     29  C   UNL     1       4.878   1.040  -0.362  0.00  0.00    +0.046 A 
ATOM     30  C   UNL     1       3.699   1.773  -0.383  0.00  0.00    +0.122 A 
BRANCH  30  31
ATOM     31  O   UNL     1       2.559   1.214  -0.866  0.00  0.00    -0.495 OA
ATOM     32  C   UNL     1       2.645  -0.133  -1.337  0.00  0.00    +0.277 C 
ENDBRANCH  30  31
ENDBRANCH  24  25
BRANCH  24  34
ATOM     33  C   UNL     1       1.387   5.921   0.864  0.00  0.00    -0.096 C 
ATOM     34  N   UNL     1       2.513   4.990   1.020  0.00  0.00    +0.382 N 
ATOM     35  C   UNL     1       2.602   4.498   2.401  0.00  0.00    -0.096 C 
ATOM     36  H   UNL     1       3.439   5.540   0.797  0.00  0.00    -0.082 HD
ENDBRANCH  24  34
ENDBRANCH  23  24
ENDBRANCH   1  23
TORSDOF 11
