REMARK  Name = ZINC66593609
REMARK  9 active torsions:
REMARK  status: ('A' for Active; 'I' for Inactive)
REMARK    1  A    between atoms: C_1  and  C_2
REMARK    2  A    between atoms: C_2  and  C_3
REMARK    3  A    between atoms: C_6  and  C_8
REMARK    4  A    between atoms: C_8  and  N_9
REMARK    5  A    between atoms: N_9  and  C_10
REMARK    6  A    between atoms: C_10  and  C_12
REMARK    7  A    between atoms: C_10  and  C_13
REMARK    8  A    between atoms: C_16  and  N_19
REMARK    9  A    between atoms: C_20  and  C_26
REMARK                            x       y       z     vdW  Elec       q    Type
REMARK                         _______ _______ _______ _____ _____    ______ ____
ROOT
ATOM      1  C   UNL     1       1.547  -5.197  -6.621  0.00  0.00    -0.062 A 
ATOM      2  C   UNL     1       1.942  -6.038  -5.597  0.00  0.00    +0.004 A 
ATOM      3  C   UNL     1       1.695  -7.394  -5.680  0.00  0.00    +0.024 A 
ATOM      4  C   UNL     1       1.050  -7.913  -6.795  0.00  0.00    +0.038 A 
ATOM      5  C   UNL     1       0.654  -7.066  -7.822  0.00  0.00    +0.024 A 
ATOM      6  C   UNL     1       0.899  -5.710  -7.729  0.00  0.00    +0.004 A 
ENDROOT
BRANCH   4   7
ATOM      7  N   UNL     1       0.799  -9.287  -6.883  0.00  0.00    -0.251 N 
ATOM      8  C   UNL     1       0.023  -9.945  -7.945  0.00  0.00    +0.097 C 
ATOM      9  C   UNL     1       0.060 -11.437  -7.559  0.00  0.00    +0.128 C 
ATOM     10  N   UNL     1       0.853 -11.461  -6.321  0.00  0.00    -0.297 N 
ATOM     11  C   UNL     1       1.232 -10.212  -6.017  0.00  0.00    +0.307 C 
ATOM     12  O   UNL     1       1.905  -9.943  -5.041  0.00  0.00    -0.252 OA
ATOM     13  C   UNL     1      -1.417  -9.427  -7.958  0.00  0.00    +0.030 C 
ATOM     14  H   UNL     1       1.071 -12.255  -5.808  0.00  0.00    +0.150 HD
ENDBRANCH   4   7
BRANCH   1  15
ATOM     15  C   UNL     1       1.817  -3.717  -6.526  0.00  0.00    -0.044 C 
ATOM     16  C   UNL     1       3.270  -3.438  -6.916  0.00  0.00    -0.009 C 
BRANCH  15  17
ATOM     17  N   UNL     1       1.584  -3.265  -5.148  0.00  0.00    +0.386 N 
ATOM     18  H   UNL     1       2.256  -3.699  -4.533  0.00  0.00    -0.085 HD
ATOM     19  H   UNL     1       0.651  -3.522  -4.862  0.00  0.00    -0.085 HD
BRANCH  17  20
ATOM     20  C   UNL     1       1.731  -1.804  -5.081  0.00  0.00    -0.039 C 
BRANCH  20  24
ATOM     21  C   UNL     1       0.615  -0.471  -1.270  0.00  0.00    -0.010 A 
ATOM     22  C   UNL     1       1.933  -0.744  -1.428  0.00  0.00    +0.011 A 
ATOM     23  C   UNL     1       2.383  -1.189  -2.656  0.00  0.00    +0.009 A 
ATOM     24  C   UNL     1       1.492  -1.340  -3.667  0.00  0.00    -0.027 A 
ATOM     25  S   UNL     1      -0.038  -0.851  -2.888  0.00  0.00    -0.100 S 
BRANCH  21  27
ATOM     26  C   UNL     1      -0.132   1.550  -0.042  0.00  0.00    +0.009 C 
ATOM     27  C   UNL     1      -0.113   0.020  -0.045  0.00  0.00    +0.039 C 
ENDBRANCH  21  27
ENDBRANCH  20  24
ENDBRANCH  17  20
ENDBRANCH  15  17
ENDBRANCH   1  15
TORSDOF 6
