REMARK  Name = ZINC20168501
REMARK  10 active torsions:
REMARK  status: ('A' for Active; 'I' for Inactive)
REMARK    1  A    between atoms: C_1  and  C_2
REMARK    2  A    between atoms: C_2  and  O_3
REMARK    3  A    between atoms: O_3  and  C_4
REMARK    4  A    between atoms: C_4  and  C_6
REMARK    5  A    between atoms: C_10  and  N_11
REMARK    6  A    between atoms: N_11  and  C_12
REMARK    7  A    between atoms: C_12  and  N_14
REMARK    8  A    between atoms: N_14  and  N_15
REMARK    9  A    between atoms: C_16  and  C_18
REMARK   10  A    between atoms: C_25  and  C_28
REMARK                            x       y       z     vdW  Elec       q    Type
REMARK                         _______ _______ _______ _____ _____    ______ ____
ROOT
ATOM      1  N   UNL     1      -1.313   6.259   0.042  0.00  0.00    -0.290 N 
ATOM      2  H   UNL     1      -0.363   5.704   0.035  0.00  0.00    +0.154 HD
ENDROOT
BRANCH   1   7
ATOM      3  C   UNL     1      -0.219   8.500   0.055  0.00  0.00    +0.091 A 
ATOM      4  C   UNL     1      -0.473   9.947   0.040  0.00  0.00    -0.021 A 
ATOM      5  C   UNL     1      -1.776  10.272   0.070  0.00  0.00    -0.004 A 
ATOM      6  S   UNL     1      -2.653   8.729   0.063  0.00  0.00    -0.077 S 
ATOM      7  C   UNL     1      -1.305   7.644   0.050  0.00  0.00    +0.086 A 
ATOM      8  C   UNL     1      -2.401  11.636   0.160  0.00  0.00    +0.043 C 
ATOM      9  C   UNL     1      -2.347  12.052   1.640  0.00  0.00    +0.005 C 
ATOM     10  C   UNL     1      -0.896  11.927   2.121  0.00  0.00    +0.000 C 
ATOM     11  C   UNL     1      -0.107  12.903   1.275  0.00  0.00    +0.000 C 
ATOM     12  C   UNL     1       0.296  12.360  -0.085  0.00  0.00    +0.005 C 
ATOM     13  C   UNL     1       0.722  10.898  -0.028  0.00  0.00    +0.037 C 
BRANCH   3  14
ATOM     14  C   UNL     1       1.149   7.978   0.070  0.00  0.00    +0.342 C 
ATOM     15  O   UNL     1       1.726   7.755  -0.977  0.00  0.00    -0.245 OA
BRANCH  14  16
ATOM     16  O   UNL     1       1.768   7.743   1.246  0.00  0.00    -0.461 OA
BRANCH  16  18
ATOM     17  C   UNL     1       3.656   7.024   2.604  0.00  0.00    +0.048 C 
ATOM     18  C   UNL     1       3.123   7.226   1.185  0.00  0.00    +0.229 C 
ENDBRANCH  16  18
ENDBRANCH  14  16
ENDBRANCH   3  14
ENDBRANCH   1   7
BRANCH   1  19
ATOM     19  C   UNL     1      -2.484   5.591   0.044  0.00  0.00    +0.151 C 
ATOM     20  S   UNL     1      -3.962   6.455   0.056  0.00  0.00    -0.017 S 
BRANCH  19  21
ATOM     21  N   UNL     1      -2.491   4.244   0.037  0.00  0.00    -0.245 N 
ATOM     22  H   UNL     1      -3.446   3.699   0.039  0.00  0.00    +0.172 HD
BRANCH  21  23
ATOM     23  N   UNL     1      -1.281   3.537   0.027  0.00  0.00    -0.231 N 
ATOM     24  C   UNL     1      -1.288   2.189   0.020  0.00  0.00    +0.261 C 
ATOM     25  O   UNL     1      -2.345   1.587   0.022  0.00  0.00    -0.269 OA
ATOM     26  H   UNL     1      -0.326   4.082   0.026  0.00  0.00    +0.173 HD
BRANCH  24  27
ATOM     27  C   UNL     1      -0.018   1.446   0.010  0.00  0.00    +0.049 A 
ATOM     28  C   UNL     1       1.192   2.106   0.002  0.00  0.00    +0.058 A 
ATOM     29  S   UNL     1       2.348   0.815  -0.016  0.00  0.00    -0.101 S 
ATOM     30  C   UNL     1       1.235  -0.561  -0.013  0.00  0.00    -0.006 A 
ATOM     31  C   UNL     1       0.002  -0.004   0.002  0.00  0.00    -0.025 A 
ATOM     32  C   UNL     1      -1.250  -0.872   0.011  0.00  0.00    +0.037 C 
ATOM     33  C   UNL     1      -0.867  -2.284   0.457  0.00  0.00    +0.008 C 
ATOM     34  C   UNL     1       0.296  -2.802  -0.394  0.00  0.00    -0.009 C 
ATOM     35  C   UNL     1       1.566  -2.021  -0.025  0.00  0.00    +0.046 C 
ATOM     36  C   UNL     1       0.510  -4.291  -0.117  0.00  0.00    +0.008 C 
ENDBRANCH  24  27
ENDBRANCH  21  23
ENDBRANCH  19  21
ENDBRANCH   1  19
TORSDOF 8
