REMARK  Name = ZINC12364669
REMARK  6 active torsions:
REMARK  status: ('A' for Active; 'I' for Inactive)
REMARK    1  A    between atoms: C_1  and  C_2
REMARK    2  A    between atoms: C_2  and  C_4
REMARK    3  A    between atoms: C_4  and  O_29
REMARK    4  A    between atoms: C_9  and  C_28
REMARK    5  A    between atoms: C_20  and  C_27
REMARK    6  A    between atoms: C_23  and  O_26
REMARK                            x       y       z     vdW  Elec       q    Type
REMARK                         _______ _______ _______ _____ _____    ______ ____
ROOT
ATOM      1  C   UNL     1      -0.128   9.207   0.541  0.00  0.00    +0.129 C 
ATOM      2  C   UNL     1       0.981   9.457  -0.512  0.00  0.00    +0.043 C 
ATOM      3  C   UNL     1       1.577   8.066  -0.858  0.00  0.00    +0.008 C 
ATOM      4  C   UNL     1       1.252   7.233   0.387  0.00  0.00    +0.002 C 
ATOM      5  C   UNL     1      -0.193   7.689   0.723  0.00  0.00    +0.007 C 
ATOM      6  C   UNL     1      -0.505   7.173   2.115  0.00  0.00    +0.010 C 
ATOM      7  C   UNL     1      -0.517   5.639   2.033  0.00  0.00    +0.005 C 
ATOM      8  C   UNL     1       0.804   5.083   1.508  0.00  0.00    -0.001 C 
ATOM      9  C   UNL     1       1.216   5.729   0.182  0.00  0.00    -0.004 C 
ATOM     10  C   UNL     1       2.597   5.247  -0.263  0.00  0.00    +0.004 C 
ATOM     11  C   UNL     1       2.753   3.745  -0.012  0.00  0.00    +0.004 C 
ATOM     12  C   UNL     1       1.361   3.129   0.049  0.00  0.00    -0.002 C 
ATOM     13  C   UNL     1       0.679   3.574   1.345  0.00  0.00    -0.026 C 
ATOM     14  C   UNL     1      -0.777   3.113   1.308  0.00  0.00    +0.010 C 
ATOM     15  C   UNL     1      -0.785   1.578   1.262  0.00  0.00    +0.032 C 
ATOM     16  C   UNL     1      -0.047   1.085   0.018  0.00  0.00    +0.115 C 
ATOM     17  C   UNL     1       1.395   1.605   0.010  0.00  0.00    +0.035 C 
ATOM     18  C   UNL     1       1.369   2.889   2.526  0.00  0.00    +0.012 C 
ATOM     19  C   UNL     1      -1.175   7.099  -0.291  0.00  0.00    +0.015 C 
ENDROOT
BRANCH   1  21
ATOM     20  C   UNL     1      -0.840  10.348   2.778  0.00  0.00    +0.089 C 
ATOM     21  C   UNL     1       0.241   9.856   1.851  0.00  0.00    +0.162 C 
ATOM     22  O   UNL     1       1.403   9.980   2.157  0.00  0.00    -0.295 OA
ENDBRANCH   1  21
BRANCH  16  23
ATOM     23  O   UNL     1      -0.726   1.556  -1.148  0.00  0.00    -0.392 OA
ATOM     24  H   UNL     1      -1.644   1.261  -1.214  0.00  0.00    +0.210 HD
ENDBRANCH  16  23
BRANCH   1  25
ATOM     25  O   UNL     1      -1.379   9.715   0.073  0.00  0.00    -0.381 OA
ATOM     26  H   UNL     1      -1.381  10.669  -0.086  0.00  0.00    +0.211 HD
ENDBRANCH   1  25
TORSDOF 3
