REMARK  Name = ZINC44767794
REMARK  5 active torsions:
REMARK  status: ('A' for Active; 'I' for Inactive)
REMARK    1  A    between atoms: C_1  and  C_2
REMARK    2  A    between atoms: C_5  and  N_9
REMARK    3  A    between atoms: C_10  and  C_12
REMARK    4  A    between atoms: C_12  and  C_19
REMARK    5  A    between atoms: C_19  and  N_21
REMARK                            x       y       z     vdW  Elec       q    Type
REMARK                         _______ _______ _______ _____ _____    ______ ____
ROOT
ATOM      1  N   UNL     1       0.159  -4.012  -0.336  0.00  0.00    -0.284 N 
ATOM      2  C   UNL     1       0.135  -4.838  -1.400  0.00  0.00    +0.230 C 
ATOM      3  O   UNL     1       0.311  -4.395  -2.516  0.00  0.00    -0.274 OA
ATOM      4  H   UNL     1       0.086  -4.374   0.561  0.00  0.00    +0.155 HD
ENDROOT
BRANCH   1   9
ATOM      5  C   UNL     1       0.687   1.585  -1.102  0.00  0.00    +0.044 C 
ATOM      6  C   UNL     1       0.547   0.099  -0.898  0.00  0.00    -0.049 A 
ATOM      7  C   UNL     1       1.064  -0.778  -1.834  0.00  0.00    +0.005 A 
ATOM      8  C   UNL     1       0.937  -2.141  -1.651  0.00  0.00    +0.024 A 
ATOM      9  C   UNL     1       0.289  -2.631  -0.524  0.00  0.00    +0.047 A 
ATOM     10  C   UNL     1      -0.229  -1.748   0.415  0.00  0.00    +0.039 A 
ATOM     11  C   UNL     1      -0.094  -0.386   0.228  0.00  0.00    +0.020 A 
ATOM     12 BR   UNL     1      -1.112  -2.410   1.950  0.00  0.00    -0.048 Br
ENDBRANCH   1   9
BRANCH   2  13
ATOM     13  C   UNL     1      -0.111  -6.312  -1.205  0.00  0.00    +0.091 C 
ATOM     14  C   UNL     1      -1.388  -6.497  -0.359  0.00  0.00    +0.023 C 
ATOM     15  C   UNL     1      -2.415  -5.499  -0.820  0.00  0.00    +0.001 C 
ATOM     16  C   UNL     1      -3.374  -6.085  -1.875  0.00  0.00    +0.000 C 
ATOM     17  C   UNL     1      -2.651  -6.956  -2.920  0.00  0.00    +0.000 C 
ATOM     18  C   UNL     1      -1.347  -6.355  -3.368  0.00  0.00    +0.001 C 
ATOM     19  C   UNL     1      -0.212  -6.950  -2.509  0.00  0.00    +0.023 C 
BRANCH  13  20
ATOM     20  C   UNL     1       1.056  -6.907  -0.460  0.00  0.00    +0.061 C 
ATOM     21  S   UNL     1       1.975  -8.010  -1.163  0.00  0.00    -0.040 S 
BRANCH  20  22
ATOM     22  N   UNL     1       1.326  -6.508   0.799  0.00  0.00    -0.355 N 
ATOM     23  H   UNL     1       0.714  -5.914   1.261  0.00  0.00    +0.143 HD
ATOM     24  H   UNL     1       2.132  -6.814   1.242  0.00  0.00    +0.143 HD
ENDBRANCH  20  22
ENDBRANCH  13  20
ENDBRANCH   2  13
TORSDOF 4
