REMARK  Name = ZINC44036881
REMARK  7 active torsions:
REMARK  status: ('A' for Active; 'I' for Inactive)
REMARK    1  A    between atoms: C_1  and  C_2
REMARK    2  A    between atoms: C_3  and  C_16
REMARK    3  A    between atoms: C_7  and  N_8
REMARK    4  A    between atoms: N_11  and  C_12
REMARK    5  A    between atoms: C_12  and  C_13
REMARK    6  A    between atoms: C_13  and  C_14
REMARK    7  A    between atoms: C_13  and  C_15
REMARK                            x       y       z     vdW  Elec       q    Type
REMARK                         _______ _______ _______ _____ _____    ______ ____
ROOT
ATOM      1  C   UNL     1       0.153   1.551   0.180  0.00  0.00    +0.046 C 
ATOM      2  C   UNL     1       0.247   0.052   0.065  0.00  0.00    -0.017 A 
ATOM      3  C   UNL     1       0.167  -0.561  -1.185  0.00  0.00    +0.042 A 
ATOM      4  C   UNL     1       0.256  -1.950  -1.284  0.00  0.00    +0.013 A 
ATOM      5  C   UNL     1       0.422  -2.713  -0.145  0.00  0.00    +0.003 A 
ATOM      6  C   UNL     1       0.501  -2.106   1.094  0.00  0.00    +0.023 A 
ATOM      7  C   UNL     1       0.420  -0.723   1.201  0.00  0.00    +0.038 A 
ENDROOT
BRANCH   3   8
ATOM      8  C   UNL     1      -0.011   0.259  -2.403  0.00  0.00    +0.247 C 
ATOM      9  O   UNL     1      -0.942   1.036  -2.481  0.00  0.00    -0.270 OA
ATOM     10  N   UNL     1       0.859   0.144  -3.426  0.00  0.00    -0.293 N 
ATOM     11  C   UNL     1       0.754   1.028  -4.596  0.00  0.00    +0.113 C 
ATOM     12  C   UNL     1       2.013   1.907  -4.652  0.00  0.00    +0.061 C 
ATOM     13  C   UNL     1       3.205   1.055  -4.360  0.00  0.00    -0.004 A 
ATOM     14  C   UNL     1       3.230  -0.182  -3.794  0.00  0.00    -0.020 A 
ATOM     15  C   UNL     1       4.484  -0.766  -3.621  0.00  0.00    +0.013 A 
ATOM     16  C   UNL     1       5.597  -0.106  -4.014  0.00  0.00    +0.046 A 
ATOM     17  S   UNL     1       4.915   1.411  -4.665  0.00  0.00    -0.101 S 
ATOM     18  C   UNL     1       1.929  -0.861  -3.385  0.00  0.00    +0.144 C 
ENDBRANCH   3   8
BRANCH   7  19
ATOM     19  N   UNL     1       0.507  -0.113   2.458  0.00  0.00    -0.269 N 
ATOM     20  C   UNL     1       0.172  -0.802   3.567  0.00  0.00    +0.304 C 
ATOM     21  O   UNL     1      -0.303  -1.917   3.469  0.00  0.00    -0.253 OA
ATOM     22  N   UNL     1       0.364  -0.255   4.784  0.00  0.00    -0.299 N 
ATOM     23  H   UNL     1       0.809   0.806   2.531  0.00  0.00    +0.156 HD
ATOM     24  H   UNL     1       0.743   0.634   4.862  0.00  0.00    +0.150 HD
BRANCH  22  25
ATOM     25  C   UNL     1      -0.000  -1.005   5.989  0.00  0.00    +0.108 C 
BRANCH  25  26
ATOM     26  C   UNL     1       0.317  -0.164   7.227  0.00  0.00    -0.000 C 
ATOM     27  C   UNL     1      -0.177  -0.893   8.479  0.00  0.00    +0.009 C 
ATOM     28  C   UNL     1       1.829   0.050   7.325  0.00  0.00    +0.009 C 
ENDBRANCH  25  26
ENDBRANCH  22  25
ENDBRANCH   7  19
TORSDOF 4
