REMARK  Name = ZINC40916891
REMARK  6 active torsions:
REMARK  status: ('A' for Active; 'I' for Inactive)
REMARK    1  A    between atoms: C_1  and  C_2
REMARK    2  A    between atoms: C_3  and  C_29
REMARK    3  A    between atoms: C_4  and  C_12
REMARK    4  A    between atoms: C_17  and  O_18
REMARK    5  A    between atoms: O_18  and  C_19
REMARK    6  A    between atoms: C_19  and  C_20
REMARK                            x       y       z     vdW  Elec       q    Type
REMARK                         _______ _______ _______ _____ _____    ______ ____
ROOT
ATOM      1  C   UNL     1      -1.716  -2.642   1.363  0.00  0.00    +0.024 A 
ATOM      2  C   UNL     1      -0.973  -2.345   2.489  0.00  0.00    +0.025 A 
ATOM      3  C   UNL     1      -1.398  -2.777   3.733  0.00  0.00    +0.018 A 
ATOM      4  C   UNL     1      -2.566  -3.509   3.851  0.00  0.00    +0.019 A 
ATOM      5  C   UNL     1      -3.312  -3.808   2.727  0.00  0.00    +0.047 A 
ATOM      6  C   UNL     1      -2.890  -3.371   1.480  0.00  0.00    +0.127 A 
ATOM      7 BR   UNL     1      -0.380  -2.369   5.273  0.00  0.00    -0.050 Br
ENDROOT
BRANCH   1  11
ATOM      8  C   UNL     1      -0.018   1.503   0.010  0.00  0.00    +0.061 C 
ATOM      9  C   UNL     1       0.002  -0.004   0.002  0.00  0.00    +0.018 C 
ATOM     10  C   UNL     1      -1.163  -0.668   0.004  0.00  0.00    +0.060 C 
ATOM     11  C   UNL     1      -1.253  -2.171   0.008  0.00  0.00    +0.181 C 
ATOM     12  N   UNL     1       0.061  -2.737  -0.281  0.00  0.00    -0.221 N 
ATOM     13  C   UNL     1       1.208  -2.013  -0.279  0.00  0.00    +0.218 A 
ATOM     14  N   UNL     1       2.193  -2.818  -0.568  0.00  0.00    -0.201 NA
ATOM     15  C   UNL     1       1.720  -4.052  -0.765  0.00  0.00    +0.247 A 
ATOM     16  N   UNL     1       0.420  -4.046  -0.600  0.00  0.00    -0.156 NA
ATOM     17  N   UNL     1       1.213  -0.651  -0.013  0.00  0.00    -0.287 N 
ATOM     18  H   UNL     1       2.041  -0.176   0.159  0.00  0.00    +0.155 HD
BRANCH  10  19
ATOM     19  C   UNL     1      -2.365   0.080   0.003  0.00  0.00    +0.241 C 
ATOM     20  O   UNL     1      -2.325   1.297  -0.001  0.00  0.00    -0.271 OA
ATOM     21  N   UNL     1      -3.553  -0.556   0.005  0.00  0.00    -0.325 N 
ATOM     22  H   UNL     1      -3.585  -1.525   0.007  0.00  0.00    +0.145 HD
ATOM     23  H   UNL     1      -4.377  -0.044   0.004  0.00  0.00    +0.145 HD
ENDBRANCH  10  19
ENDBRANCH   1  11
BRANCH   6  24
ATOM     24  O   UNL     1      -3.625  -3.660   0.373  0.00  0.00    -0.487 OA
BRANCH  24  25
ATOM     25  C   UNL     1      -4.823  -4.413   0.569  0.00  0.00    +0.266 C 
BRANCH  25  26
ATOM     26  C   UNL     1      -5.499  -4.636  -0.759  0.00  0.00    +0.008 A 
ATOM     27  C   UNL     1      -4.931  -4.136  -1.916  0.00  0.00    +0.010 A 
ATOM     28  C   UNL     1      -5.550  -4.340  -3.135  0.00  0.00    +0.020 A 
ATOM     29  C   UNL     1      -6.739  -5.045  -3.198  0.00  0.00    +0.042 A 
ATOM     30  C   UNL     1      -7.308  -5.546  -2.041  0.00  0.00    +0.040 A 
ATOM     31  C   UNL     1      -6.685  -5.346  -0.822  0.00  0.00    +0.049 A 
ATOM     32 CL   UNL     1      -7.395  -5.980   0.630  0.00  0.00    -0.083 Cl
ATOM     33 CL   UNL     1      -7.517  -5.300  -4.729  0.00  0.00    -0.083 Cl
ENDBRANCH  25  26
ENDBRANCH  24  25
ENDBRANCH   6  24
TORSDOF 5
