REMARK  Name = ZINC35059678
REMARK  3 active torsions:
REMARK  status: ('A' for Active; 'I' for Inactive)
REMARK    1  A    between atoms: C_3  and  O_12
REMARK    2  A    between atoms: C_10  and  N_11
REMARK    3  A    between atoms: O_12  and  C_13
REMARK                            x       y       z     vdW  Elec       q    Type
REMARK                         _______ _______ _______ _____ _____    ______ ____
ROOT
ATOM      1  C   UNL     1      -0.007   1.358  -0.222  0.00  0.00    +0.027 A 
ATOM      2  C   UNL     1       1.177   2.090  -0.221  0.00  0.00    +0.048 A 
ATOM      3  C   UNL     1       2.383   1.479  -0.017  0.00  0.00    +0.129 A 
ATOM      4  C   UNL     1       2.433   0.091   0.197  0.00  0.00    +0.028 A 
ATOM      5  C   UNL     1       3.645  -0.589   0.414  0.00  0.00    +0.032 A 
ATOM      6  C   UNL     1       3.612  -1.936   0.614  0.00  0.00    +0.111 A 
ATOM      7  N   UNL     1       2.473  -2.616   0.609  0.00  0.00    -0.263 NA
ATOM      8  C   UNL     1       1.306  -2.046   0.414  0.00  0.00    +0.121 A 
ATOM      9  C   UNL     1       1.231  -0.663   0.199  0.00  0.00    +0.024 A 
ATOM     10  C   UNL     1       0.003  -0.005  -0.015  0.00  0.00    +0.034 A 
ENDROOT
BRANCH  10  11
ATOM     11  N   UNL     1      -1.191  -0.727  -0.019  0.00  0.00    -0.357 N 
ATOM     12  H   UNL     1      -2.034  -0.270  -0.167  0.00  0.00    +0.142 HD
ATOM     13  H   UNL     1      -1.179  -1.686   0.127  0.00  0.00    +0.142 HD
ENDBRANCH  10  11
BRANCH   3  14
ATOM     14  O   UNL     1       3.528   2.212  -0.020  0.00  0.00    -0.488 OA
BRANCH  14  15
ATOM     15  C   UNL     1       3.391   3.631  -0.123  0.00  0.00    +0.173 C 
ATOM     16  C   UNL     1       3.270   4.026  -1.596  0.00  0.00    +0.044 C 
ATOM     17  C   UNL     1       3.123   5.545  -1.706  0.00  0.00    +0.004 C 
ATOM     18  C   UNL     1       4.352   6.222  -1.095  0.00  0.00    +0.000 C 
ATOM     19  C   UNL     1       4.472   5.826   0.378  0.00  0.00    +0.004 C 
ATOM     20  C   UNL     1       4.619   4.307   0.488  0.00  0.00    +0.044 C 
ENDBRANCH  14  15
ENDBRANCH   3  14
TORSDOF 3
