REMARK  Name = ZINC40113088
REMARK  9 active torsions:
REMARK  status: ('A' for Active; 'I' for Inactive)
REMARK    1  A    between atoms: C_1  and  C_2
REMARK    2  A    between atoms: C_2  and  C_24
REMARK    3  A    between atoms: C_3  and  C_4
REMARK    4  A    between atoms: C_6  and  C_11
REMARK    5  A    between atoms: C_8  and  C_9
REMARK    6  A    between atoms: C_8  and  C_10
REMARK    7  A    between atoms: C_13  and  C_22
REMARK    8  A    between atoms: C_14  and  N_16
REMARK    9  A    between atoms: N_16  and  C_17
REMARK                            x       y       z     vdW  Elec       q    Type
REMARK                         _______ _______ _______ _____ _____    ______ ____
ROOT
ATOM      1  C   UNL     1       0.236  -2.241   3.584  0.00  0.00    +0.203 A 
ATOM      2  N   UNL     1       0.851  -2.860   2.623  0.00  0.00    -0.200 NA
ATOM      3  C   UNL     1       0.733  -4.203   2.824  0.00  0.00    +0.201 A 
ATOM      4  C   UNL     1      -0.004  -4.370   3.985  0.00  0.00    +0.225 A 
ATOM      5  O   UNL     1      -0.292  -3.135   4.435  0.00  0.00    -0.425 OA
ENDROOT
BRANCH   1   7
ATOM      6  C   UNL     1      -0.039   0.077   2.446  0.00  0.00    +0.031 C 
ATOM      7  C   UNL     1       0.136  -0.744   3.725  0.00  0.00    +0.089 C 
ATOM      8  C   UNL     1      -1.213  -0.092   3.412  0.00  0.00    -0.016 C 
ATOM      9  C   UNL     1      -2.358  -1.010   2.979  0.00  0.00    +0.012 C 
ATOM     10  C   UNL     1      -1.621   1.123   4.247  0.00  0.00    +0.012 C 
BRANCH   6  13
ATOM     11  C   UNL     1       0.237   1.464   0.010  0.00  0.00    +0.038 C 
ATOM     12  C   UNL     1       0.030  -0.029   0.008  0.00  0.00    -0.079 C 
ATOM     13  C   UNL     1      -0.098  -0.674   1.141  0.00  0.00    -0.023 C 
ATOM     14  C   UNL     1      -0.029  -0.779  -1.298  0.00  0.00    +0.038 C 
ENDBRANCH   6  13
ENDBRANCH   1   7
BRANCH   4  15
ATOM     15  N   UNL     1      -0.367  -5.566   4.567  0.00  0.00    -0.310 N 
ATOM     16  H   UNL     1      -0.887  -5.569   5.386  0.00  0.00    +0.149 HD
BRANCH  15  17
ATOM     17  C   UNL     1       0.034  -6.832   3.950  0.00  0.00    +0.073 C 
ATOM     18  C   UNL     1      -1.018  -7.270   2.910  0.00  0.00    +0.022 C 
ATOM     19  C   UNL     1      -1.077  -8.811   3.055  0.00  0.00    +0.002 C 
ATOM     20  C   UNL     1      -0.932  -9.017   4.583  0.00  0.00    +0.002 C 
ATOM     21  C   UNL     1       0.089  -7.943   5.014  0.00  0.00    +0.022 C 
ENDBRANCH  15  17
ENDBRANCH   4  15
BRANCH   3  22
ATOM     22  C   UNL     1       1.266  -5.242   1.995  0.00  0.00    +0.124 C 
ATOM     23  N   UNL     1       1.690  -6.065   1.337  0.00  0.00    -0.189 NA
ENDBRANCH   3  22
TORSDOF 5
