REMARK  Name = ZINC04276921
REMARK  3 active torsions:
REMARK  status: ('A' for Active; 'I' for Inactive)
REMARK    1  A    between atoms: C_4  and  C_7
REMARK    2  A    between atoms: C_11  and  C_13
REMARK    3  A    between atoms: N_14  and  N_15
REMARK                            x       y       z     vdW  Elec       q    Type
REMARK                         _______ _______ _______ _____ _____    ______ ____
ROOT
ATOM      1  C   UNL     1       3.696  -0.685  -0.037  0.00  0.00    +0.139 A 
ATOM      2  N   UNL     1       3.852  -2.041  -0.052  0.00  0.00    -0.344 N 
ATOM      3  H   UNL     1       3.141  -2.702  -0.053  0.00  0.00    +0.167 HD
ATOM      4  C   UNL     1       5.194  -2.296  -0.065  0.00  0.00    +0.113 A 
ATOM      5  C   UNL     1       5.826  -1.087  -0.059  0.00  0.00    +0.102 A 
ATOM      6  N   UNL     1       4.883  -0.125  -0.047  0.00  0.00    -0.227 NA
ENDROOT
BRANCH   1  10
ATOM      7  C   UNL     1      -0.017   1.379   0.010  0.00  0.00    +0.000 A 
ATOM      8  C   UNL     1       1.168   2.093   0.002  0.00  0.00    +0.001 A 
ATOM      9  C   UNL     1       2.377   1.429  -0.013  0.00  0.00    +0.011 A 
ATOM     10  C   UNL     1       2.403   0.034  -0.021  0.00  0.00    +0.017 A 
ATOM     11  C   UNL     1       1.204  -0.680  -0.013  0.00  0.00    +0.011 A 
ATOM     12  C   UNL     1       0.002  -0.004   0.002  0.00  0.00    +0.001 A 
ENDBRANCH   1  10
BRANCH   5  13
ATOM     13  C   UNL     1       7.285  -0.871  -0.069  0.00  0.00    +0.159 C 
ATOM     14  N   UNL     1       7.763   0.336  -0.061  0.00  0.00    -0.187 NA
BRANCH  14  15
ATOM     15  N   UNL     1       9.149   0.541  -0.070  0.00  0.00    -0.219 N 
ATOM     16  C   UNL     1       9.660   1.833  -0.062  0.00  0.00    +0.161 A 
ATOM     17  C   UNL     1      11.040   2.041  -0.077  0.00  0.00    +0.050 A 
ATOM     18  C   UNL     1      11.499   3.348  -0.068  0.00  0.00    +0.045 A 
ATOM     19  C   UNL     1      10.558   4.370  -0.044  0.00  0.00    +0.152 A 
ATOM     20  N   UNL     1       9.271   4.082  -0.031  0.00  0.00    -0.136 NA
ATOM     21  N   UNL     1       8.839   2.874  -0.045  0.00  0.00    -0.131 NA
ATOM     22 CL   UNL     1      11.077   6.027  -0.031  0.00  0.00    -0.060 Cl
ATOM     23  H   UNL     1       9.751  -0.219  -0.083  0.00  0.00    +0.176 HD
ENDBRANCH  14  15
ENDBRANCH   5  13
TORSDOF 3
