REMARK  Name = ZINC43193648
REMARK  20 active torsions:
REMARK  status: ('A' for Active; 'I' for Inactive)
REMARK    1  A    between atoms: C_4  and  C_7
REMARK    2  A    between atoms: C_7  and  C_8
REMARK    3  A    between atoms: C_8  and  C_9
REMARK    4  A    between atoms: C_9  and  C_10
REMARK    5  A    between atoms: C_10  and  C_11
REMARK    6  A    between atoms: C_11  and  C_12
REMARK    7  A    between atoms: C_12  and  C_13
REMARK    8  A    between atoms: C_13  and  O_14
REMARK    9  A    between atoms: O_14  and  C_15
REMARK   10  A    between atoms: C_17  and  O_46
REMARK   11  A    between atoms: C_19  and  O_45
REMARK   12  A    between atoms: C_21  and  O_28
REMARK   13  A    between atoms: C_23  and  C_26
REMARK   14  A    between atoms: C_26  and  O_27
REMARK   15  A    between atoms: O_28  and  C_29
REMARK   16  A    between atoms: C_31  and  O_44
REMARK   17  A    between atoms: C_33  and  O_43
REMARK   18  A    between atoms: C_35  and  O_42
REMARK   19  A    between atoms: C_37  and  C_40
REMARK   20  A    between atoms: C_40  and  O_41
REMARK                            x       y       z     vdW  Elec       q    Type
REMARK                         _______ _______ _______ _____ _____    ______ ____
ROOT
ATOM      1  C   UNL     1       6.192  -8.501  -7.234  0.00  0.00    +0.282 C 
ATOM      2  C   UNL     1       6.377 -10.005  -7.019  0.00  0.00    +0.201 C 
ATOM      3  C   UNL     1       5.002 -10.669  -6.901  0.00  0.00    +0.179 C 
ATOM      4  C   UNL     1       4.187 -10.358  -8.160  0.00  0.00    +0.183 C 
ATOM      5  C   UNL     1       4.086  -8.840  -8.330  0.00  0.00    +0.178 C 
ATOM      6  O   UNL     1       5.400  -8.281  -8.403  0.00  0.00    -0.341 OA
ENDROOT
BRANCH   2   7
ATOM      7  O   UNL     1       7.122 -10.228  -5.820  0.00  0.00    -0.384 OA
ATOM      8  H   UNL     1       8.003  -9.831  -5.825  0.00  0.00    +0.210 HD
ENDBRANCH   2   7
BRANCH   3   9
ATOM      9  O   UNL     1       5.164 -12.083  -6.772  0.00  0.00    -0.386 OA
ATOM     10  H   UNL     1       5.677 -12.351  -5.997  0.00  0.00    +0.210 HD
ENDBRANCH   3   9
BRANCH   5  11
ATOM     11  C   UNL     1       3.324  -8.520  -9.618  0.00  0.00    +0.190 C 
BRANCH  11  12
ATOM     12  O   UNL     1       3.128  -7.108  -9.718  0.00  0.00    -0.392 OA
ATOM     13  H   UNL     1       2.650  -6.833 -10.512  0.00  0.00    +0.210 HD
ENDBRANCH  11  12
ENDBRANCH   5  11
BRANCH   4  14
ATOM     14  O   UNL     1       4.833 -10.926  -9.300  0.00  0.00    -0.340 OA
BRANCH  14  15
ATOM     15  C   UNL     1       4.419 -12.260  -9.599  0.00  0.00    +0.282 C 
ATOM     16  C   UNL     1       5.340 -12.854 -10.668  0.00  0.00    +0.201 C 
ATOM     17  C   UNL     1       4.853 -14.262 -11.026  0.00  0.00    +0.179 C 
ATOM     18  C   UNL     1       3.396 -14.183 -11.492  0.00  0.00    +0.177 C 
ATOM     19  C   UNL     1       2.550 -13.538 -10.390  0.00  0.00    +0.178 C 
ATOM     20  O   UNL     1       3.075 -12.245 -10.084  0.00  0.00    -0.341 OA
BRANCH  16  21
ATOM     21  O   UNL     1       5.313 -12.027 -11.834  0.00  0.00    -0.384 OA
ATOM     22  H   UNL     1       5.605 -11.119 -11.678  0.00  0.00    +0.210 HD
ENDBRANCH  16  21
BRANCH  17  23
ATOM     23  O   UNL     1       5.664 -14.796 -12.074  0.00  0.00    -0.386 OA
ATOM     24  H   UNL     1       6.602 -14.867 -11.848  0.00  0.00    +0.210 HD
ENDBRANCH  17  23
BRANCH  18  25
ATOM     25  O   UNL     1       3.317 -13.394 -12.680  0.00  0.00    -0.386 OA
ATOM     26  H   UNL     1       3.834 -13.743 -13.419  0.00  0.00    +0.210 HD
ENDBRANCH  18  25
BRANCH  19  27
ATOM     27  C   UNL     1       1.104 -13.402 -10.872  0.00  0.00    +0.190 C 
BRANCH  27  28
ATOM     28  O   UNL     1       0.292 -12.908  -9.805  0.00  0.00    -0.392 OA
ATOM     29  H   UNL     1      -0.640 -12.797 -10.039  0.00  0.00    +0.210 HD
ENDBRANCH  27  28
ENDBRANCH  19  27
ENDBRANCH  14  15
ENDBRANCH   4  14
BRANCH   1  30
ATOM     30  O   UNL     1       5.534  -7.935  -6.099  0.00  0.00    -0.349 OA
BRANCH  30  31
ATOM     31  C   UNL     1       5.411  -6.512  -6.147  0.00  0.00    +0.163 C 
BRANCH  31  32
ATOM     32  C   UNL     1       4.695  -6.019  -4.888  0.00  0.00    +0.028 C 
BRANCH  32  33
ATOM     33  C   UNL     1       4.564  -4.495  -4.940  0.00  0.00    +0.002 C 
BRANCH  33  34
ATOM     34  C   UNL     1       3.848  -4.002  -3.682  0.00  0.00    +0.000 C 
BRANCH  34  35
ATOM     35  C   UNL     1       3.717  -2.478  -3.733  0.00  0.00    +0.000 C 
BRANCH  35  36
ATOM     36  C   UNL     1       3.001  -1.985  -2.475  0.00  0.00    +0.000 C 
BRANCH  36  37
ATOM     37  C   UNL     1       2.870  -0.461  -2.526  0.00  0.00    +0.003 C 
BRANCH  37  41
ATOM     38  C   UNL     1      -0.019   1.526   0.010  0.00  0.00    +0.000 C 
ATOM     39  C   UNL     1       1.417   2.055  -0.000  0.00  0.00    +0.000 C 
ATOM     40  C   UNL     1       2.133   1.562  -1.259  0.00  0.00    +0.003 C 
ATOM     41  C   UNL     1       2.154   0.032  -1.268  0.00  0.00    -0.011 C 
ATOM     42  C   UNL     1       0.718  -0.497  -1.257  0.00  0.00    +0.003 C 
ATOM     43  C   UNL     1       0.002  -0.004   0.002  0.00  0.00    +0.000 C 
ENDBRANCH  37  41
ENDBRANCH  36  37
ENDBRANCH  35  36
ENDBRANCH  34  35
ENDBRANCH  33  34
ENDBRANCH  32  33
ENDBRANCH  31  32
ENDBRANCH  30  31
ENDBRANCH   1  30
TORSDOF 20
