REMARK  Name = ZINC48908833
REMARK  3 active torsions:
REMARK  status: ('A' for Active; 'I' for Inactive)
REMARK    1  A    between atoms: C_1  and  C_2
REMARK    2  A    between atoms: C_2  and  C_3
REMARK    3  A    between atoms: C_16  and  C_18
REMARK                            x       y       z     vdW  Elec       q    Type
REMARK                         _______ _______ _______ _____ _____    ______ ____
ROOT
ATOM      1  C   UNL     1       0.670  -2.769   3.686  0.00  0.00    -0.008 C 
ATOM      2  C   UNL     1      -0.460  -2.007   4.382  0.00  0.00    +0.022 C 
ATOM      3  C   UNL     1      -1.625  -1.824   3.404  0.00  0.00    +0.109 C 
ATOM      4  N   UNL     1      -2.016  -3.141   2.882  0.00  0.00    -0.285 N 
ATOM      5  C   UNL     1      -0.986  -3.994   2.273  0.00  0.00    +0.109 C 
ATOM      6  C   UNL     1       0.172  -4.153   3.264  0.00  0.00    +0.022 C 
ATOM      7  C   UNL     1      -3.295  -3.558   2.960  0.00  0.00    +0.305 C 
ATOM      8  O   UNL     1      -4.061  -3.025   3.739  0.00  0.00    -0.252 OA
ATOM      9  N   UNL     1      -3.724  -4.567   2.176  0.00  0.00    -0.272 N 
ATOM     10  C   UNL     1      -2.881  -5.078   1.086  0.00  0.00    +0.110 C 
ATOM     11  C   UNL     1      -3.687  -5.048  -0.216  0.00  0.00    +0.019 C 
ATOM     12  C   UNL     1      -4.995  -5.817  -0.020  0.00  0.00    +0.004 C 
ATOM     13  C   UNL     1      -5.825  -5.145   1.077  0.00  0.00    +0.034 C 
ATOM     14  C   UNL     1      -5.040  -5.180   2.398  0.00  0.00    +0.190 C 
ENDROOT
BRANCH  14  15
ATOM     15  C   UNL     1      -5.788  -4.404   3.452  0.00  0.00    +0.376 C 
ATOM     16  O   UNL     1      -6.229  -3.297   3.196  0.00  0.00    -0.244 OA
ATOM     17  O   UNL     1      -5.950  -4.884   4.561  0.00  0.00    -0.244 OA
ENDBRANCH  14  15
BRANCH   1  19
ATOM     18  C   UNL     1       2.427  -1.545   4.974  0.00  0.00    +0.004 C 
ATOM     19  C   UNL     1       1.849  -2.924   4.649  0.00  0.00    +0.000 C 
ENDBRANCH   1  19
TORSDOF 2
