REMARK  Name = ZINC63351230
REMARK  12 active torsions:
REMARK  status: ('A' for Active; 'I' for Inactive)
REMARK    1  A    between atoms: C_1  and  O_2
REMARK    2  A    between atoms: O_2  and  C_3
REMARK    3  A    between atoms: C_8  and  O_9
REMARK    4  A    between atoms: O_9  and  C_10
REMARK    5  A    between atoms: C_14  and  N_16
REMARK    6  A    between atoms: C_17  and  C_23
REMARK    7  A    between atoms: N_25  and  C_26
REMARK    8  A    between atoms: C_26  and  C_28
REMARK    9  A    between atoms: C_26  and  C_38
REMARK   10  A    between atoms: C_28  and  C_29
REMARK   11  A    between atoms: C_38  and  O_40
REMARK   12  A    between atoms: O_40  and  C_41
REMARK                            x       y       z     vdW  Elec       q    Type
REMARK                         _______ _______ _______ _____ _____    ______ ____
ROOT
ATOM      1  N   UNL     1       1.881  -2.642   5.478  0.00  0.00    -0.251 N 
ATOM      2  C   UNL     1       1.154  -3.697   6.196  0.00  0.00    +0.166 C 
ATOM      3  C   UNL     1       1.067  -3.213   7.661  0.00  0.00    +0.041 C 
ATOM      4  C   UNL     1       1.167  -1.679   7.493  0.00  0.00    +0.098 C 
ATOM      5  C   UNL     1       1.903  -1.498   6.184  0.00  0.00    +0.219 C 
ATOM      6  O   UNL     1       2.435  -0.470   5.822  0.00  0.00    -0.275 OA
ENDROOT
BRANCH   1  16
ATOM      7  C   UNL     1       0.626  -0.619   1.042  0.00  0.00    +0.162 A 
ATOM      8  C   UNL     1       1.201   0.139   2.049  0.00  0.00    +0.050 A 
ATOM      9  C   UNL     1       1.839  -0.480   3.113  0.00  0.00    +0.013 A 
ATOM     10  C   UNL     1       1.905  -1.850   3.176  0.00  0.00    +0.029 A 
ATOM     11  C   UNL     1       1.330  -2.633   2.167  0.00  0.00    +0.112 A 
ATOM     12  C   UNL     1       0.681  -2.009   1.096  0.00  0.00    +0.176 A 
ATOM     13  C   UNL     1       1.562  -4.044   2.512  0.00  0.00    +0.345 C 
ATOM     14  O   UNL     1       1.193  -4.993   1.848  0.00  0.00    -0.245 OA
ATOM     15  O   UNL     1       2.241  -4.131   3.667  0.00  0.00    -0.435 OA
ATOM     16  C   UNL     1       2.505  -2.816   4.165  0.00  0.00    +0.302 C 
BRANCH   7  18
ATOM     17  C   UNL     1      -0.017   1.425   0.010  0.00  0.00    +0.277 C 
ATOM     18  O   UNL     1       0.002  -0.004   0.002  0.00  0.00    -0.491 OA
ENDBRANCH   7  18
BRANCH  12  19
ATOM     19  O   UNL     1       0.114  -2.753   0.113  0.00  0.00    -0.491 OA
ATOM     20  C   UNL     1       0.939  -3.091  -1.004  0.00  0.00    +0.277 C 
ENDBRANCH  12  19
ENDBRANCH   1  16
BRANCH   2  21
ATOM     21  C   UNL     1      -0.227  -3.865   5.617  0.00  0.00    +0.234 C 
ATOM     22  O   UNL     1      -0.584  -3.172   4.688  0.00  0.00    -0.274 OA
ATOM     23  N   UNL     1      -1.065  -4.786   6.132  0.00  0.00    -0.301 N 
ATOM     24  H   UNL     1      -0.780  -5.340   6.875  0.00  0.00    +0.150 HD
BRANCH  23  25
ATOM     25  C   UNL     1      -2.408  -4.950   5.570  0.00  0.00    +0.186 C 
BRANCH  25  26
ATOM     26  C   UNL     1      -2.346  -5.880   4.385  0.00  0.00    +0.328 C 
ATOM     27  O   UNL     1      -1.289  -6.356   4.046  0.00  0.00    -0.249 OA
BRANCH  26  28
ATOM     28  O   UNL     1      -3.465  -6.178   3.707  0.00  0.00    -0.467 OA
ATOM     29  C   UNL     1      -3.333  -7.066   2.595  0.00  0.00    +0.280 C 
ENDBRANCH  26  28
ENDBRANCH  25  26
BRANCH  25  30
ATOM     30  C   UNL     1      -3.338  -5.540   6.632  0.00  0.00    +0.067 C 
BRANCH  30  31
ATOM     31  C   UNL     1      -3.497  -4.556   7.762  0.00  0.00    -0.039 C 
ATOM     32  C   UNL     1      -4.490  -3.652   7.920  0.00  0.00    -0.001 A 
ATOM     33  C   UNL     1      -5.675  -3.326   7.116  0.00  0.00    +0.010 A 
ATOM     34  C   UNL     1      -6.506  -2.347   7.540  0.00  0.00    +0.001 A 
ATOM     35  C   UNL     1      -6.265  -1.637   8.725  0.00  0.00    +0.002 A 
ATOM     36  C   UNL     1      -5.199  -1.879   9.516  0.00  0.00    +0.026 A 
ATOM     37  C   UNL     1      -4.259  -2.888   9.167  0.00  0.00    +0.043 A 
ATOM     38  N   UNL     1      -3.164  -3.303   9.757  0.00  0.00    -0.380 N 
ATOM     39  C   UNL     1      -2.581  -4.383   8.954  0.00  0.00    +0.144 C 
ATOM     40  H   UNL     1      -2.803  -2.958  10.588  0.00  0.00    +0.160 HD
ENDBRANCH  30  31
ENDBRANCH  25  30
ENDBRANCH  23  25
ENDBRANCH   2  21
TORSDOF 9
