REMARK  Name = ZINC40983502
REMARK  13 active torsions:
REMARK  status: ('A' for Active; 'I' for Inactive)
REMARK    1  A    between atoms: C_1  and  C_2
REMARK    2  A    between atoms: C_2  and  C_3
REMARK    3  A    between atoms: C_3  and  C_4
REMARK    4  A    between atoms: C_4  and  S_5
REMARK    5  A    between atoms: S_5  and  C_6
REMARK    6  A    between atoms: C_11  and  C_27
REMARK    7  A    between atoms: C_13  and  C_17
REMARK    8  A    between atoms: C_14  and  C_16
REMARK    9  A    between atoms: N_19  and  C_20
REMARK   10  A    between atoms: C_23  and  C_26
REMARK   11  A    between atoms: C_30  and  N_33
REMARK   12  A    between atoms: N_33  and  C_34
REMARK   13  A    between atoms: N_33  and  C_35
REMARK                            x       y       z     vdW  Elec       q    Type
REMARK                         _______ _______ _______ _____ _____    ______ ____
ROOT
ATOM      1  C   UNL     1      -2.701  -4.437   0.153  0.00  0.00    +0.210 A 
ATOM      2  N   UNL     1      -1.557  -5.133   0.072  0.00  0.00    -0.187 NA
ATOM      3  C   UNL     1      -1.827  -6.407  -0.012  0.00  0.00    +0.219 A 
ATOM      4  N   UNL     1      -3.174  -6.555   0.009  0.00  0.00    -0.220 N 
ATOM      5  N   UNL     1      -3.715  -5.276   0.124  0.00  0.00    -0.141 NA
ATOM      6  C   UNL     1      -3.846  -7.849  -0.076  0.00  0.00    +0.177 C 
ATOM      7  C   UNL     1      -2.838  -8.951   0.112  0.00  0.00    +0.060 C 
ATOM      8  C   UNL     1      -1.513  -8.744   0.085  0.00  0.00    +0.018 C 
ATOM      9  N   UNL     1      -0.972  -7.497  -0.107  0.00  0.00    -0.287 N 
ATOM     10  C   UNL     1      -0.588  -9.919   0.272  0.00  0.00    +0.061 C 
ATOM     11  H   UNL     1      -0.028  -7.381  -0.302  0.00  0.00    +0.155 HD
ENDROOT
BRANCH   6  12
ATOM     12  C   UNL     1      -4.497  -7.989  -1.428  0.00  0.00    -0.018 A 
ATOM     13  C   UNL     1      -3.724  -7.942  -2.574  0.00  0.00    +0.008 A 
ATOM     14  C   UNL     1      -4.317  -8.069  -3.815  0.00  0.00    +0.023 A 
ATOM     15  C   UNL     1      -5.691  -8.245  -3.911  0.00  0.00    +0.029 A 
ATOM     16  C   UNL     1      -6.465  -8.292  -2.758  0.00  0.00    +0.023 A 
ATOM     17  C   UNL     1      -5.865  -8.170  -1.520  0.00  0.00    +0.008 A 
BRANCH  15  18
ATOM     18  N   UNL     1      -6.295  -8.374  -5.164  0.00  0.00    -0.336 N 
ATOM     19  C   UNL     1      -5.468  -8.439  -6.372  0.00  0.00    +0.129 C 
ATOM     20  C   UNL     1      -7.754  -8.445  -5.271  0.00  0.00    +0.129 C 
ENDBRANCH  15  18
ENDBRANCH   6  12
BRANCH   7  21
ATOM     21  C   UNL     1      -3.310 -10.267   0.328  0.00  0.00    +0.248 C 
ATOM     22  O   UNL     1      -3.693 -10.603   1.434  0.00  0.00    -0.270 OA
ATOM     23  N   UNL     1      -3.336 -11.149  -0.691  0.00  0.00    -0.282 N 
ATOM     24  H   UNL     1      -2.954 -10.910  -1.550  0.00  0.00    +0.155 HD
BRANCH  23  25
ATOM     25  C   UNL     1      -3.915 -12.409  -0.510  0.00  0.00    +0.034 A 
ATOM     26  C   UNL     1      -4.906 -12.589   0.446  0.00  0.00    +0.023 A 
ATOM     27  C   UNL     1      -5.476 -13.835   0.622  0.00  0.00    +0.005 A 
ATOM     28  C   UNL     1      -5.059 -14.903  -0.152  0.00  0.00    -0.050 A 
ATOM     29  C   UNL     1      -4.072 -14.727  -1.105  0.00  0.00    +0.005 A 
ATOM     30  C   UNL     1      -3.503 -13.483  -1.290  0.00  0.00    +0.023 A 
ATOM     31  C   UNL     1      -5.683 -16.261   0.043  0.00  0.00    +0.044 C 
ENDBRANCH  23  25
ENDBRANCH   7  21
BRANCH   1  32
ATOM     32  S   UNL     1      -2.826  -2.685   0.285  0.00  0.00    -0.084 S 
BRANCH  32  33
ATOM     33  C   UNL     1      -1.103  -2.120   0.271  0.00  0.00    +0.077 C 
BRANCH  33  34
ATOM     34  C   UNL     1      -1.065  -0.594   0.381  0.00  0.00    +0.011 C 
BRANCH  34  36
ATOM     35  C   UNL     1       0.426   1.408   0.479  0.00  0.00    +0.004 C 
ATOM     36  C   UNL     1       0.389  -0.117   0.369  0.00  0.00    -0.003 C 
ENDBRANCH  34  36
ENDBRANCH  33  34
ENDBRANCH  32  33
ENDBRANCH   1  32
TORSDOF 8
