REMARK  Name = ZINC38644334
REMARK  10 active torsions:
REMARK  status: ('A' for Active; 'I' for Inactive)
REMARK    1  A    between atoms: C_1  and  O_2
REMARK    2  A    between atoms: O_2  and  C_3
REMARK    3  A    between atoms: C_3  and  C_5
REMARK    4  A    between atoms: C_5  and  C_7
REMARK    5  A    between atoms: C_5  and  N_14
REMARK    6  A    between atoms: C_7  and  C_8
REMARK    7  A    between atoms: C_15  and  C_17
REMARK    8  A    between atoms: C_20  and  N_23
REMARK    9  A    between atoms: N_23  and  S_24
REMARK   10  A    between atoms: S_24  and  C_27
REMARK                            x       y       z     vdW  Elec       q    Type
REMARK                         _______ _______ _______ _____ _____    ______ ____
ROOT
ATOM      1  C   UNL     1       1.334  -2.930  -4.791  0.00  0.00    +0.037 A 
ATOM      2  C   UNL     1       2.712  -3.164  -4.746  0.00  0.00    +0.015 A 
ATOM      3  C   UNL     1       3.378  -3.564  -5.882  0.00  0.00    +0.025 A 
ATOM      4  C   UNL     1       2.681  -3.734  -7.075  0.00  0.00    +0.048 A 
ATOM      5  C   UNL     1       1.310  -3.500  -7.124  0.00  0.00    +0.025 A 
ATOM      6  C   UNL     1       0.637  -3.107  -5.989  0.00  0.00    +0.015 A 
ENDROOT
BRANCH   1   8
ATOM      7  N   UNL     1       1.291  -2.332  -2.420  0.00  0.00    -0.298 N 
ATOM      8  C   UNL     1       0.617  -2.502  -3.575  0.00  0.00    +0.245 C 
ATOM      9  O   UNL     1      -0.582  -2.303  -3.614  0.00  0.00    -0.270 OA
ATOM     10  H   UNL     1       2.247  -2.491  -2.388  0.00  0.00    +0.150 HD
BRANCH   7  11
ATOM     11  C   UNL     1       0.579  -1.907  -1.212  0.00  0.00    +0.186 C 
BRANCH  11  12
ATOM     12  C   UNL     1       0.464  -0.405  -1.199  0.00  0.00    +0.328 C 
ATOM     13  O   UNL     1       0.929   0.245  -2.105  0.00  0.00    -0.249 OA
BRANCH  12  15
ATOM     14  C   UNL     1      -0.227   1.638  -0.232  0.00  0.00    +0.280 C 
ATOM     15  O   UNL     1      -0.155   0.212  -0.180  0.00  0.00    -0.467 OA
ENDBRANCH  12  15
ENDBRANCH  11  12
BRANCH  11  16
ATOM     16  C   UNL     1       1.351  -2.371   0.025  0.00  0.00    +0.069 C 
BRANCH  16  17
ATOM     17  C   UNL     1       1.360  -3.877   0.076  0.00  0.00    -0.045 A 
ATOM     18  C   UNL     1       0.348  -4.552   0.733  0.00  0.00    +0.004 A 
ATOM     19  C   UNL     1       0.356  -5.934   0.780  0.00  0.00    +0.000 A 
ATOM     20  C   UNL     1       1.376  -6.640   0.170  0.00  0.00    +0.000 A 
ATOM     21  C   UNL     1       2.387  -5.965  -0.488  0.00  0.00    +0.000 A 
ATOM     22  C   UNL     1       2.377  -4.584  -0.538  0.00  0.00    +0.004 A 
ENDBRANCH  16  17
ENDBRANCH  11  16
ENDBRANCH   7  11
ENDBRANCH   1   8
BRANCH   4  23
ATOM     23  N   UNL     1       3.357  -4.137  -8.222  0.00  0.00    -0.216 N 
ATOM     24  H   UNL     1       4.195  -3.712  -8.466  0.00  0.00    +0.174 HD
BRANCH  23  25
ATOM     25  S   UNL     1       2.733  -5.342  -9.171  0.00  0.00    +0.072 S 
ATOM     26  O   UNL     1       1.391  -4.976  -9.460  0.00  0.00    -0.150 OA
ATOM     27  O   UNL     1       3.691  -5.594 -10.189  0.00  0.00    -0.150 OA
BRANCH  25  28
ATOM     28  C   UNL     1       2.655  -6.797  -8.180  0.00  0.00    +0.110 A 
ATOM     29  C   UNL     1       3.842  -7.635  -8.062  0.00  0.00    +0.031 A 
ATOM     30  C   UNL     1       3.851  -8.763  -7.319  0.00  0.00    +0.027 A 
ATOM     31  C   UNL     1       2.640  -9.167  -6.607  0.00  0.00    +0.056 A 
ATOM     32  N   UNL     1       2.317 -10.168  -5.828  0.00  0.00    -0.268 N 
ATOM     33  C   UNL     1       1.005 -10.016  -5.447  0.00  0.00    +0.308 C 
ATOM     34  O   UNL     1       0.397 -10.775  -4.722  0.00  0.00    -0.252 OA
ATOM     35  N   UNL     1       0.485  -8.875  -6.011  0.00  0.00    -0.267 N 
ATOM     36  C   UNL     1       1.420  -8.306  -6.729  0.00  0.00    +0.058 A 
ATOM     37  C   UNL     1       1.500  -7.099  -7.550  0.00  0.00    +0.054 A 
ATOM     38  H   UNL     1      -0.420  -8.546  -5.896  0.00  0.00    +0.156 HD
ATOM     39  H   UNL     1       2.904 -10.894  -5.564  0.00  0.00    +0.156 HD
ENDBRANCH  25  28
ENDBRANCH  23  25
ENDBRANCH   4  23
TORSDOF 9
