REMARK  Name = ZINC20833710
REMARK  6 active torsions:
REMARK  status: ('A' for Active; 'I' for Inactive)
REMARK    1  A    between atoms: C_6  and  C_7
REMARK    2  A    between atoms: N_8  and  N_9
REMARK    3  A    between atoms: C_12  and  S_15
REMARK    4  A    between atoms: S_15  and  C_16
REMARK    5  A    between atoms: C_16  and  C_17
REMARK    6  A    between atoms: N_19  and  C_20
REMARK                            x       y       z     vdW  Elec       q    Type
REMARK                         _______ _______ _______ _____ _____    ______ ____
ROOT
ATOM      1  N   UNL     1       9.892   1.321   2.147  0.00  0.00    -0.205 N 
ATOM      2  C   UNL     1       8.567   1.451   1.757  0.00  0.00    +0.232 A 
ATOM      3  N   UNL     1       7.548   0.597   2.075  0.00  0.00    -0.186 NA
ATOM      4  C   UNL     1       6.403   1.074   1.501  0.00  0.00    +0.211 A 
ATOM      5  N   UNL     1       6.703   2.173   0.851  0.00  0.00    -0.144 NA
ATOM      6  N   UNL     1       8.073   2.414   1.018  0.00  0.00    -0.245 N 
ATOM      7  H   UNL     1      10.200   0.468   2.771  0.00  0.00    +0.177 HD
ATOM      8  H   UNL     1       8.729   3.219   0.652  0.00  0.00    +0.192 HD
ENDROOT
BRANCH   1  10
ATOM      9  C   UNL     1      12.077   2.152   2.114  0.00  0.00    +0.138 C 
ATOM     10  N   UNL     1      10.837   2.274   1.748  0.00  0.00    -0.188 NA
BRANCH   9  16
ATOM     11  C   UNL     1      12.685   4.236   0.896  0.00  0.00    +0.010 A 
ATOM     12  C   UNL     1      13.620   5.174   0.511  0.00  0.00    +0.016 A 
ATOM     13  C   UNL     1      14.941   5.041   0.903  0.00  0.00    +0.018 A 
ATOM     14  C   UNL     1      15.333   3.970   1.688  0.00  0.00    +0.016 A 
ATOM     15  C   UNL     1      14.407   3.027   2.085  0.00  0.00    +0.010 A 
ATOM     16  C   UNL     1      13.072   3.156   1.693  0.00  0.00    -0.005 A 
ATOM     17 BR   UNL     1      16.218   6.328   0.363  0.00  0.00    -0.050 Br
ENDBRANCH   9  16
ENDBRANCH   1  10
BRANCH   4  18
ATOM     18  S   UNL     1       4.806   0.337   1.609  0.00  0.00    -0.075 S 
BRANCH  18  19
ATOM     19  C   UNL     1       3.745   1.447   0.644  0.00  0.00    +0.173 C 
BRANCH  19  20
ATOM     20  C   UNL     1       2.331   0.926   0.654  0.00  0.00    +0.224 C 
ATOM     21  O   UNL     1       2.066  -0.095   1.254  0.00  0.00    -0.275 OA
ATOM     22  N   UNL     1       1.362   1.593  -0.002  0.00  0.00    -0.312 N 
ATOM     23  H   UNL     1       1.602   2.518  -0.546  0.00  0.00    +0.149 HD
BRANCH  22  24
ATOM     24  C   UNL     1      -0.013   1.086   0.008  0.00  0.00    +0.073 C 
ATOM     25  C   UNL     1      -0.729   1.579   1.267  0.00  0.00    +0.022 C 
ATOM     26  C   UNL     1      -2.164   1.050   1.278  0.00  0.00    +0.002 C 
ATOM     27  C   UNL     1      -2.904   1.556   0.038  0.00  0.00    +0.000 C 
ATOM     28  C   UNL     1      -2.188   1.063  -1.221  0.00  0.00    +0.002 C 
ATOM     29  C   UNL     1      -0.753   1.593  -1.232  0.00  0.00    +0.022 C 
ENDBRANCH  22  24
ENDBRANCH  19  20
ENDBRANCH  18  19
ENDBRANCH   4  18
TORSDOF 6
