REMARK  Name = ZINC12347623
REMARK  6 active torsions:
REMARK  status: ('A' for Active; 'I' for Inactive)
REMARK    1  A    between atoms: C_1  and  C_2
REMARK    2  A    between atoms: C_2  and  C_32
REMARK    3  A    between atoms: C_6  and  C_16
REMARK    4  A    between atoms: C_13  and  O_14
REMARK    5  A    between atoms: C_20  and  O_22
REMARK    6  A    between atoms: O_22  and  C_23
REMARK                            x       y       z     vdW  Elec       q    Type
REMARK                         _______ _______ _______ _____ _____    ______ ____
ROOT
ATOM      1  C   UNL     1       3.053   3.709   1.547  0.00  0.00    +0.011 C 
ATOM      2  C   UNL     1       3.801   2.874   0.505  0.00  0.00    -0.023 C 
ATOM      3  C   UNL     1       3.180   3.096  -0.875  0.00  0.00    +0.058 C 
ATOM      4  C   UNL     1       1.736   2.651  -0.863  0.00  0.00    +0.017 C 
ATOM      5  C   UNL     1       1.328   1.643  -0.061  0.00  0.00    +0.024 C 
ATOM      6  C   UNL     1      -0.107   1.163  -0.027  0.00  0.00    +0.092 C 
ATOM      7  C   UNL     1      -0.857   1.724  -1.201  0.00  0.00    +0.067 A 
ATOM      8  C   UNL     1      -0.362   2.744  -1.970  0.00  0.00    +0.126 A 
ATOM      9  N   UNL     1      -1.268   3.015  -2.928  0.00  0.00    -0.260 N 
ATOM     10  H   UNL     1      -1.185   3.715  -3.637  0.00  0.00    +0.190 HD
ATOM     11  N   UNL     1      -2.351   2.138  -2.753  0.00  0.00    -0.134 NA
ATOM     12  C   UNL     1      -2.099   1.367  -1.717  0.00  0.00    +0.237 A 
ATOM     13  N   UNL     1       0.877   3.314  -1.703  0.00  0.00    -0.303 N 
ATOM     14  C   UNL     1       2.235   0.988   0.791  0.00  0.00    +0.162 C 
ATOM     15  O   UNL     1       1.838   0.079   1.494  0.00  0.00    -0.292 OA
ATOM     16  C   UNL     1       3.682   1.386   0.853  0.00  0.00    +0.086 C 
ATOM     17  C   UNL     1       5.275   3.282   0.479  0.00  0.00    +0.011 C 
ATOM     18  H   UNL     1       1.129   4.162  -2.102  0.00  0.00    +0.153 HD
ENDROOT
BRANCH   6  19
ATOM     19  C   UNL     1      -0.760   1.625   1.251  0.00  0.00    -0.032 A 
ATOM     20  C   UNL     1      -0.849   2.976   1.532  0.00  0.00    +0.005 A 
ATOM     21  C   UNL     1      -1.452   3.403   2.700  0.00  0.00    +0.004 A 
ATOM     22  C   UNL     1      -1.957   2.480   3.595  0.00  0.00    +0.046 A 
ATOM     23  C   UNL     1      -1.864   1.123   3.318  0.00  0.00    +0.129 A 
ATOM     24  C   UNL     1      -1.263   0.698   2.142  0.00  0.00    +0.050 A 
BRANCH  23  25
ATOM     25  O   UNL     1      -2.361   0.214   4.197  0.00  0.00    -0.456 OA
BRANCH  25  26
ATOM     26  C   UNL     1      -3.708   0.166   4.373  0.00  0.00    +0.128 A 
ATOM     27  C   UNL     1      -4.540   0.944   3.581  0.00  0.00    +0.046 A 
ATOM     28  C   UNL     1      -5.909   0.890   3.758  0.00  0.00    +0.004 A 
ATOM     29  C   UNL     1      -6.449   0.070   4.732  0.00  0.00    +0.000 A 
ATOM     30  C   UNL     1      -5.621  -0.701   5.527  0.00  0.00    +0.004 A 
ATOM     31  C   UNL     1      -4.252  -0.655   5.350  0.00  0.00    +0.046 A 
ENDBRANCH  25  26
ENDBRANCH  23  25
ENDBRANCH   6  19
BRANCH  12  32
ATOM     32  O   UNL     1      -2.913   0.389  -1.235  0.00  0.00    -0.491 OA
ATOM     33  H   UNL     1      -3.743   0.342  -1.790  0.00  0.00    +0.294 HD
ENDBRANCH  12  32
TORSDOF 4
