REMARK  Name = ZINC05595915
REMARK  3 active torsions:
REMARK  status: ('A' for Active; 'I' for Inactive)
REMARK    1  A    between atoms: C_6  and  C_7
REMARK    2  A    between atoms: C_9  and  C_15
REMARK    3  A    between atoms: C_15  and  C_17
REMARK                            x       y       z     vdW  Elec       q    Type
REMARK                         _______ _______ _______ _____ _____    ______ ____
ROOT
ATOM      1  C   UNL     1      -0.029   1.470  -0.032  0.00  0.00    +0.142 C 
ATOM      2  C   UNL     1       1.410   1.928  -0.026  0.00  0.00    +0.076 C 
ATOM      3  C   UNL     1       2.175   0.812   0.029  0.00  0.00    +0.249 C 
ATOM      4  C   UNL     1       1.297  -0.377   0.059  0.00  0.00    +0.285 C 
ATOM      5  O   UNL     1       1.683  -1.527   0.109  0.00  0.00    -0.267 OA
ATOM      6  N   UNL     1       0.007   0.004   0.024  0.00  0.00    -0.298 N 
ATOM      7  O   UNL     1       3.527   0.789   0.052  0.00  0.00    -0.282 OA
ATOM      8  H   UNL     1      -0.931  -0.570   0.030  0.00  0.00    +0.150 HD
ENDROOT
BRANCH   1  14
ATOM      9  C   UNL     1      -0.413   1.313  -2.500  0.00  0.00    +0.007 A 
ATOM     10  C   UNL     1      -1.043   1.725  -3.660  0.00  0.00    +0.015 A 
ATOM     11  C   UNL     1      -1.964   2.756  -3.617  0.00  0.00    +0.018 A 
ATOM     12  C   UNL     1      -2.259   3.371  -2.413  0.00  0.00    +0.015 A 
ATOM     13  C   UNL     1      -1.633   2.954  -1.254  0.00  0.00    +0.007 A 
ATOM     14  C   UNL     1      -0.712   1.924  -1.297  0.00  0.00    -0.023 A 
ATOM     15 BR   UNL     1      -2.820   3.326  -5.204  0.00  0.00    -0.050 Br
ENDBRANCH   1  14
BRANCH   2  16
ATOM     16  C   UNL     1       1.887   3.314  -0.070  0.00  0.00    +0.195 C 
ATOM     17  O   UNL     1       2.508   3.712  -1.038  0.00  0.00    -0.287 OA
BRANCH  16  18
ATOM     18  C   UNL     1       1.614   4.226   1.060  0.00  0.00    +0.022 A 
ATOM     19  C   UNL     1       1.001   3.743   2.219  0.00  0.00    +0.013 A 
ATOM     20  C   UNL     1       0.754   4.598   3.272  0.00  0.00    +0.021 A 
ATOM     21  C   UNL     1       1.102   5.936   3.178  0.00  0.00    +0.041 A 
ATOM     22  C   UNL     1       1.704   6.422   2.029  0.00  0.00    +0.021 A 
ATOM     23  C   UNL     1       1.962   5.576   0.971  0.00  0.00    +0.013 A 
ATOM     24 CL   UNL     1       0.781   7.007   4.506  0.00  0.00    -0.084 Cl
ENDBRANCH  16  18
ENDBRANCH   2  16
TORSDOF 3
