REMARK  Name = ZINC44027060
REMARK  6 active torsions:
REMARK  status: ('A' for Active; 'I' for Inactive)
REMARK    1  A    between atoms: C_1  and  C_2
REMARK    2  A    between atoms: C_5  and  C_11
REMARK    3  A    between atoms: C_7  and  N_8
REMARK    4  A    between atoms: C_12  and  C_13
REMARK    5  A    between atoms: C_12  and  C_15
REMARK    6  A    between atoms: C_15  and  C_17
REMARK                            x       y       z     vdW  Elec       q    Type
REMARK                         _______ _______ _______ _____ _____    ______ ____
ROOT
ATOM      1  C   UNL     1       0.210  -3.431   0.837  0.00  0.00    +0.030 C 
ATOM      2  C   UNL     1      -0.079  -4.567   0.116  0.00  0.00    +0.100 C 
ENDROOT
BRANCH   1   7
ATOM      3  C   UNL     1       1.074   1.555  -1.883  0.00  0.00    +0.046 C 
ATOM      4  C   UNL     1       0.847   0.247  -1.169  0.00  0.00    -0.020 A 
ATOM      5  C   UNL     1       1.224  -0.941  -1.774  0.00  0.00    +0.006 A 
ATOM      6  C   UNL     1       1.020  -2.142  -1.128  0.00  0.00    +0.008 A 
ATOM      7  C   UNL     1       0.431  -2.158   0.142  0.00  0.00    -0.022 A 
ATOM      8  C   UNL     1       0.053  -0.952   0.746  0.00  0.00    +0.041 A 
ATOM      9  C   UNL     1       0.269   0.240   0.088  0.00  0.00    +0.130 A 
BRANCH   9  10
ATOM     10  N   UNL     1      -0.125   1.517   0.726  0.00  0.00    +0.057 N 
ATOM     11  O   UNL     1       0.535   2.513   0.541  0.00  0.00    -0.126 OA
ATOM     12  O   UNL     1      -1.105   1.563   1.432  0.00  0.00    -0.126 OA
ENDBRANCH   9  10
ENDBRANCH   1   7
BRANCH   2  13
ATOM     13  C   UNL     1      -0.180  -5.831   0.781  0.00  0.00    +0.103 C 
ATOM     14  N   UNL     1      -0.261  -6.834   1.309  0.00  0.00    -0.191 NA
ENDBRANCH   2  13
BRANCH   2  15
ATOM     15  C   UNL     1      -0.283  -4.483  -1.340  0.00  0.00    +0.205 C 
ATOM     16  O   UNL     1      -1.200  -3.820  -1.789  0.00  0.00    -0.286 OA
BRANCH  15  17
ATOM     17  C   UNL     1       0.620  -5.199  -2.251  0.00  0.00    +0.048 A 
ATOM     18  C   UNL     1       1.635  -6.041  -1.901  0.00  0.00    +0.095 A 
ATOM     19  N   UNL     1       2.245  -6.512  -3.015  0.00  0.00    -0.360 N 
ATOM     20  H   UNL     1       2.994  -7.128  -3.018  0.00  0.00    +0.165 HD
ATOM     21  C   UNL     1       1.648  -5.994  -4.146  0.00  0.00    +0.050 A 
ATOM     22  C   UNL     1       0.604  -5.155  -3.725  0.00  0.00    +0.011 A 
ATOM     23  C   UNL     1      -0.183  -4.493  -4.664  0.00  0.00    +0.013 A 
ATOM     24  C   UNL     1       0.066  -4.667  -6.008  0.00  0.00    +0.039 A 
ATOM     25  C   UNL     1       1.096  -5.499  -6.427  0.00  0.00    +0.125 A 
ATOM     26  C   UNL     1       1.888  -6.155  -5.507  0.00  0.00    +0.064 A 
ATOM     27  F   UNL     1       1.330  -5.662  -7.748  0.00  0.00    -0.205 F 
ENDBRANCH  15  17
ENDBRANCH   2  15
TORSDOF 5
