REMARK  Name = ZINC17181051
REMARK  10 active torsions:
REMARK  status: ('A' for Active; 'I' for Inactive)
REMARK    1  A    between atoms: C_1  and  C_2
REMARK    2  A    between atoms: C_2  and  C_3
REMARK    3  A    between atoms: C_2  and  C_4
REMARK    4  A    between atoms: C_7  and  N_10
REMARK    5  A    between atoms: C_14  and  C_15
REMARK    6  A    between atoms: C_16  and  C_25
REMARK    7  A    between atoms: C_25  and  C_26
REMARK    8  A    between atoms: C_26  and  N_27
REMARK    9  A    between atoms: C_28  and  C_30
REMARK   10  A    between atoms: C_31  and  O_35
REMARK                            x       y       z     vdW  Elec       q    Type
REMARK                         _______ _______ _______ _____ _____    ______ ____
ROOT
ATOM      1  N   UNL     1       0.009  -0.022   0.545  0.00  0.00    -0.188 N 
ATOM      2  C   UNL     1      -1.155  -0.706   0.517  0.00  0.00    +0.263 C 
ATOM      3  O   UNL     1      -2.219  -0.144   0.695  0.00  0.00    -0.269 OA
ATOM      4  C   UNL     1      -1.093  -2.157   0.259  0.00  0.00    +0.098 C 
ATOM      5  C   UNL     1      -2.245  -2.935   0.208  0.00  0.00    +0.044 C 
ATOM      6  C   UNL     1       0.240  -2.744   0.063  0.00  0.00    +0.218 C 
ATOM      7  N   UNL     1       1.294  -1.948   0.123  0.00  0.00    -0.127 NA
ATOM      8  C   UNL     1       1.182  -0.643   0.355  0.00  0.00    +0.340 C 
ATOM      9  O   UNL     1       2.200   0.025   0.396  0.00  0.00    -0.250 OA
ENDROOT
BRANCH   5  10
ATOM     10  C   UNL     1      -3.511  -2.321   0.227  0.00  0.00    +0.044 A 
ATOM     11  C   UNL     1      -4.605  -2.754   0.950  0.00  0.00    -0.013 A 
ATOM     12  C   UNL     1      -5.666  -1.859   0.692  0.00  0.00    +0.003 A 
ATOM     13  C   UNL     1      -6.994  -1.791   1.139  0.00  0.00    +0.010 A 
ATOM     14  C   UNL     1      -7.807  -0.788   0.700  0.00  0.00    +0.001 A 
ATOM     15  C   UNL     1      -7.333   0.170  -0.188  0.00  0.00    +0.002 A 
ATOM     16  C   UNL     1      -6.034   0.125  -0.642  0.00  0.00    +0.026 A 
ATOM     17  C   UNL     1      -5.183  -0.888  -0.209  0.00  0.00    +0.047 A 
ATOM     18  N   UNL     1      -3.868  -1.186  -0.481  0.00  0.00    -0.354 N 
ATOM     19  H   UNL     1      -3.285  -0.683  -1.072  0.00  0.00    +0.166 HD
BRANCH  11  20
ATOM     20  C   UNL     1      -4.655  -3.960   1.852  0.00  0.00    +0.056 C 
BRANCH  20  21
ATOM     21  C   UNL     1      -4.260  -3.551   3.272  0.00  0.00    +0.109 C 
BRANCH  21  22
ATOM     22  N   UNL     1      -4.309  -4.723   4.150  0.00  0.00    -0.315 N 
ATOM     23  C   UNL     1      -3.997  -4.602   5.455  0.00  0.00    +0.210 C 
ATOM     24  O   UNL     1      -3.676  -3.522   5.904  0.00  0.00    -0.276 OA
ATOM     25  C   UNL     1      -4.048  -5.808   6.357  0.00  0.00    +0.109 C 
ATOM     26  H   UNL     1      -4.566  -5.587   3.791  0.00  0.00    +0.149 HD
ENDBRANCH  21  22
ENDBRANCH  20  21
ENDBRANCH  11  20
ENDBRANCH   5  10
BRANCH   1  30
ATOM     27  C   UNL     1      -0.044   4.086   1.253  0.00  0.00    -0.045 A 
ATOM     28  C   UNL     1       0.050   3.204   2.314  0.00  0.00    +0.006 A 
ATOM     29  C   UNL     1       0.068   1.842   2.083  0.00  0.00    +0.024 A 
ATOM     30  C   UNL     1      -0.009   1.359   0.783  0.00  0.00    +0.046 A 
ATOM     31  C   UNL     1      -0.099   2.247  -0.281  0.00  0.00    +0.024 A 
ATOM     32  C   UNL     1      -0.120   3.607  -0.043  0.00  0.00    +0.006 A 
BRANCH  27  34
ATOM     33  C   UNL     1       1.126   6.225   0.800  0.00  0.00    +0.012 C 
ATOM     34  C   UNL     1      -0.062   5.571   1.508  0.00  0.00    +0.013 C 
ATOM     35  C   UNL     1      -1.366   6.165   0.971  0.00  0.00    +0.012 C 
ENDBRANCH  27  34
ENDBRANCH   1  30
BRANCH   6  36
ATOM     36  O   UNL     1       0.384  -4.065  -0.174  0.00  0.00    -0.493 OA
ATOM     37  H   UNL     1       1.302  -4.346  -0.288  0.00  0.00    +0.294 HD
ENDBRANCH   6  36
TORSDOF 7
