REMARK  Name = ZINC11898413
REMARK  9 active torsions:
REMARK  status: ('A' for Active; 'I' for Inactive)
REMARK    1  A    between atoms: C_1  and  N_2
REMARK    2  A    between atoms: C_6  and  C_7
REMARK    3  A    between atoms: C_7  and  C_9
REMARK    4  A    between atoms: C_7  and  N_66
REMARK    5  A    between atoms: C_9  and  N_10
REMARK    6  A    between atoms: C_11  and  C_13
REMARK    7  A    between atoms: N_15  and  C_16
REMARK    8  A    between atoms: C_16  and  C_17
REMARK    9  A    between atoms: C_17  and  C_18
REMARK                            x       y       z     vdW  Elec       q    Type
REMARK                         _______ _______ _______ _____ _____    ______ ____
ROOT
ATOM      1  C   UNL     1      -1.186  -0.884   0.045  0.00  0.00    -0.003 C 
ENDROOT
BRANCH   1  11
ATOM      2  C   UNL     1       0.173  -2.449   1.301  0.00  0.00    -0.073 C 
ATOM      3  C   UNL     1       0.478  -3.943   1.413  0.00  0.00    +0.017 C 
ATOM      4  C   UNL     1       1.105  -4.438   0.135  0.00  0.00    -0.048 A 
ATOM      5  C   UNL     1       1.770  -5.654   0.152  0.00  0.00    +0.004 A 
ATOM      6  C   UNL     1       2.354  -6.146  -0.998  0.00  0.00    +0.000 A 
ATOM      7  C   UNL     1       2.277  -5.421  -2.173  0.00  0.00    +0.000 A 
ATOM      8  C   UNL     1       1.617  -4.209  -2.190  0.00  0.00    +0.002 A 
ATOM      9  C   UNL     1       1.030  -3.713  -1.036  0.00  0.00    -0.061 A 
ATOM     10  C   UNL     1       0.325  -2.384  -1.104  0.00  0.00    -0.042 C 
ATOM     11  N   UNL     1      -0.580  -2.235   0.049  0.00  0.00    +0.389 N 
ATOM     12  H   UNL     1      -1.326  -2.936  -0.018  0.00  0.00    -0.080 HD
ENDBRANCH   1  11
BRANCH   1  18
ATOM     13  C   UNL     1      -1.634   2.175   0.281  0.00  0.00    +0.148 C 
ATOM     14  N   UNL     1      -0.328   1.512   0.294  0.00  0.00    -0.355 N 
ATOM     15  C   UNL     1       0.879   2.137   0.406  0.00  0.00    +0.085 A 
ATOM     16  C   UNL     1       1.845   1.197   0.372  0.00  0.00    +0.019 A 
ATOM     17  C   UNL     1       1.212  -0.054   0.234  0.00  0.00    +0.021 A 
ATOM     18  C   UNL     1      -0.117   0.169   0.188  0.00  0.00    +0.006 A 
ENDBRANCH   1  18
BRANCH   1  19
ATOM     19  C   UNL     1      -1.935  -0.675  -1.272  0.00  0.00    +0.095 C 
BRANCH  19  20
ATOM     20  N   UNL     1      -2.912  -1.750  -1.455  0.00  0.00    -0.309 N 
ATOM     21  C   UNL     1      -3.621  -1.831  -2.598  0.00  0.00    +0.299 C 
ATOM     22  O   UNL     1      -3.449  -1.012  -3.477  0.00  0.00    -0.265 OA
ATOM     23  H   UNL     1      -3.050  -2.405  -0.752  0.00  0.00    +0.149 HD
BRANCH  21  24
ATOM     24  C   UNL     1      -4.618  -2.928  -2.784  0.00  0.00    +0.299 C 
ATOM     25  O   UNL     1      -4.790  -3.747  -1.905  0.00  0.00    -0.265 OA
ATOM     26  N   UNL     1      -5.327  -3.008  -3.928  0.00  0.00    -0.307 N 
ATOM     27  H   UNL     1      -5.190  -2.353  -4.630  0.00  0.00    +0.149 HD
BRANCH  26  28
ATOM     28  C   UNL     1      -6.305  -4.084  -4.110  0.00  0.00    +0.109 C 
BRANCH  28  29
ATOM     29  C   UNL     1      -6.965  -3.946  -5.483  0.00  0.00    +0.049 C 
BRANCH  29  30
ATOM     30  C   UNL     1      -7.971  -5.052  -5.670  0.00  0.00    -0.072 C 
ATOM     31  C   UNL     1      -9.208  -4.804  -5.381  0.00  0.00    -0.028 C 
ATOM     32  C   UNL     1     -10.318  -5.806  -5.506  0.00  0.00    +0.027 C 
ATOM     33  C   UNL     1      -9.880  -6.970  -6.397  0.00  0.00    +0.004 C 
ATOM     34  C   UNL     1      -8.513  -7.466  -5.909  0.00  0.00    +0.005 C 
ATOM     35  C   UNL     1      -7.477  -6.372  -6.187  0.00  0.00    +0.030 C 
ENDBRANCH  29  30
ENDBRANCH  28  29
ENDBRANCH  26  28
ENDBRANCH  21  24
ENDBRANCH  19  20
ENDBRANCH   1  19
TORSDOF 8
