REMARK  Name = ZINC56044358
REMARK  5 active torsions:
REMARK  status: ('A' for Active; 'I' for Inactive)
REMARK    1  A    between atoms: C_1  and  C_2
REMARK    2  A    between atoms: C_3  and  C_18
REMARK    3  A    between atoms: C_4  and  C_10
REMARK    4  A    between atoms: C_12  and  N_15
REMARK    5  A    between atoms: N_20  and  C_21
REMARK                            x       y       z     vdW  Elec       q    Type
REMARK                         _______ _______ _______ _____ _____    ______ ____
ROOT
ATOM      1  C   UNL     1       0.802   0.853  -1.460  0.00  0.00    +0.061 C 
ATOM      2  C   UNL     1       0.409  -0.496  -0.913  0.00  0.00    +0.017 C 
ATOM      3  C   UNL     1      -0.819  -0.663  -0.380  0.00  0.00    +0.056 C 
ATOM      4  C   UNL     1      -1.173  -2.035   0.158  0.00  0.00    +0.140 C 
ATOM      5  N   UNL     1      -0.141  -3.079   0.054  0.00  0.00    -0.315 N 
ATOM      6  C   UNL     1       1.042  -2.758  -0.506  0.00  0.00    +0.135 C 
ATOM      7  S   UNL     1       2.252  -3.963  -0.634  0.00  0.00    -0.019 S 
ATOM      8  N   UNL     1       1.300  -1.529  -0.971  0.00  0.00    -0.300 N 
ATOM      9  H   UNL     1      -0.308  -3.977   0.381  0.00  0.00    +0.149 HD
ATOM     10  H   UNL     1       2.170  -1.363  -1.367  0.00  0.00    +0.154 HD
ENDROOT
BRANCH   4  11
ATOM     11  C   UNL     1      -1.535  -1.883   1.613  0.00  0.00    -0.013 A 
ATOM     12  C   UNL     1      -2.754  -2.336   2.084  0.00  0.00    +0.046 A 
ATOM     13  C   UNL     1      -3.048  -2.185   3.398  0.00  0.00    +0.164 A 
ATOM     14  S   UNL     1      -1.578  -1.382   4.016  0.00  0.00    -0.073 S 
ATOM     15  C   UNL     1      -0.669  -1.307   2.482  0.00  0.00    +0.053 A 
BRANCH  13  16
ATOM     16  N   UNL     1      -4.271  -2.582   4.131  0.00  0.00    +0.063 N 
ATOM     17  O   UNL     1      -5.180  -3.122   3.544  0.00  0.00    -0.126 OA
ATOM     18  O   UNL     1      -4.362  -2.366   5.318  0.00  0.00    -0.126 OA
ENDBRANCH  13  16
ENDBRANCH   4  11
BRANCH   3  19
ATOM     19  C   UNL     1      -1.746   0.407  -0.325  0.00  0.00    +0.248 C 
ATOM     20  O   UNL     1      -1.398   1.530  -0.642  0.00  0.00    -0.270 OA
ATOM     21  N   UNL     1      -3.011   0.182   0.080  0.00  0.00    -0.282 N 
ATOM     22  H   UNL     1      -3.274  -0.701   0.383  0.00  0.00    +0.155 HD
BRANCH  21  23
ATOM     23  C   UNL     1      -3.947   1.223   0.062  0.00  0.00    +0.034 A 
ATOM     24  C   UNL     1      -3.546   2.523   0.340  0.00  0.00    +0.026 A 
ATOM     25  C   UNL     1      -4.471   3.548   0.322  0.00  0.00    +0.040 A 
ATOM     26  C   UNL     1      -5.797   3.281   0.027  0.00  0.00    +0.124 A 
ATOM     27  C   UNL     1      -6.199   1.985  -0.251  0.00  0.00    +0.040 A 
ATOM     28  C   UNL     1      -5.276   0.958  -0.240  0.00  0.00    +0.026 A 
ATOM     29  F   UNL     1      -6.701   4.285   0.010  0.00  0.00    -0.205 F 
ENDBRANCH  21  23
ENDBRANCH   3  19
TORSDOF 4
