REMARK  Name = ZINC14699382
REMARK  15 active torsions:
REMARK  status: ('A' for Active; 'I' for Inactive)
REMARK    1  A    between atoms: C_1  and  C_2
REMARK    2  A    between atoms: C_2  and  C_3
REMARK    3  A    between atoms: C_3  and  C_4
REMARK    4  A    between atoms: C_4  and  N_5
REMARK    5  A    between atoms: C_6  and  N_36
REMARK    6  A    between atoms: C_7  and  N_14
REMARK    7  A    between atoms: N_14  and  C_15
REMARK    8  A    between atoms: C_15  and  C_16
REMARK    9  A    between atoms: C_21  and  O_22
REMARK   10  A    between atoms: O_22  and  C_23
REMARK   11  A    between atoms: C_24  and  C_26
REMARK   12  A    between atoms: C_26  and  S_27
REMARK   13  A    between atoms: S_27  and  C_28
REMARK   14  A    between atoms: C_28  and  C_29
REMARK   15  A    between atoms: C_33  and  C_35
REMARK                            x       y       z     vdW  Elec       q    Type
REMARK                         _______ _______ _______ _____ _____    ______ ____
ROOT
ATOM      1  N   UNL     1      -0.728   1.332  -1.291  0.00  0.00    -0.259 N 
ATOM      2  C   UNL     1      -0.619   2.465  -2.016  0.00  0.00    +0.230 C 
ATOM      3  O   UNL     1      -1.253   2.592  -3.042  0.00  0.00    -0.274 OA
ENDROOT
BRANCH   1   6
ATOM      4  N   UNL     1      -3.587  -0.669  -2.441  0.00  0.00    -0.280 N 
ATOM      5  C   UNL     1      -2.860   0.398  -1.967  0.00  0.00    +0.127 A 
ATOM      6  C   UNL     1      -1.501   0.256  -1.776  0.00  0.00    +0.140 A 
ATOM      7  C   UNL     1      -0.898  -0.979  -2.079  0.00  0.00    +0.277 A 
ATOM      8  O   UNL     1       0.302  -1.131  -1.925  0.00  0.00    -0.266 OA
ATOM      9  N   UNL     1      -1.657  -1.995  -2.537  0.00  0.00    -0.273 N 
ATOM     10  H   UNL     1      -1.231  -2.875  -2.745  0.00  0.00    +0.173 HD
ATOM     11  C   UNL     1      -2.980  -1.837  -2.716  0.00  0.00    +0.331 A 
ATOM     12  O   UNL     1      -3.641  -2.769  -3.135  0.00  0.00    -0.246 OA
BRANCH   5  13
ATOM     13  N   UNL     1      -3.481   1.592  -1.686  0.00  0.00    -0.343 N 
ATOM     14  H   UNL     1      -2.954   2.360  -1.415  0.00  0.00    +0.144 HD
ATOM     15  H   UNL     1      -4.445   1.667  -1.760  0.00  0.00    +0.144 HD
ENDBRANCH   5  13
BRANCH   4  16
ATOM     16  C   UNL     1      -5.031  -0.532  -2.648  0.00  0.00    +0.128 C 
BRANCH  16  17
ATOM     17  C   UNL     1      -5.298  -0.043  -4.074  0.00  0.00    +0.021 C 
BRANCH  17  19
ATOM     18  C   UNL     1      -7.072   0.588  -5.716  0.00  0.00    +0.004 C 
ATOM     19  C   UNL     1      -6.806   0.100  -4.290  0.00  0.00    -0.002 C 
ENDBRANCH  17  19
ENDBRANCH  16  17
ENDBRANCH   4  16
ENDBRANCH   1   6
BRANCH   1  20
ATOM     20  C   UNL     1      -0.044   1.219  -0.001  0.00  0.00    +0.152 C 
BRANCH  20  21
ATOM     21  C   UNL     1      -0.950   1.722   1.094  0.00  0.00    +0.012 A 
ATOM     22  C   UNL     1      -0.731   2.966   1.655  0.00  0.00    +0.009 A 
ATOM     23  C   UNL     1      -1.565   3.430   2.655  0.00  0.00    +0.001 A 
ATOM     24  C   UNL     1      -2.613   2.647   3.104  0.00  0.00    +0.004 A 
ATOM     25  C   UNL     1      -2.832   1.401   2.550  0.00  0.00    +0.046 A 
ATOM     26  C   UNL     1      -2.000   0.935   1.542  0.00  0.00    +0.125 A 
BRANCH  26  27
ATOM     27  O   UNL     1      -2.214  -0.291   0.996  0.00  0.00    -0.495 OA
ATOM     28  C   UNL     1      -3.314  -1.046   1.507  0.00  0.00    +0.277 C 
ENDBRANCH  26  27
ENDBRANCH  20  21
ENDBRANCH   1  20
BRANCH   2  29
ATOM     29  C   UNL     1       0.291   3.572  -1.550  0.00  0.00    +0.165 C 
BRANCH  29  30
ATOM     30  S   UNL     1       0.220   4.949  -2.729  0.00  0.00    -0.147 S 
BRANCH  30  31
ATOM     31  C   UNL     1       1.355   6.182  -2.034  0.00  0.00    +0.104 C 
BRANCH  31  32
ATOM     32  C   UNL     1       1.390   7.394  -2.928  0.00  0.00    -0.037 A 
ATOM     33  C   UNL     1       2.314   7.469  -3.954  0.00  0.00    +0.004 A 
ATOM     34  C   UNL     1       2.344   8.579  -4.777  0.00  0.00    +0.001 A 
ATOM     35  C   UNL     1       1.455   9.618  -4.570  0.00  0.00    +0.003 A 
ATOM     36  C   UNL     1       0.535   9.544  -3.541  0.00  0.00    -0.050 A 
ATOM     37  C   UNL     1       0.502   8.432  -2.720  0.00  0.00    +0.007 A 
ATOM     38  C   UNL     1      -0.433  10.677  -3.315  0.00  0.00    +0.044 C 
ENDBRANCH  31  32
ENDBRANCH  30  31
ENDBRANCH  29  30
ENDBRANCH   2  29
TORSDOF 12
