REMARK  Name = ZINC14650481
REMARK  11 active torsions:
REMARK  status: ('A' for Active; 'I' for Inactive)
REMARK    1  A    between atoms: C_1  and  C_2
REMARK    2  A    between atoms: N_7  and  S_8
REMARK    3  A    between atoms: S_8  and  C_11
REMARK    4  A    between atoms: C_14  and  N_17
REMARK    5  A    between atoms: C_18  and  C_20
REMARK    6  A    between atoms: C_25  and  O_26
REMARK    7  A    between atoms: O_26  and  C_27
REMARK    8  A    between atoms: C_27  and  C_28
REMARK    9  A    between atoms: C_28  and  C_29
REMARK   10  A    between atoms: C_29  and  C_30
REMARK   11  A    between atoms: C_29  and  C_31
REMARK                            x       y       z     vdW  Elec       q    Type
REMARK                         _______ _______ _______ _____ _____    ______ ____
ROOT
ATOM      1  C   UNL     1       2.394   0.028  -0.041  0.00  0.00    +0.109 A 
ATOM      2  C   UNL     1       1.293  -0.540   0.573  0.00  0.00    +0.030 A 
ATOM      3  C   UNL     1       0.089   0.135   0.597  0.00  0.00    +0.025 A 
ATOM      4  C   UNL     1      -0.017   1.385   0.002  0.00  0.00    +0.034 A 
ATOM      5  C   UNL     1       1.091   1.953  -0.614  0.00  0.00    +0.025 A 
ATOM      6  C   UNL     1       2.293   1.273  -0.635  0.00  0.00    +0.030 A 
ENDROOT
BRANCH   4   7
ATOM      7  N   UNL     1      -1.236   2.069   0.019  0.00  0.00    -0.281 N 
ATOM      8  C   UNL     1      -1.255   3.412   0.128  0.00  0.00    +0.252 C 
ATOM      9  O   UNL     1      -0.211   4.037   0.127  0.00  0.00    -0.270 OA
ATOM     10  H   UNL     1      -2.069   1.576  -0.048  0.00  0.00    +0.155 HD
BRANCH   8  11
ATOM     11  C   UNL     1      -2.541   4.125   0.249  0.00  0.00    +0.080 A 
ATOM     12  C   UNL     1      -3.742   3.412   0.246  0.00  0.00    +0.032 A 
ATOM     13  C   UNL     1      -4.940   4.084   0.365  0.00  0.00    +0.019 A 
ATOM     14  C   UNL     1      -4.959   5.465   0.477  0.00  0.00    +0.019 A 
ATOM     15  C   UNL     1      -3.779   6.182   0.476  0.00  0.00    +0.047 A 
ATOM     16  C   UNL     1      -2.564   5.521   0.363  0.00  0.00    +0.133 A 
ATOM     17 BR   UNL     1      -6.565   3.117   0.368  0.00  0.00    -0.050 Br
BRANCH  16  18
ATOM     18  O   UNL     1      -1.404   6.225   0.362  0.00  0.00    -0.491 OA
BRANCH  18  19
ATOM     19  C   UNL     1      -1.506   7.645   0.481  0.00  0.00    +0.229 C 
BRANCH  19  20
ATOM     20  C   UNL     1      -0.106   8.261   0.461  0.00  0.00    +0.044 C 
BRANCH  20  21
ATOM     21  C   UNL     1      -0.215   9.781   0.589  0.00  0.00    -0.014 C 
ATOM     22  C   UNL     1      -0.794  10.137   1.960  0.00  0.00    +0.007 C 
ATOM     23  C   UNL     1       1.174  10.407   0.444  0.00  0.00    +0.007 C 
ENDBRANCH  20  21
ENDBRANCH  19  20
ENDBRANCH  18  19
ENDBRANCH  16  18
ENDBRANCH   8  11
ENDBRANCH   4   7
BRANCH   1  24
ATOM     24  S   UNL     1       3.929  -0.837  -0.069  0.00  0.00    +0.074 S 
ATOM     25  O   UNL     1       4.945   0.144  -0.227  0.00  0.00    -0.150 OA
ATOM     26  O   UNL     1       3.906  -1.740   1.028  0.00  0.00    -0.150 OA
BRANCH  24  33
ATOM     27  C   UNL     1       3.959  -0.887  -6.348  0.00  0.00    +0.089 C 
ATOM     28  C   UNL     1       3.951  -0.775  -4.845  0.00  0.00    +0.136 A 
ATOM     29  C   UNL     1       3.959  -1.795  -3.958  0.00  0.00    +0.092 A 
ATOM     30  C   UNL     1       3.945  -1.150  -2.692  0.00  0.00    +0.181 A 
ATOM     31  N   UNL     1       3.927   0.135  -2.938  0.00  0.00    -0.062 NA
ATOM     32  O   UNL     1       3.935   0.358  -4.127  0.00  0.00    -0.358 OA
ATOM     33  N   UNL     1       3.946  -1.761  -1.443  0.00  0.00    -0.197 N 
ATOM     34  H   UNL     1       3.956  -2.729  -1.377  0.00  0.00    +0.175 HD
ENDBRANCH  24  33
ENDBRANCH   1  24
TORSDOF 8
