REMARK  Name = ZINC12759501
REMARK  8 active torsions:
REMARK  status: ('A' for Active; 'I' for Inactive)
REMARK    1  A    between atoms: C_1  and  C_2
REMARK    2  A    between atoms: C_5  and  C_8
REMARK    3  A    between atoms: C_10  and  C_13
REMARK    4  A    between atoms: C_13  and  N_14
REMARK    5  A    between atoms: C_20  and  C_22
REMARK    6  A    between atoms: C_22  and  C_23
REMARK    7  A    between atoms: C_23  and  C_24
REMARK    8  A    between atoms: C_24  and  C_25
REMARK                            x       y       z     vdW  Elec       q    Type
REMARK                         _______ _______ _______ _____ _____    ______ ____
ROOT
ATOM      1  N   UNL     1       0.002  -0.004   0.002  0.00  0.00    -0.291 NA
ATOM      2  C   UNL     1       0.562  -0.516  -1.256  0.00  0.00    +0.104 C 
ATOM      3  C   UNL     1       0.733  -2.035  -1.154  0.00  0.00    +0.123 C 
ATOM      4  N   UNL     1      -0.555  -2.626  -0.761  0.00  0.00    -0.299 N 
ATOM      5  C   UNL     1      -1.245  -2.071   0.414  0.00  0.00    +0.123 C 
ATOM      6  C   UNL     1      -1.339  -0.550   0.250  0.00  0.00    +0.104 C 
ATOM      7  C   UNL     1      -1.089  -3.648  -1.458  0.00  0.00    +0.216 C 
ATOM      8  O   UNL     1      -2.153  -4.123  -1.119  0.00  0.00    -0.276 OA
ENDROOT
BRANCH   1   9
ATOM      9  C   UNL     1      -0.018   1.465   0.010  0.00  0.00    +0.183 C 
BRANCH   9  12
ATOM     10  C   UNL     1       3.306   2.696  -0.587  0.00  0.00    +0.202 A 
ATOM     11  N   UNL     1       2.116   2.261  -1.060  0.00  0.00    -0.190 NA
ATOM     12  C   UNL     1       1.396   1.986  -0.001  0.00  0.00    +0.242 A 
ATOM     13  O   UNL     1       2.149   2.261   1.069  0.00  0.00    -0.336 OA
ATOM     14  N   UNL     1       3.239   2.660   0.718  0.00  0.00    -0.056 NA
BRANCH  10  19
ATOM     15  C   UNL     1       7.824   4.385  -3.735  0.00  0.00    +0.044 C 
ATOM     16  C   UNL     1       6.641   3.943  -2.912  0.00  0.00    -0.050 A 
ATOM     17  C   UNL     1       6.718   3.961  -1.531  0.00  0.00    +0.004 A 
ATOM     18  C   UNL     1       5.639   3.558  -0.771  0.00  0.00    +0.012 A 
ATOM     19  C   UNL     1       4.470   3.132  -1.399  0.00  0.00    +0.022 A 
ATOM     20  C   UNL     1       4.399   3.111  -2.790  0.00  0.00    +0.012 A 
ATOM     21  C   UNL     1       5.483   3.521  -3.539  0.00  0.00    +0.004 A 
ENDBRANCH  10  19
ENDBRANCH   9  12
ENDBRANCH   1   9
BRANCH   7  22
ATOM     22  C   UNL     1      -0.365  -4.201  -2.658  0.00  0.00    +0.096 C 
BRANCH  22  23
ATOM     23  C   UNL     1      -1.181  -5.346  -3.262  0.00  0.00    +0.014 C 
BRANCH  23  24
ATOM     24  C   UNL     1      -0.445  -5.908  -4.481  0.00  0.00    +0.038 C 
BRANCH  24  25
ATOM     25  C   UNL     1      -1.248  -7.036  -5.076  0.00  0.00    -0.022 A 
ATOM     26  C   UNL     1      -1.090  -8.346  -4.830  0.00  0.00    +0.087 A 
ATOM     27  N   UNL     1      -2.001  -9.070  -5.549  0.00  0.00    -0.360 N 
ATOM     28  H   UNL     1      -2.022 -10.166  -5.465  0.00  0.00    +0.165 HD
ATOM     29  C   UNL     1      -2.783  -8.222  -6.302  0.00  0.00    +0.047 A 
ATOM     30  C   UNL     1      -2.345  -6.911  -6.039  0.00  0.00    +0.003 A 
ATOM     31  C   UNL     1      -2.964  -5.830  -6.670  0.00  0.00    +0.010 A 
ATOM     32  C   UNL     1      -3.993  -6.053  -7.542  0.00  0.00    +0.001 A 
ATOM     33  C   UNL     1      -4.428  -7.344  -7.805  0.00  0.00    +0.002 A 
ATOM     34  C   UNL     1      -3.832  -8.425  -7.193  0.00  0.00    +0.026 A 
ENDBRANCH  24  25
ENDBRANCH  23  24
ENDBRANCH  22  23
ENDBRANCH   7  22
TORSDOF 7
