REMARK  Name = ZINC15959576
REMARK  11 active torsions:
REMARK  status: ('A' for Active; 'I' for Inactive)
REMARK    1  A    between atoms: C_1  and  C_2
REMARK    2  A    between atoms: C_16  and  C_19
REMARK    3  A    between atoms: C_19  and  C_20
REMARK    4  A    between atoms: C_20  and  C_21
REMARK    5  A    between atoms: N_26  and  C_29
REMARK    6  A    between atoms: C_29  and  C_30
REMARK    7  A    between atoms: C_30  and  C_31
REMARK    8  A    between atoms: C_34  and  O_39
REMARK    9  A    between atoms: C_35  and  O_37
REMARK   10  A    between atoms: O_37  and  C_38
REMARK   11  A    between atoms: O_39  and  C_40
REMARK                            x       y       z     vdW  Elec       q    Type
REMARK                         _______ _______ _______ _____ _____    ______ ____
ROOT
ATOM      1  C   UNL     1      -0.018   1.503   0.010  0.00  0.00    +0.045 C 
ATOM      2  C   UNL     1       0.002  -0.004   0.002  0.00  0.00    -0.029 A 
ATOM      3  C   UNL     1       0.006  -0.685  -1.198  0.00  0.00    +0.005 A 
ATOM      4  C   UNL     1       0.024  -2.068  -1.216  0.00  0.00    +0.001 A 
ATOM      5  C   UNL     1       0.040  -2.772  -0.025  0.00  0.00    +0.008 A 
ATOM      6  C   UNL     1       0.037  -2.096   1.175  0.00  0.00    +0.004 A 
ATOM      7  C   UNL     1       0.023  -0.705   1.205  0.00  0.00    +0.042 A 
ATOM      8  N   UNL     1       0.029  -0.250   2.526  0.00  0.00    -0.283 N 
ATOM      9  C   UNL     1       0.050  -1.265   3.412  0.00  0.00    +0.243 C 
ATOM     10  O   UNL     1       0.059  -1.170   4.621  0.00  0.00    -0.273 OA
ATOM     11  C   UNL     1       0.049  -2.538   2.611  0.00  0.00    +0.136 C 
ATOM     12  C   UNL     1      -1.161  -3.420   2.939  0.00  0.00    +0.122 C 
ATOM     13  C   UNL     1      -0.620  -4.875   2.853  0.00  0.00    +0.107 C 
ATOM     14  C   UNL     1       0.863  -4.723   2.453  0.00  0.00    +0.068 C 
ATOM     15  N   UNL     1       1.239  -3.354   2.916  0.00  0.00    -0.295 NA
ATOM     16  C   UNL     1      -0.719  -5.369   4.278  0.00  0.00    +0.227 C 
ATOM     17  O   UNL     1      -0.386  -6.469   4.663  0.00  0.00    -0.275 OA
ATOM     18  N   UNL     1      -1.231  -4.402   5.049  0.00  0.00    -0.241 N 
ATOM     19  C   UNL     1      -1.529  -3.255   4.397  0.00  0.00    +0.228 C 
ATOM     20  O   UNL     1      -2.009  -2.257   4.889  0.00  0.00    -0.275 OA
ATOM     21  H   UNL     1       0.018   0.687   2.776  0.00  0.00    +0.155 HD
ATOM     22  H   UNL     1       2.047  -3.016   2.414  0.00  0.00    +0.123 HD
ENDROOT
BRANCH  14  23
ATOM     23  C   UNL     1       1.718  -5.768   3.171  0.00  0.00    +0.028 C 
BRANCH  23  24
ATOM     24  C   UNL     1       3.160  -5.681   2.667  0.00  0.00    +0.097 C 
BRANCH  24  25
ATOM     25  C   UNL     1       4.003  -6.710   3.375  0.00  0.00    +0.211 C 
ATOM     26  O   UNL     1       3.500  -7.441   4.202  0.00  0.00    -0.276 OA
ATOM     27  N   UNL     1       5.316  -6.818   3.090  0.00  0.00    -0.329 N 
ATOM     28  H   UNL     1       5.718  -6.234   2.429  0.00  0.00    +0.145 HD
ATOM     29  H   UNL     1       5.858  -7.481   3.546  0.00  0.00    +0.145 HD
ENDBRANCH  24  25
ENDBRANCH  23  24
ENDBRANCH  14  23
BRANCH  18  30
ATOM     30  C   UNL     1      -1.459  -4.573   6.487  0.00  0.00    +0.121 C 
BRANCH  30  31
ATOM     31  C   UNL     1      -0.208  -4.141   7.255  0.00  0.00    +0.054 C 
BRANCH  31  32
ATOM     32  C   UNL     1      -0.442  -4.316   8.734  0.00  0.00    -0.042 A 
ATOM     33  C   UNL     1      -0.981  -3.280   9.474  0.00  0.00    +0.007 A 
ATOM     34  C   UNL     1      -1.198  -3.436  10.831  0.00  0.00    +0.049 A 
ATOM     35  C   UNL     1      -0.875  -4.632  11.451  0.00  0.00    +0.161 A 
ATOM     36  C   UNL     1      -0.333  -5.675  10.706  0.00  0.00    +0.162 A 
ATOM     37  C   UNL     1      -0.123  -5.514   9.345  0.00  0.00    +0.053 A 
BRANCH  36  38
ATOM     38  O   UNL     1      -0.015  -6.851  11.310  0.00  0.00    -0.491 OA
ATOM     39  C   UNL     1       0.537  -7.877  10.482  0.00  0.00    +0.277 C 
ENDBRANCH  36  38
BRANCH  35  40
ATOM     40  O   UNL     1      -1.087  -4.787  12.785  0.00  0.00    -0.491 OA
ATOM     41  C   UNL     1      -1.646  -3.674  13.487  0.00  0.00    +0.277 C 
ENDBRANCH  35  40
ENDBRANCH  31  32
ENDBRANCH  30  31
ENDBRANCH  18  30
TORSDOF 8
