REMARK  Name = ZINC03602412
REMARK  10 active torsions:
REMARK  status: ('A' for Active; 'I' for Inactive)
REMARK    1  A    between atoms: C_4  and  C_7
REMARK    2  A    between atoms: C_10  and  S_18
REMARK    3  A    between atoms: N_11  and  C_12
REMARK    4  A    between atoms: S_18  and  C_19
REMARK    5  A    between atoms: C_19  and  C_20
REMARK    6  A    between atoms: N_22  and  C_23
REMARK    7  A    between atoms: C_23  and  C_24
REMARK    8  A    between atoms: C_24  and  C_25
REMARK    9  A    between atoms: C_28  and  S_31
REMARK   10  A    between atoms: S_31  and  N_34
REMARK                            x       y       z     vdW  Elec       q    Type
REMARK                         _______ _______ _______ _____ _____    ______ ____
ROOT
ATOM      1  C   UNL     1       0.606  -2.171  -1.026  0.00  0.00    +0.173 C 
ENDROOT
BRANCH   1   2
ATOM      2  C   UNL     1       0.585  -0.664  -1.018  0.00  0.00    +0.223 C 
ATOM      3  O   UNL     1       1.093  -0.046  -1.929  0.00  0.00    -0.275 OA
ATOM      4  N   UNL     1       0.002  -0.004   0.002  0.00  0.00    -0.314 N 
ATOM      5  H   UNL     1      -0.404  -0.499   0.731  0.00  0.00    +0.149 HD
BRANCH   4   6
ATOM      6  C   UNL     1      -0.018   1.461   0.010  0.00  0.00    +0.109 C 
BRANCH   6   7
ATOM      7  C   UNL     1      -0.734   1.954   1.269  0.00  0.00    +0.054 C 
BRANCH   7   8
ATOM      8  C   UNL     1      -0.754   3.461   1.277  0.00  0.00    -0.046 A 
ATOM      9  C   UNL     1       0.276   4.163   1.875  0.00  0.00    +0.005 A 
ATOM     10  C   UNL     1       0.259   5.545   1.878  0.00  0.00    +0.029 A 
ATOM     11  C   UNL     1      -0.792   6.225   1.293  0.00  0.00    +0.105 A 
ATOM     12  C   UNL     1      -1.825   5.523   0.700  0.00  0.00    +0.029 A 
ATOM     13  C   UNL     1      -1.806   4.141   0.692  0.00  0.00    +0.005 A 
BRANCH  11  14
ATOM     14  S   UNL     1      -0.815   7.987   1.301  0.00  0.00    +0.056 S 
ATOM     15  O   UNL     1       0.534   8.411   1.437  0.00  0.00    -0.153 OA
ATOM     16  O   UNL     1      -1.633   8.388   0.211  0.00  0.00    -0.153 OA
BRANCH  14  17
ATOM     17  N   UNL     1      -1.601   8.460   2.681  0.00  0.00    -0.204 NA
ATOM     18  H   UNL     1      -1.942   7.793   3.297  0.00  0.00    +0.144 HD
ATOM     19  H   UNL     1      -1.719   9.403   2.872  0.00  0.00    +0.144 HD
ENDBRANCH  14  17
ENDBRANCH  11  14
ENDBRANCH   7   8
ENDBRANCH   6   7
ENDBRANCH   4   6
ENDBRANCH   1   2
BRANCH   1  20
ATOM     20  S   UNL     1       1.453  -2.755  -2.515  0.00  0.00    -0.076 S 
BRANCH  20  24
ATOM     21  C   UNL     1       1.490  -6.665  -2.509  0.00  0.00    +0.169 A 
ATOM     22  N   UNL     1       0.857  -6.379  -1.395  0.00  0.00    -0.128 NA
ATOM     23  N   UNL     1       0.765  -5.105  -1.256  0.00  0.00    -0.122 NA
ATOM     24  C   UNL     1       1.334  -4.496  -2.272  0.00  0.00    +0.197 A 
ATOM     25  N   UNL     1       1.811  -5.467  -3.110  0.00  0.00    -0.270 N 
BRANCH  21  29
ATOM     26  C   UNL     1       2.368 -10.548  -3.990  0.00  0.00    +0.000 A 
ATOM     27  C   UNL     1       1.438 -10.391  -2.977  0.00  0.00    +0.001 A 
ATOM     28  C   UNL     1       1.148  -9.132  -2.492  0.00  0.00    +0.011 A 
ATOM     29  C   UNL     1       1.796  -8.016  -3.024  0.00  0.00    +0.020 A 
ATOM     30  C   UNL     1       2.729  -8.181  -4.049  0.00  0.00    +0.011 A 
ATOM     31  C   UNL     1       3.013  -9.446  -4.522  0.00  0.00    +0.001 A 
ENDBRANCH  21  29
BRANCH  25  32
ATOM     32  C   UNL     1       2.486  -5.282  -4.324  0.00  0.00    +0.051 A 
ATOM     33  C   UNL     1       1.909  -5.708  -5.513  0.00  0.00    +0.026 A 
ATOM     34  C   UNL     1       2.575  -5.520  -6.709  0.00  0.00    +0.002 A 
ATOM     35  C   UNL     1       3.820  -4.919  -6.721  0.00  0.00    +0.000 A 
ATOM     36  C   UNL     1       4.399  -4.498  -5.538  0.00  0.00    +0.002 A 
ATOM     37  C   UNL     1       3.736  -4.678  -4.340  0.00  0.00    +0.026 A 
ENDBRANCH  25  32
ENDBRANCH  20  24
ENDBRANCH   1  20
TORSDOF 10
