REMARK  Name = ZINC10902728
REMARK  12 active torsions:
REMARK  status: ('A' for Active; 'I' for Inactive)
REMARK    1  A    between atoms: C_1  and  C_2
REMARK    2  A    between atoms: C_2  and  C_3
REMARK    3  A    between atoms: C_3  and  O_4
REMARK    4  A    between atoms: O_4  and  C_5
REMARK    5  A    between atoms: C_14  and  C_15
REMARK    6  A    between atoms: C_15  and  N_61
REMARK    7  A    between atoms: C_16  and  N_61
REMARK    8  A    between atoms: C_17  and  C_18
REMARK    9  A    between atoms: C_17  and  N_61
REMARK   10  A    between atoms: N_20  and  C_21
REMARK   11  A    between atoms: C_24  and  C_30
REMARK   12  A    between atoms: C_31  and  C_33
REMARK                            x       y       z     vdW  Elec       q    Type
REMARK                         _______ _______ _______ _____ _____    ______ ____
ROOT
ATOM      1  C   UNL     1      -3.214   6.736   1.498  0.00  0.00    +0.019 C 
ENDROOT
BRANCH   1   2
ATOM      2  C   UNL     1      -3.687   6.731   2.929  0.00  0.00    +0.203 C 
ATOM      3  O   UNL     1      -2.950   6.344   3.811  0.00  0.00    -0.277 OA
ATOM      4  N   UNL     1      -4.930   7.157   3.229  0.00  0.00    -0.257 N 
ATOM      5  H   UNL     1      -5.520   7.466   2.524  0.00  0.00    +0.158 HD
BRANCH   4   6
ATOM      6  C   UNL     1      -5.365   7.153   4.543  0.00  0.00    +0.206 A 
ATOM      7  C   UNL     1      -6.601   7.558   4.984  0.00  0.00    +0.110 A 
ATOM      8  C   UNL     1      -6.583   7.364   6.455  0.00  0.00    +0.053 A 
ATOM      9  C   UNL     1      -7.791   7.721   7.205  0.00  0.00    +0.070 A 
ATOM     10  N   UNL     1      -8.825   8.187   6.575  0.00  0.00    -0.175 NA
ATOM     11  N   UNL     1      -8.866   8.377   5.196  0.00  0.00    -0.242 N 
ATOM     12  H   UNL     1      -9.677   8.730   4.799  0.00  0.00    +0.192 HD
ATOM     13  C   UNL     1      -7.823   8.090   4.389  0.00  0.00    +0.277 A 
ATOM     14  O   UNL     1      -7.900   8.271   3.187  0.00  0.00    -0.266 OA
ATOM     15  C   UNL     1      -7.832   7.547   8.702  0.00  0.00    +0.068 C 
ATOM     16  C   UNL     1      -5.361   6.872   6.745  0.00  0.00    +0.114 A 
ATOM     17  O   UNL     1      -4.654   6.747   5.607  0.00  0.00    -0.445 OA
ATOM     18  C   UNL     1      -4.867   6.513   8.123  0.00  0.00    +0.087 C 
ENDBRANCH   4   6
ENDBRANCH   1   2
BRANCH   1  20
ATOM     19  C   UNL     1      -0.908   7.145   2.115  0.00  0.00    -0.095 C 
ATOM     20  N   UNL     1      -1.835   6.204   1.451  0.00  0.00    +0.386 N 
ATOM     21  H   UNL     1      -1.808   5.304   1.944  0.00  0.00    -0.081 HD
BRANCH  20  22
ATOM     22  C   UNL     1      -1.423   5.995   0.047  0.00  0.00    -0.038 C 
BRANCH  22  32
ATOM     23  C   UNL     1       1.067   5.942   0.023  0.00  0.00    +0.122 A 
ATOM     24  C   UNL     1       2.292   5.268   0.007  0.00  0.00    +0.046 A 
ATOM     25  C   UNL     1       2.342   3.909   0.000  0.00  0.00    +0.012 A 
ATOM     26  C   UNL     1       1.148   3.167   0.008  0.00  0.00    -0.017 A 
ATOM     27  C   UNL     1       1.163   1.762   0.000  0.00  0.00    +0.008 A 
ATOM     28  C   UNL     1      -0.013   1.076   0.008  0.00  0.00    +0.001 A 
ATOM     29  C   UNL     1      -1.235   1.746   0.018  0.00  0.00    +0.001 A 
ATOM     30  C   UNL     1      -1.288   3.105   0.031  0.00  0.00    +0.009 A 
ATOM     31  C   UNL     1      -0.095   3.849   0.024  0.00  0.00    -0.013 A 
ATOM     32  C   UNL     1      -0.112   5.253   0.031  0.00  0.00    -0.015 A 
BRANCH  23  33
ATOM     33  O   UNL     1       1.050   7.301   0.029  0.00  0.00    -0.492 OA
BRANCH  33  34
ATOM     34  C   UNL     1       2.315   7.966   0.020  0.00  0.00    +0.229 C 
BRANCH  34  36
ATOM     35  C   UNL     1       3.449  10.192   0.020  0.00  0.00    +0.007 C 
ATOM     36  C   UNL     1       2.095   9.480   0.029  0.00  0.00    +0.038 C 
ENDBRANCH  34  36
ENDBRANCH  33  34
ENDBRANCH  23  33
ENDBRANCH  22  32
ENDBRANCH  20  22
ENDBRANCH   1  20
TORSDOF 8
