REMARK  Name = ZINC39710970
REMARK  10 active torsions:
REMARK  status: ('A' for Active; 'I' for Inactive)
REMARK    1  A    between atoms: C_1  and  C_2
REMARK    2  A    between atoms: C_8  and  C_14
REMARK    3  A    between atoms: C_14  and  C_16
REMARK    4  A    between atoms: C_14  and  N_28
REMARK    5  A    between atoms: N_20  and  C_21
REMARK    6  A    between atoms: C_21  and  C_22
REMARK    7  A    between atoms: N_28  and  C_29
REMARK    8  A    between atoms: N_28  and  C_35
REMARK    9  A    between atoms: C_29  and  C_30
REMARK   10  A    between atoms: C_35  and  C_36
REMARK                            x       y       z     vdW  Elec       q    Type
REMARK                         _______ _______ _______ _____ _____    ______ ____
ROOT
ATOM      1  C   UNL     1       0.903  -1.096   4.417  0.00  0.00    +0.019 C 
ENDROOT
BRANCH   1   9
ATOM      2  C   UNL     1       0.334   1.571  -1.081  0.00  0.00    +0.045 C 
ATOM      3  C   UNL     1      -0.099   0.218  -0.580  0.00  0.00    -0.029 A 
ATOM      4  C   UNL     1      -0.442  -0.752  -1.467  0.00  0.00    +0.005 A 
ATOM      5  C   UNL     1      -0.851  -2.026  -1.070  0.00  0.00    +0.001 A 
ATOM      6  C   UNL     1      -0.928  -2.366   0.242  0.00  0.00    +0.009 A 
ATOM      7  C   UNL     1      -0.573  -1.369   1.252  0.00  0.00    -0.007 A 
ATOM      8  C   UNL     1      -0.635  -1.666   2.581  0.00  0.00    -0.006 C 
ATOM      9  C   UNL     1      -0.249  -0.572   3.557  0.00  0.00    +0.092 C 
ATOM     10  C   UNL     1       0.174   0.759   2.977  0.00  0.00    +0.223 C 
ATOM     11  O   UNL     1       0.495   1.672   3.715  0.00  0.00    -0.275 OA
ATOM     12  N   UNL     1       0.194   0.926   1.666  0.00  0.00    -0.284 N 
ATOM     13  C   UNL     1      -0.139  -0.034   0.804  0.00  0.00    +0.043 A 
ATOM     14  H   UNL     1       0.469   1.788   1.314  0.00  0.00    +0.155 HD
ENDBRANCH   1   9
BRANCH   1  15
ATOM     15  C   UNL     1       0.518  -2.422   5.019  0.00  0.00    +0.139 A 
ATOM     16  N   UNL     1      -0.363  -2.625   5.968  0.00  0.00    -0.115 NA
ATOM     17  N   UNL     1      -0.408  -3.890   6.206  0.00  0.00    -0.023 NA
ATOM     18  N   UNL     1       0.421  -4.500   5.433  0.00  0.00    -0.044 NA
ATOM     19  N   UNL     1       1.008  -3.630   4.683  0.00  0.00    -0.226 N 
BRANCH  19  20
ATOM     20  C   UNL     1       2.019  -3.905   3.659  0.00  0.00    +0.182 C 
BRANCH  20  21
ATOM     21  C   UNL     1       3.376  -4.002   4.307  0.00  0.00    -0.026 A 
ATOM     22  C   UNL     1       4.087  -2.852   4.598  0.00  0.00    +0.005 A 
ATOM     23  C   UNL     1       5.332  -2.941   5.193  0.00  0.00    +0.000 A 
ATOM     24  C   UNL     1       5.865  -4.179   5.497  0.00  0.00    +0.000 A 
ATOM     25  C   UNL     1       5.154  -5.329   5.206  0.00  0.00    +0.000 A 
ATOM     26  C   UNL     1       3.908  -5.240   4.616  0.00  0.00    +0.005 A 
ENDBRANCH  20  21
ENDBRANCH  19  20
ENDBRANCH   1  15
BRANCH   1  27
ATOM     27  N   UNL     1       1.188  -0.135   5.491  0.00  0.00    +0.392 N 
ATOM     28  H   UNL     1       1.091   0.805   5.137  0.00  0.00    -0.080 HD
BRANCH  27  29
ATOM     29  C   UNL     1       2.560  -0.336   5.977  0.00  0.00    -0.034 C 
BRANCH  29  30
ATOM     30  C   UNL     1       3.451   0.748   5.427  0.00  0.00    -0.027 A 
ATOM     31  C   UNL     1       3.713   1.977   5.934  0.00  0.00    +0.009 A 
ATOM     32  C   UNL     1       4.574   2.815   5.251  0.00  0.00    +0.008 A 
ATOM     33  C   UNL     1       5.132   2.382   4.094  0.00  0.00    +0.045 A 
ATOM     34  S   UNL     1       4.443   0.742   3.943  0.00  0.00    -0.103 S 
ENDBRANCH  29  30
ENDBRANCH  27  29
BRANCH  27  35
ATOM     35  C   UNL     1       0.242  -0.341   6.596  0.00  0.00    -0.045 C 
BRANCH  35  36
ATOM     36  C   UNL     1      -1.171   0.011   6.130  0.00  0.00    +0.102 C 
ATOM     37  C   UNL     1      -2.013   0.496   7.330  0.00  0.00    +0.032 C 
ATOM     38  C   UNL     1      -3.398  -0.146   7.042  0.00  0.00    +0.030 C 
ATOM     39  C   UNL     1      -2.971  -1.479   6.377  0.00  0.00    +0.160 C 
ATOM     40  O   UNL     1      -1.810  -1.153   5.593  0.00  0.00    -0.378 OA
ENDBRANCH  35  36
ENDBRANCH  27  35
ENDBRANCH   1  27
TORSDOF 9
