REMARK  Name = ZINC12245978
REMARK  8 active torsions:
REMARK  status: ('A' for Active; 'I' for Inactive)
REMARK    1  A    between atoms: C_1  and  N_56
REMARK    2  A    between atoms: C_2  and  C_3
REMARK    3  A    between atoms: C_2  and  N_56
REMARK    4  A    between atoms: C_6  and  C_11
REMARK    5  A    between atoms: N_13  and  C_14
REMARK    6  A    between atoms: C_14  and  C_15
REMARK    7  A    between atoms: C_24  and  C_25
REMARK    8  A    between atoms: C_24  and  N_56
REMARK                            x       y       z     vdW  Elec       q    Type
REMARK                         _______ _______ _______ _____ _____    ______ ____
ROOT
ATOM      1  C   UNL     1       9.996  -2.738  -1.404  0.00  0.00    +0.003 A 
ATOM      2  C   UNL     1      10.462  -2.525  -0.147  0.00  0.00    +0.020 A 
ATOM      3  C   UNL     1       9.612  -2.025   0.839  0.00  0.00    +0.020 A 
ATOM      4  C   UNL     1       8.284  -1.759   0.513  0.00  0.00    +0.101 A 
ATOM      5  C   UNL     1       7.844  -1.998  -0.815  0.00  0.00    +0.261 A 
ATOM      6  O   UNL     1       6.688  -1.769  -1.126  0.00  0.00    -0.267 OA
ATOM      7  N   UNL     1       8.708  -2.477  -1.730  0.00  0.00    -0.327 N 
ATOM      8  H   UNL     1       8.402  -2.639  -2.636  0.00  0.00    +0.169 HD
ENDROOT
BRANCH   4   9
ATOM      9  C   UNL     1       7.355  -1.236   1.526  0.00  0.00    +0.250 C 
ATOM     10  O   UNL     1       7.767  -0.929   2.629  0.00  0.00    -0.270 OA
ATOM     11  N   UNL     1       6.047  -1.095   1.233  0.00  0.00    -0.307 N 
ATOM     12  H   UNL     1       5.730  -1.269   0.333  0.00  0.00    +0.149 HD
BRANCH  11  13
ATOM     13  C   UNL     1       5.103  -0.679   2.274  0.00  0.00    +0.140 C 
BRANCH  13  14
ATOM     14  C   UNL     1       3.716  -0.598   1.691  0.00  0.00    -0.027 A 
ATOM     15  C   UNL     1       2.893  -1.709   1.712  0.00  0.00    +0.009 A 
ATOM     16  C   UNL     1       1.620  -1.640   1.179  0.00  0.00    +0.050 A 
ATOM     17  C   UNL     1       1.165  -0.456   0.621  0.00  0.00    +0.166 A 
ATOM     18  C   UNL     1       1.994   0.663   0.600  0.00  0.00    +0.167 A 
ATOM     19  C   UNL     1       3.269   0.586   1.137  0.00  0.00    +0.054 A 
ATOM     20  O   UNL     1       1.323   1.692   0.004  0.00  0.00    -0.453 OA
ATOM     21  C   UNL     1      -0.066   1.311   0.029  0.00  0.00    +0.466 C 
ATOM     22  O   UNL     1      -0.025  -0.129   0.038  0.00  0.00    -0.453 OA
ENDBRANCH  13  14
ENDBRANCH  11  13
ENDBRANCH   4   9
BRANCH   1  23
ATOM     23  C   UNL     1      10.931  -3.275  -2.458  0.00  0.00    -0.024 C 
BRANCH  23  25
ATOM     24  C   UNL     1      10.605  -5.575  -1.776  0.00  0.00    -0.095 C 
ATOM     25  N   UNL     1      10.454  -4.608  -2.884  0.00  0.00    +0.384 N 
ATOM     26  H   UNL     1       9.461  -4.542  -3.136  0.00  0.00    -0.081 HD
BRANCH  25  27
ATOM     27  C   UNL     1      11.221  -5.065  -4.062  0.00  0.00    -0.035 C 
BRANCH  27  28
ATOM     28  C   UNL     1      10.575  -6.313  -4.607  0.00  0.00    -0.026 A 
ATOM     29  C   UNL     1       9.599  -6.412  -5.520  0.00  0.00    +0.017 A 
ATOM     30  C   UNL     1       9.117  -7.729  -5.909  0.00  0.00    -0.011 A 
ATOM     31  C   UNL     1       8.107  -8.063  -6.842  0.00  0.00    +0.009 A 
ATOM     32  C   UNL     1       7.785  -9.361  -7.083  0.00  0.00    +0.001 A 
ATOM     33  C   UNL     1       8.428 -10.402  -6.427  0.00  0.00    +0.001 A 
ATOM     34  C   UNL     1       9.419 -10.118  -5.509  0.00  0.00    +0.015 A 
ATOM     35  C   UNL     1       9.755  -8.806  -5.256  0.00  0.00    +0.020 A 
ATOM     36  S   UNL     1      10.934  -8.010  -4.196  0.00  0.00    -0.095 S 
ENDBRANCH  27  28
ENDBRANCH  25  27
ENDBRANCH  23  25
ENDBRANCH   1  23
TORSDOF 7
