REMARK  Name = ZINC38642219
REMARK  13 active torsions:
REMARK  status: ('A' for Active; 'I' for Inactive)
REMARK    1  A    between atoms: C_1  and  C_2
REMARK    2  A    between atoms: C_2  and  C_3
REMARK    3  A    between atoms: C_3  and  O_4
REMARK    4  A    between atoms: O_4  and  C_5
REMARK    5  A    between atoms: C_8  and  S_12
REMARK    6  A    between atoms: C_10  and  C_11
REMARK    7  A    between atoms: S_12  and  N_15
REMARK    8  A    between atoms: N_15  and  C_16
REMARK    9  A    between atoms: C_16  and  C_17
REMARK   10  A    between atoms: C_17  and  C_19
REMARK   11  A    between atoms: C_17  and  N_29
REMARK   12  A    between atoms: N_29  and  C_30
REMARK   13  A    between atoms: N_29  and  C_31
REMARK                            x       y       z     vdW  Elec       q    Type
REMARK                         _______ _______ _______ _____ _____    ______ ____
ROOT
ATOM      1  N   UNL     1      -6.580  -4.793  -1.729  0.00  0.00    -0.191 NA
ATOM      2  H   UNL     1      -7.355  -4.280  -2.010  0.00  0.00    +0.148 HD
ENDROOT
BRANCH   1   3
ATOM      3  S   UNL     1      -5.845  -4.459  -0.284  0.00  0.00    +0.058 S 
ATOM      4  O   UNL     1      -5.684  -5.701   0.387  0.00  0.00    -0.153 OA
ATOM      5  O   UNL     1      -6.554  -3.369   0.290  0.00  0.00    -0.153 OA
BRANCH   3   9
ATOM      6  C   UNL     1      -1.681  -2.945  -1.219  0.00  0.00    +0.123 A 
ATOM      7  C   UNL     1      -2.739  -2.053  -1.122  0.00  0.00    +0.048 A 
ATOM      8  C   UNL     1      -4.008  -2.517  -0.837  0.00  0.00    +0.032 A 
ATOM      9  C   UNL     1      -4.225  -3.870  -0.648  0.00  0.00    +0.106 A 
ATOM     10  C   UNL     1      -3.172  -4.761  -0.744  0.00  0.00    +0.035 A 
ATOM     11  C   UNL     1      -1.901  -4.302  -1.034  0.00  0.00    -0.007 A 
ATOM     12  C   UNL     1      -0.755  -5.274  -1.145  0.00  0.00    +0.047 C 
BRANCH   6  13
ATOM     13  O   UNL     1      -0.431  -2.490  -1.500  0.00  0.00    -0.492 OA
BRANCH  13  14
ATOM     14  C   UNL     1      -0.278  -1.081  -1.678  0.00  0.00    +0.229 C 
BRANCH  14  16
ATOM     15  C   UNL     1       1.350   0.748  -2.176  0.00  0.00    +0.007 C 
ATOM     16  C   UNL     1       1.186  -0.761  -1.985  0.00  0.00    +0.038 C 
ENDBRANCH  14  16
ENDBRANCH  13  14
ENDBRANCH   6  13
ENDBRANCH   3   9
ENDBRANCH   1   3
BRANCH   1  17
ATOM     17  C   UNL     1      -6.062  -5.863  -2.585  0.00  0.00    +0.095 C 
BRANCH  17  18
ATOM     18  C   UNL     1      -7.124  -6.252  -3.615  0.00  0.00    -0.022 C 
BRANCH  18  19
ATOM     19  C   UNL     1      -8.316  -6.846  -2.909  0.00  0.00    -0.052 A 
ATOM     20  C   UNL     1      -9.425  -6.089  -2.684  0.00  0.00    +0.002 A 
ATOM     21  C   UNL     1     -10.536  -6.620  -2.033  0.00  0.00    +0.001 A 
ATOM     22  C   UNL     1     -10.545  -7.911  -1.602  0.00  0.00    +0.008 A 
ATOM     23  C   UNL     1      -9.418  -8.723  -1.816  0.00  0.00    -0.018 A 
ATOM     24  C   UNL     1      -8.290  -8.184  -2.484  0.00  0.00    -0.016 A 
ATOM     25  C   UNL     1      -7.166  -8.999  -2.703  0.00  0.00    +0.009 A 
ATOM     26  C   UNL     1      -7.177 -10.291  -2.278  0.00  0.00    +0.001 A 
ATOM     27  C   UNL     1      -8.289 -10.823  -1.626  0.00  0.00    +0.001 A 
ATOM     28  C   UNL     1      -9.390 -10.060  -1.385  0.00  0.00    +0.008 A 
ENDBRANCH  18  19
BRANCH  18  29
ATOM     29  N   UNL     1      -7.542  -5.058  -4.362  0.00  0.00    +0.381 N 
ATOM     30  C   UNL     1      -6.361  -4.403  -4.939  0.00  0.00    -0.096 C 
ATOM     31  C   UNL     1      -8.459  -5.452  -5.441  0.00  0.00    -0.096 C 
ATOM     32  H   UNL     1      -8.011  -4.418  -3.739  0.00  0.00    -0.082 HD
ENDBRANCH  18  29
ENDBRANCH  17  18
ENDBRANCH   1  17
TORSDOF 9
