REMARK  Name = ZINC00897483
REMARK  6 active torsions:
REMARK  status: ('A' for Active; 'I' for Inactive)
REMARK    1  A    between atoms: C_1  and  C_2
REMARK    2  A    between atoms: C_12  and  C_14
REMARK    3  A    between atoms: C_14  and  S_15
REMARK    4  A    between atoms: S_15  and  C_16
REMARK    5  A    between atoms: N_27  and  C_28
REMARK    6  A    between atoms: C_28  and  C_29
REMARK                            x       y       z     vdW  Elec       q    Type
REMARK                         _______ _______ _______ _____ _____    ______ ____
ROOT
ATOM      1  C   UNL     1       1.680  -1.070   6.313  0.00  0.00    +0.180 C 
ATOM      2  N   UNL     1       2.675  -1.885   6.089  0.00  0.00    -0.158 NA
ATOM      3  N   UNL     1       3.157  -2.329   7.327  0.00  0.00    -0.221 N 
ATOM      4  C   UNL     1       2.413  -1.750   8.281  0.00  0.00    +0.119 C 
ATOM      5  C   UNL     1       2.566  -1.930   9.728  0.00  0.00    +0.013 C 
ATOM      6  C   UNL     1       3.058  -3.142  10.235  0.00  0.00    +0.015 C 
ATOM      7  C   UNL     1       3.200  -3.309  11.580  0.00  0.00    +0.051 C 
ATOM      8  C   UNL     1       2.854  -2.271  12.456  0.00  0.00    +0.179 C 
ATOM      9  O   UNL     1       2.993  -2.435  13.774  0.00  0.00    -0.288 OA
ATOM     10  C   UNL     1       2.362  -1.059  11.949  0.00  0.00    +0.051 C 
ATOM     11  C   UNL     1       2.225  -0.889  10.604  0.00  0.00    +0.015 C 
ATOM     12  N   UNL     1       1.500  -0.965   7.668  0.00  0.00    -0.258 N 
ATOM     13  H   UNL     1       3.894  -2.944   7.469  0.00  0.00    +0.176 HD
ENDROOT
BRANCH   1  14
ATOM     14  S   UNL     1       0.732  -0.240   5.082  0.00  0.00    -0.079 S 
BRANCH  14  15
ATOM     15  C   UNL     1       1.462  -0.796   3.517  0.00  0.00    +0.173 C 
BRANCH  15  26
ATOM     16  C   UNL     1       0.608   1.668  -0.100  0.00  0.00    +0.029 C 
ATOM     17  C   UNL     1       0.475   0.144  -0.099  0.00  0.00    +0.083 C 
ATOM     18  C   UNL     1       1.246  -0.460  -1.284  0.00  0.00    +0.059 C 
ATOM     19  C   UNL     1       2.290  -1.349  -0.647  0.00  0.00    -0.024 A 
ATOM     20  C   UNL     1       3.268  -2.145  -1.210  0.00  0.00    +0.005 A 
ATOM     21  C   UNL     1       4.118  -2.878  -0.403  0.00  0.00    +0.000 A 
ATOM     22  C   UNL     1       3.986  -2.812   0.972  0.00  0.00    +0.002 A 
ATOM     23  C   UNL     1       3.012  -2.019   1.539  0.00  0.00    +0.024 A 
ATOM     24  C   UNL     1       2.150  -1.276   0.730  0.00  0.00    +0.040 A 
ATOM     25  N   UNL     1       1.105  -0.420   1.099  0.00  0.00    -0.267 N 
ATOM     26  C   UNL     1       0.733  -0.152   2.366  0.00  0.00    +0.230 C 
ATOM     27  O   UNL     1      -0.188   0.608   2.580  0.00  0.00    -0.274 OA
ENDBRANCH  15  26
ENDBRANCH  14  15
ENDBRANCH   1  14
BRANCH  12  28
ATOM     28  C   UNL     1       0.489  -0.143   8.337  0.00  0.00    +0.188 C 
BRANCH  28  29
ATOM     29  C   UNL     1      -0.701  -0.998   8.688  0.00  0.00    +0.122 A 
ATOM     30  C   UNL     1      -0.874  -1.671   9.840  0.00  0.00    +0.046 A 
ATOM     31  C   UNL     1      -2.118  -2.335   9.744  0.00  0.00    +0.041 A 
ATOM     32  C   UNL     1      -2.632  -2.028   8.540  0.00  0.00    +0.195 A 
ATOM     33  O   UNL     1      -1.772  -1.213   7.907  0.00  0.00    -0.466 OA
ENDBRANCH  28  29
ENDBRANCH  12  28
TORSDOF 5
