REMARK  Name = ZINC59453830
REMARK  3 active torsions:
REMARK  status: ('A' for Active; 'I' for Inactive)
REMARK    1  A    between atoms: C_1  and  C_2
REMARK    2  A    between atoms: C_2  and  C_15
REMARK    3  A    between atoms: N_6  and  C_8
REMARK                            x       y       z     vdW  Elec       q    Type
REMARK                         _______ _______ _______ _____ _____    ______ ____
ROOT
ATOM      1  C   UNL     1      -0.310   1.358   0.218  0.00  0.00    +0.056 C 
ATOM      2  C   UNL     1      -0.074  -0.136  -0.015  0.00  0.00    +0.130 C 
ATOM      3  N   UNL     1       0.872  -0.341  -1.124  0.00  0.00    -0.302 N 
ATOM      4  C   UNL     1       1.936  -0.986  -0.613  0.00  0.00    +0.153 C 
ATOM      5  S   UNL     1       3.309  -1.448  -1.526  0.00  0.00    -0.017 S 
ATOM      6  N   UNL     1       1.790  -1.223   0.697  0.00  0.00    -0.214 N 
ATOM      7  N   UNL     1       0.596  -0.742   1.152  0.00  0.00    -0.207 NA
ATOM      8  H   UNL     1       0.751  -0.065  -2.046  0.00  0.00    +0.150 HD
ATOM      9  H   UNL     1       0.035  -1.481   1.548  0.00  0.00    +0.148 HD
ENDROOT
BRANCH   6  10
ATOM     10  C   UNL     1       2.736  -1.877   1.494  0.00  0.00    +0.052 A 
ATOM     11  C   UNL     1       3.114  -1.332   2.714  0.00  0.00    +0.026 A 
ATOM     12  C   UNL     1       4.048  -1.980   3.499  0.00  0.00    +0.022 A 
ATOM     13  C   UNL     1       4.606  -3.171   3.071  0.00  0.00    +0.041 A 
ATOM     14  C   UNL     1       4.232  -3.717   1.855  0.00  0.00    +0.022 A 
ATOM     15  C   UNL     1       3.295  -3.075   1.069  0.00  0.00    +0.026 A 
ATOM     16 CL   UNL     1       5.780  -3.983   4.059  0.00  0.00    -0.084 Cl
ENDBRANCH   6  10
BRANCH   2  17
ATOM     17  C   UNL     1      -1.379  -0.836  -0.296  0.00  0.00    +0.029 A 
ATOM     18  C   UNL     1      -1.997  -1.046  -1.484  0.00  0.00    +0.015 A 
ATOM     19  C   UNL     1      -3.203  -1.722  -1.502  0.00  0.00    +0.008 A 
ATOM     20  C   UNL     1      -3.732  -2.155  -0.331  0.00  0.00    +0.045 A 
ATOM     21  S   UNL     1      -2.508  -1.611   0.850  0.00  0.00    -0.098 S 
ENDBRANCH   2  17
TORSDOF 2
