REMARK  Name = ZINC02457855
REMARK  10 active torsions:
REMARK  status: ('A' for Active; 'I' for Inactive)
REMARK    1  A    between atoms: C_1  and  C_2
REMARK    2  A    between atoms: C_2  and  C_3
REMARK    3  A    between atoms: C_3  and  C_5
REMARK    4  A    between atoms: C_3  and  N_6
REMARK    5  A    between atoms: C_7  and  C_9
REMARK    6  A    between atoms: C_9  and  O_30
REMARK    7  A    between atoms: N_19  and  C_20
REMARK    8  A    between atoms: C_23  and  O_26
REMARK    9  A    between atoms: O_26  and  C_27
REMARK   10  A    between atoms: C_27  and  C_28
REMARK                            x       y       z     vdW  Elec       q    Type
REMARK                         _______ _______ _______ _____ _____    ______ ____
ROOT
ATOM      1  C   UNL     1      -1.349   6.254  -0.064  0.00  0.00    +0.247 C 
ATOM      2  C   UNL     1      -1.277   7.764  -0.049  0.00  0.00    +0.034 A 
ATOM      3  C   UNL     1      -2.414   8.534  -0.133  0.00  0.00    +0.025 A 
ATOM      4  C   UNL     1      -2.309   9.916  -0.116  0.00  0.00    +0.018 A 
ATOM      5  C   UNL     1      -1.066  10.515  -0.015  0.00  0.00    +0.017 A 
ATOM      6  C   UNL     1       0.076   9.742   0.069  0.00  0.00    +0.025 A 
ATOM      7  C   UNL     1      -0.024   8.357   0.053  0.00  0.00    +0.043 A 
ATOM      8  N   UNL     1       1.118   7.560   0.137  0.00  0.00    -0.269 N 
ATOM      9  C   UNL     1       1.074   6.221   0.131  0.00  0.00    +0.314 C 
ATOM     10  O   UNL     1       2.120   5.607   0.214  0.00  0.00    -0.252 OA
ATOM     11  N   UNL     1      -0.073   5.525   0.032  0.00  0.00    -0.214 N 
ATOM     12 BR   UNL     1      -3.866  10.983  -0.233  0.00  0.00    -0.050 Br
ATOM     13  H   UNL     1       1.982   7.994   0.207  0.00  0.00    +0.156 HD
ENDROOT
BRANCH  11  14
ATOM     14  C   UNL     1      -0.054   4.124   0.024  0.00  0.00    +0.042 A 
ATOM     15  C   UNL     1      -0.089   3.435  -1.181  0.00  0.00    +0.027 A 
ATOM     16  C   UNL     1      -0.071   2.054  -1.187  0.00  0.00    +0.047 A 
ATOM     17  C   UNL     1      -0.017   1.355   0.010  0.00  0.00    +0.121 A 
ATOM     18  C   UNL     1       0.013   2.043   1.214  0.00  0.00    +0.047 A 
ATOM     19  C   UNL     1      -0.001   3.424   1.222  0.00  0.00    +0.027 A 
BRANCH  17  20
ATOM     20  O   UNL     1       0.001  -0.004   0.003  0.00  0.00    -0.492 OA
BRANCH  20  21
ATOM     21  C   UNL     1       0.057  -0.659   1.272  0.00  0.00    +0.225 C 
ATOM     22  C   UNL     1       0.070  -2.174   1.064  0.00  0.00    +0.048 C 
ENDBRANCH  20  21
ENDBRANCH  17  20
ENDBRANCH  11  14
BRANCH   1  24
ATOM     23  N   UNL     1      -1.804   6.010   2.356  0.00  0.00    -0.309 N 
ATOM     24  C   UNL     1      -2.220   5.820   1.087  0.00  0.00    +0.269 C 
ATOM     25  O   UNL     1      -3.293   5.298   0.873  0.00  0.00    -0.270 OA
ATOM     26  H   UNL     1      -0.946   6.427   2.527  0.00  0.00    +0.149 HD
BRANCH  23  27
ATOM     27  C   UNL     1      -2.650   5.588   3.474  0.00  0.00    +0.070 C 
ATOM     28  C   UNL     1      -2.402   4.107   3.771  0.00  0.00    +0.028 C 
BRANCH  27  30
ATOM     29  C   UNL     1      -2.676   7.884   4.459  0.00  0.00    +0.005 C 
ATOM     30  C   UNL     1      -2.311   6.420   4.713  0.00  0.00    +0.018 C 
ENDBRANCH  27  30
ENDBRANCH  23  27
ENDBRANCH   1  24
BRANCH   1  31
ATOM     31  O   UNL     1      -1.995   5.856  -1.274  0.00  0.00    -0.360 OA
ATOM     32  H   UNL     1      -2.848   6.285  -1.425  0.00  0.00    +0.213 HD
ENDBRANCH   1  31
TORSDOF 7
