REMARK  Name = ZINC17173899
REMARK  7 active torsions:
REMARK  status: ('A' for Active; 'I' for Inactive)
REMARK    1  A    between atoms: C_3  and  S_17
REMARK    2  A    between atoms: C_6  and  C_7
REMARK    3  A    between atoms: C_10  and  S_13
REMARK    4  A    between atoms: S_13  and  O_15
REMARK    5  A    between atoms: O_15  and  N_16
REMARK    6  A    between atoms: S_17  and  O_19
REMARK    7  A    between atoms: O_19  and  N_20
REMARK                            x       y       z     vdW  Elec       q    Type
REMARK                         _______ _______ _______ _____ _____    ______ ____
ROOT
ATOM      1  C   UNL     1       2.507  -0.323  -0.019  0.00  0.00    +0.010 A 
ATOM      2  C   UNL     1       3.717  -0.988  -0.041  0.00  0.00    +0.020 A 
ATOM      3  C   UNL     1       4.901  -0.274  -0.048  0.00  0.00    +0.068 A 
ATOM      4  C   UNL     1       4.881   1.109  -0.040  0.00  0.00    +0.020 A 
ATOM      5  C   UNL     1       3.677   1.784  -0.024  0.00  0.00    +0.010 A 
ATOM      6  C   UNL     1       2.481   1.070  -0.016  0.00  0.00    -0.018 A 
ENDROOT
BRANCH   6   7
ATOM      7  C   UNL     1       1.184   1.790   0.000  0.00  0.00    -0.018 A 
ATOM      8  C   UNL     1      -0.013   1.076   0.008  0.00  0.00    +0.010 A 
ATOM      9  C   UNL     1      -1.216   1.751   0.017  0.00  0.00    +0.020 A 
ATOM     10  C   UNL     1      -1.236   3.134   0.031  0.00  0.00    +0.068 A 
ATOM     11  C   UNL     1      -0.052   3.848   0.023  0.00  0.00    +0.020 A 
ATOM     12  C   UNL     1       1.157   3.183   0.008  0.00  0.00    +0.010 A 
BRANCH  10  13
ATOM     13  S   UNL     1      -2.777   3.989   0.050  0.00  0.00    +0.207 S 
ATOM     14  O   UNL     1      -2.439   5.296   0.494  0.00  0.00    -0.221 OA
BRANCH  13  15
ATOM     15  O   UNL     1      -3.113   4.176  -1.423  0.00  0.00    -0.198 OA
BRANCH  15  16
ATOM     16  N   UNL     1      -4.375   4.877  -1.661  0.00  0.00    -0.199 NA
ATOM     17  H   UNL     1      -4.543   4.970  -2.744  0.00  0.00    +0.151 HD
ATOM     18  H   UNL     1      -5.201   4.308  -1.209  0.00  0.00    +0.151 HD
ENDBRANCH  15  16
ENDBRANCH  13  15
ENDBRANCH  10  13
ENDBRANCH   6   7
BRANCH   3  19
ATOM     19  S   UNL     1       6.442  -1.129  -0.068  0.00  0.00    +0.207 S 
ATOM     20  O   UNL     1       6.104  -2.436  -0.512  0.00  0.00    -0.221 OA
BRANCH  19  21
ATOM     21  O   UNL     1       6.778  -1.316   1.405  0.00  0.00    -0.198 OA
BRANCH  21  22
ATOM     22  N   UNL     1       8.040  -2.017   1.642  0.00  0.00    -0.199 NA
ATOM     23  H   UNL     1       8.209  -2.111   2.725  0.00  0.00    +0.151 HD
ATOM     24  H   UNL     1       7.994  -3.019   1.190  0.00  0.00    +0.151 HD
ENDBRANCH  21  22
ENDBRANCH  19  21
ENDBRANCH   3  19
TORSDOF 7
