REMARK  Name = ZINC38984297
REMARK  9 active torsions:
REMARK  status: ('A' for Active; 'I' for Inactive)
REMARK    1  A    between atoms: C_1  and  C_2
REMARK    2  A    between atoms: C_2  and  C_3
REMARK    3  A    between atoms: C_3  and  O_4
REMARK    4  A    between atoms: O_4  and  C_5
REMARK    5  A    between atoms: C_5  and  C_7
REMARK    6  A    between atoms: C_10  and  N_13
REMARK    7  A    between atoms: N_13  and  C_14
REMARK    8  A    between atoms: N_17  and  S_18
REMARK    9  A    between atoms: S_18  and  C_21
REMARK                            x       y       z     vdW  Elec       q    Type
REMARK                         _______ _______ _______ _____ _____    ______ ____
ROOT
ATOM      1  C   UNL     1       2.366  -8.831   3.551  0.00  0.00    +0.237 C 
ATOM      2  C   UNL     1       3.343  -9.783   2.897  0.00  0.00    +0.192 C 
ATOM      3  N   UNL     1       4.218  -9.345   2.041  0.00  0.00    -0.110 NA
ATOM      4  N   UNL     1       3.294 -11.086   3.215  0.00  0.00    -0.226 NA
ATOM      5  C   UNL     1       2.418 -11.554   4.079  0.00  0.00    +0.089 A 
ATOM      6  C   UNL     1       2.395 -12.937   4.391  0.00  0.00    +0.030 A 
ATOM      7  C   UNL     1       1.498 -13.423   5.277  0.00  0.00    +0.002 A 
ATOM      8  C   UNL     1       0.556 -12.609   5.928  0.00  0.00    +0.002 A 
ATOM      9  C   UNL     1       0.491 -11.278   5.703  0.00  0.00    +0.027 A 
ATOM     10  C   UNL     1       1.434 -10.671   4.753  0.00  0.00    +0.063 A 
ATOM     11  N   UNL     1       1.402  -9.391   4.511  0.00  0.00    -0.359 N 
ATOM     12  H   UNL     1       0.756  -8.819   4.955  0.00  0.00    +0.162 HD
ENDROOT
BRANCH   3  13
ATOM     13  S   UNL     1       5.282 -10.397   1.332  0.00  0.00    +0.100 S 
ATOM     14  O   UNL     1       6.128 -10.877   2.368  0.00  0.00    -0.146 OA
ATOM     15  O   UNL     1       4.510 -11.267   0.515  0.00  0.00    -0.146 OA
BRANCH  13  16
ATOM     16  C   UNL     1       6.300  -9.456   0.245  0.00  0.00    +0.113 A 
ATOM     17  C   UNL     1       5.918  -9.269  -1.071  0.00  0.00    +0.029 A 
ATOM     18  C   UNL     1       6.717  -8.530  -1.924  0.00  0.00    +0.002 A 
ATOM     19  C   UNL     1       7.897  -7.979  -1.461  0.00  0.00    +0.000 A 
ATOM     20  C   UNL     1       8.278  -8.165  -0.145  0.00  0.00    +0.002 A 
ATOM     21  C   UNL     1       7.477  -8.900   0.709  0.00  0.00    +0.029 A 
ENDBRANCH  13  16
ENDBRANCH   3  13
BRANCH   1  22
ATOM     22  N   UNL     1       1.606  -8.170   2.487  0.00  0.00    -0.318 N 
ATOM     23  H   UNL     1       1.172  -8.700   1.800  0.00  0.00    +0.148 HD
BRANCH  22  27
ATOM     24  C   UNL     1       1.311  -4.025   2.412  0.00  0.00    +0.059 A 
ATOM     25  C   UNL     1       1.884  -4.667   3.514  0.00  0.00    +0.017 A 
ATOM     26  C   UNL     1       1.980  -6.034   3.536  0.00  0.00    +0.024 A 
ATOM     27  C   UNL     1       1.507  -6.784   2.462  0.00  0.00    +0.029 A 
ATOM     28  C   UNL     1       0.935  -6.148   1.363  0.00  0.00    +0.024 A 
ATOM     29  C   UNL     1       0.831  -4.781   1.338  0.00  0.00    +0.017 A 
BRANCH  24  30
ATOM     30  C   UNL     1       1.206  -2.555   2.385  0.00  0.00    +0.339 C 
ATOM     31  O   UNL     1       0.703  -1.999   1.429  0.00  0.00    -0.245 OA
BRANCH  30  32
ATOM     32  O   UNL     1       1.668  -1.828   3.421  0.00  0.00    -0.461 OA
BRANCH  32  33
ATOM     33  C   UNL     1       1.534  -0.408   3.329  0.00  0.00    +0.232 C 
BRANCH  33  35
ATOM     34  C   UNL     1       1.967   1.762   4.488  0.00  0.00    +0.007 C 
ATOM     35  C   UNL     1       2.111   0.242   4.588  0.00  0.00    +0.038 C 
ENDBRANCH  33  35
ENDBRANCH  32  33
ENDBRANCH  30  32
ENDBRANCH  24  30
ENDBRANCH  22  27
ENDBRANCH   1  22
TORSDOF 8
