REMARK  Name = ZINC08780026
REMARK  7 active torsions:
REMARK  status: ('A' for Active; 'I' for Inactive)
REMARK    1  A    between atoms: C_1  and  C_2
REMARK    2  A    between atoms: C_7  and  N_8
REMARK    3  A    between atoms: C_9  and  S_13
REMARK    4  A    between atoms: S_13  and  C_14
REMARK    5  A    between atoms: C_14  and  C_15
REMARK    6  A    between atoms: C_19  and  C_25
REMARK    7  A    between atoms: C_20  and  C_24
REMARK                            x       y       z     vdW  Elec       q    Type
REMARK                         _______ _______ _______ _____ _____    ______ ____
ROOT
ATOM      1  C   UNL     1       1.008  -1.371   7.133  0.00  0.00    +0.153 C 
ENDROOT
BRANCH   1   2
ATOM      2  C   UNL     1       1.208  -2.773   7.648  0.00  0.00    +0.143 A 
ATOM      3  N   UNL     1       0.177  -3.433   8.144  0.00  0.00    -0.216 NA
ATOM      4  C   UNL     1       0.288  -4.666   8.611  0.00  0.00    +0.128 A 
ATOM      5  C   UNL     1       1.557  -5.307   8.581  0.00  0.00    +0.050 A 
ATOM      6  C   UNL     1       1.937  -6.637   9.026  0.00  0.00    -0.028 A 
ATOM      7  C   UNL     1       3.212  -7.031   8.896  0.00  0.00    -0.008 A 
ATOM      8  S   UNL     1       4.011  -5.621   8.152  0.00  0.00    -0.074 S 
ATOM      9  C   UNL     1       2.610  -4.540   8.037  0.00  0.00    +0.114 A 
ATOM     10  N   UNL     1       2.408  -3.317   7.588  0.00  0.00    -0.224 NA
ATOM     11  C   UNL     1       3.824  -8.352   9.284  0.00  0.00    +0.052 C 
ATOM     12  C   UNL     1       0.910  -7.561   9.628  0.00  0.00    +0.045 C 
ATOM     13  N   UNL     1      -0.816  -5.323   9.124  0.00  0.00    -0.343 N 
ATOM     14  H   UNL     1      -1.596  -4.817   9.402  0.00  0.00    +0.144 HD
ATOM     15  H   UNL     1      -0.811  -6.289   9.205  0.00  0.00    +0.144 HD
ENDBRANCH   1   2
BRANCH   1  16
ATOM     16  S   UNL     1       0.568  -1.430   5.374  0.00  0.00    -0.076 S 
BRANCH  16  18
ATOM     17  N   UNL     1       0.037   0.740   3.701  0.00  0.00    -0.187 N 
ATOM     18  C   UNL     1       0.370   0.263   4.927  0.00  0.00    +0.214 A 
ATOM     19  N   UNL     1       0.516   1.303   5.720  0.00  0.00    -0.101 NA
ATOM     20  N   UNL     1       0.299   2.393   5.076  0.00  0.00    -0.022 NA
ATOM     21  N   UNL     1       0.009   2.138   3.846  0.00  0.00    -0.038 NA
BRANCH  17  28
ATOM     22  C   UNL     1      -2.579   0.841   2.586  0.00  0.00    +0.046 C 
ATOM     23  C   UNL     1      -1.480   0.020   1.963  0.00  0.00    -0.025 A 
ATOM     24  C   UNL     1      -1.726  -0.708   0.815  0.00  0.00    +0.005 A 
ATOM     25  C   UNL     1      -0.718  -1.461   0.242  0.00  0.00    +0.000 A 
ATOM     26  C   UNL     1       0.540  -1.488   0.817  0.00  0.00    +0.002 A 
ATOM     27  C   UNL     1       0.792  -0.763   1.965  0.00  0.00    +0.028 A 
ATOM     28  C   UNL     1      -0.217  -0.001   2.539  0.00  0.00    +0.073 A 
ENDBRANCH  17  28
ENDBRANCH  16  18
ENDBRANCH   1  16
TORSDOF 4
