REMARK  Name = ZINC63437337
REMARK  18 active torsions:
REMARK  status: ('A' for Active; 'I' for Inactive)
REMARK    1  A    between atoms: C_1  and  C_2
REMARK    2  A    between atoms: C_2  and  C_3
REMARK    3  A    between atoms: C_3  and  C_4
REMARK    4  A    between atoms: C_4  and  C_5
REMARK    5  A    between atoms: C_5  and  C_6
REMARK    6  A    between atoms: C_6  and  C_7
REMARK    7  A    between atoms: C_10  and  C_13
REMARK    8  A    between atoms: N_15  and  C_16
REMARK    9  A    between atoms: C_16  and  C_18
REMARK   10  A    between atoms: C_16  and  C_28
REMARK   11  A    between atoms: C_18  and  C_19
REMARK   12  A    between atoms: N_30  and  C_31
REMARK   13  A    between atoms: C_31  and  C_33
REMARK   14  A    between atoms: C_31  and  C_36
REMARK   15  A    between atoms: C_33  and  C_34
REMARK   16  A    between atoms: C_33  and  C_35
REMARK   17  A    between atoms: C_36  and  O_38
REMARK   18  A    between atoms: O_38  and  C_39
REMARK                            x       y       z     vdW  Elec       q    Type
REMARK                         _______ _______ _______ _____ _____    ______ ____
ROOT
ATOM      1  C   UNL     1      -4.326  -8.703   3.459  0.00  0.00    +0.163 C 
ENDROOT
BRANCH   1   4
ATOM      2  C   UNL     1      -6.422  -7.517   3.087  0.00  0.00    +0.217 C 
ATOM      3  O   UNL     1      -6.712  -7.722   4.247  0.00  0.00    -0.275 OA
ATOM      4  N   UNL     1      -5.229  -7.922   2.609  0.00  0.00    -0.303 N 
ATOM      5  H   UNL     1      -4.968  -7.696   1.703  0.00  0.00    +0.149 HD
BRANCH   2   9
ATOM      6  C   UNL     1      -7.439  -4.165   3.440  0.00  0.00    -0.011 C 
ATOM      7  C   UNL     1      -8.126  -5.370   4.087  0.00  0.00    +0.004 C 
ATOM      8  C   UNL     1      -8.599  -6.333   2.997  0.00  0.00    +0.013 C 
ATOM      9  C   UNL     1      -7.396  -6.810   2.180  0.00  0.00    +0.075 C 
ATOM     10  C   UNL     1      -6.709  -5.606   1.534  0.00  0.00    +0.013 C 
ATOM     11  C   UNL     1      -6.236  -4.643   2.624  0.00  0.00    +0.004 C 
BRANCH   6  12
ATOM     12  C   UNL     1      -6.965  -3.202   4.531  0.00  0.00    +0.003 C 
BRANCH  12  13
ATOM     13  C   UNL     1      -8.178  -2.609   5.249  0.00  0.00    +0.000 C 
BRANCH  13  14
ATOM     14  C   UNL     1      -7.705  -1.645   6.339  0.00  0.00    +0.000 C 
BRANCH  14  15
ATOM     15  C   UNL     1      -8.918  -1.052   7.058  0.00  0.00    -0.000 C 
BRANCH  15  17
ATOM     16  C   UNL     1      -9.658   0.505   8.867  0.00  0.00    +0.004 C 
ATOM     17  C   UNL     1      -8.445  -0.089   8.148  0.00  0.00    -0.003 C 
ENDBRANCH  15  17
ENDBRANCH  14  15
ENDBRANCH  13  14
ENDBRANCH  12  13
ENDBRANCH   6  12
ENDBRANCH   2   9
ENDBRANCH   1   4
BRANCH   1  18
ATOM     18  C   UNL     1      -4.745 -10.150   3.439  0.00  0.00    +0.234 C 
ATOM     19  O   UNL     1      -5.703 -10.496   2.781  0.00  0.00    -0.274 OA
ATOM     20  N   UNL     1      -4.055 -11.061   4.154  0.00  0.00    -0.301 N 
ATOM     21  H   UNL     1      -3.289 -10.785   4.681  0.00  0.00    +0.150 HD
BRANCH  20  22
ATOM     22  C   UNL     1      -4.462 -12.468   4.135  0.00  0.00    +0.184 C 
BRANCH  22  23
ATOM     23  C   UNL     1      -5.558 -12.696   5.178  0.00  0.00    +0.014 C 
ATOM     24  C   UNL     1      -6.763 -11.812   4.853  0.00  0.00    +0.009 C 
ATOM     25  C   UNL     1      -5.983 -14.166   5.159  0.00  0.00    +0.009 C 
ENDBRANCH  22  23
BRANCH  22  26
ATOM     26  C   UNL     1      -3.274 -13.339   4.455  0.00  0.00    +0.328 C 
ATOM     27  O   UNL     1      -2.198 -12.836   4.677  0.00  0.00    -0.249 OA
BRANCH  26  28
ATOM     28  O   UNL     1      -3.412 -14.674   4.495  0.00  0.00    -0.467 OA
ATOM     29  C   UNL     1      -2.244 -15.437   4.805  0.00  0.00    +0.280 C 
ENDBRANCH  26  28
ENDBRANCH  22  26
ENDBRANCH  20  22
ENDBRANCH   1  18
BRANCH   1  30
ATOM     30  C   UNL     1      -2.895  -8.579   2.932  0.00  0.00    +0.065 C 
BRANCH  30  31
ATOM     31  C   UNL     1      -2.435  -7.150   3.061  0.00  0.00    -0.039 C 
ATOM     32  C   UNL     1      -1.742  -6.608   4.089  0.00  0.00    -0.001 A 
ATOM     33  C   UNL     1      -1.232  -7.165   5.347  0.00  0.00    +0.010 A 
ATOM     34  C   UNL     1      -0.561  -6.356   6.198  0.00  0.00    +0.001 A 
ATOM     35  C   UNL     1      -0.341  -5.002   5.909  0.00  0.00    +0.002 A 
ATOM     36  C   UNL     1      -0.780  -4.418   4.774  0.00  0.00    +0.026 A 
ATOM     37  C   UNL     1      -1.497  -5.175   3.807  0.00  0.00    +0.043 A 
ATOM     38  N   UNL     1      -2.017  -4.844   2.650  0.00  0.00    -0.380 N 
ATOM     39  C   UNL     1      -2.647  -6.032   2.064  0.00  0.00    +0.144 C 
ATOM     40  H   UNL     1      -1.988  -3.962   2.248  0.00  0.00    +0.160 HD
ENDBRANCH  30  31
ENDBRANCH   1  30
TORSDOF 14
