REMARK  Name = ZINC20559160
REMARK  15 active torsions:
REMARK  status: ('A' for Active; 'I' for Inactive)
REMARK    1  A    between atoms: C_1  and  C_2
REMARK    2  A    between atoms: C_2  and  O_3
REMARK    3  A    between atoms: O_3  and  C_4
REMARK    4  A    between atoms: C_4  and  C_6
REMARK    5  A    between atoms: C_7  and  C_19
REMARK    6  A    between atoms: C_12  and  C_14
REMARK    7  A    between atoms: C_19  and  N_20
REMARK    8  A    between atoms: N_23  and  C_26
REMARK    9  A    between atoms: C_26  and  C_27
REMARK   10  A    between atoms: C_30  and  O_37
REMARK   11  A    between atoms: C_31  and  O_35
REMARK   12  A    between atoms: C_32  and  O_33
REMARK   13  A    between atoms: O_33  and  C_34
REMARK   14  A    between atoms: O_35  and  C_36
REMARK   15  A    between atoms: O_37  and  C_38
REMARK                            x       y       z     vdW  Elec       q    Type
REMARK                         _______ _______ _______ _____ _____    ______ ____
ROOT
ATOM      1  C   UNL     1       2.694   5.991  -2.967  0.00  0.00    +0.135 C 
ENDROOT
BRANCH   1   3
ATOM      2  C   UNL     1       2.619   4.270  -1.198  0.00  0.00    +0.080 C 
ATOM      3  C   UNL     1       2.553   5.579  -1.524  0.00  0.00    +0.038 C 
ATOM      4  N   UNL     1       2.363   6.535  -0.568  0.00  0.00    -0.271 N 
ATOM      5  C   UNL     1       2.228   6.264   0.736  0.00  0.00    +0.304 C 
ATOM      6  O   UNL     1       2.062   7.183   1.514  0.00  0.00    -0.252 OA
ATOM      7  N   UNL     1       2.270   5.005   1.215  0.00  0.00    -0.288 N 
ATOM      8  C   UNL     1       2.473   3.899   0.264  0.00  0.00    +0.150 C 
ATOM      9  H   UNL     1       2.312   7.596  -0.854  0.00  0.00    +0.156 HD
ATOM     10  H   UNL     1       2.157   4.793   2.288  0.00  0.00    +0.151 HD
BRANCH   8  11
ATOM     11  C   UNL     1       1.303   2.957   0.390  0.00  0.00    +0.015 A 
ATOM     12  C   UNL     1       1.299   1.603   0.434  0.00  0.00    +0.013 A 
ATOM     13  C   UNL     1       0.092   0.940   0.554  0.00  0.00    +0.008 A 
ATOM     14  C   UNL     1      -1.052   1.664   0.619  0.00  0.00    +0.045 A 
ATOM     15  S   UNL     1      -0.436   3.337   0.520  0.00  0.00    -0.099 S 
ENDBRANCH   8  11
BRANCH   2  16
ATOM     16  C   UNL     1       2.816   3.279  -2.188  0.00  0.00    +0.339 C 
ATOM     17  O   UNL     1       1.869   2.641  -2.608  0.00  0.00    -0.245 OA
BRANCH  16  18
ATOM     18  O   UNL     1       4.056   3.040  -2.666  0.00  0.00    -0.462 OA
BRANCH  18  20
ATOM     19  C   UNL     1       5.648   1.899  -4.081  0.00  0.00    +0.048 C 
ATOM     20  C   UNL     1       4.181   2.025  -3.664  0.00  0.00    +0.229 C 
ENDBRANCH  18  20
ENDBRANCH  16  18
ENDBRANCH   2  16
ENDBRANCH   1   3
BRANCH   1  21
ATOM     21  N   UNL     1       1.439   6.601  -3.426  0.00  0.00    -0.300 NA
ATOM     22  C   UNL     1       0.351   5.614  -3.452  0.00  0.00    +0.066 C 
ATOM     23  C   UNL     1      -0.953   6.305  -3.858  0.00  0.00    -0.063 C 
ATOM     24  N   UNL     1      -0.782   6.931  -5.176  0.00  0.00    +0.384 N 
ATOM     25  C   UNL     1       0.305   7.919  -5.150  0.00  0.00    -0.063 C 
ATOM     26  C   UNL     1       1.609   7.228  -4.745  0.00  0.00    +0.066 C 
ATOM     27  H   UNL     1      -0.509   6.144  -5.894  0.00  0.00    -0.081 HD
BRANCH  24  28
ATOM     28  C   UNL     1      -2.037   7.542  -5.636  0.00  0.00    -0.039 C 
BRANCH  28  29
ATOM     29  C   UNL     1      -3.174   6.577  -5.418  0.00  0.00    -0.018 A 
ATOM     30  C   UNL     1      -3.656   5.829  -6.476  0.00  0.00    +0.009 A 
ATOM     31  C   UNL     1      -4.695   4.938  -6.281  0.00  0.00    +0.050 A 
ATOM     32  C   UNL     1      -5.265   4.800  -5.025  0.00  0.00    +0.165 A 
ATOM     33  C   UNL     1      -4.787   5.554  -3.960  0.00  0.00    +0.204 A 
ATOM     34  C   UNL     1      -3.739   6.444  -4.159  0.00  0.00    +0.167 A 
BRANCH  34  35
ATOM     35  O   UNL     1      -3.267   7.184  -3.120  0.00  0.00    -0.491 OA
ATOM     36  C   UNL     1      -3.957   8.401  -2.824  0.00  0.00    +0.277 C 
ENDBRANCH  34  35
BRANCH  33  37
ATOM     37  O   UNL     1      -5.345   5.422  -2.725  0.00  0.00    -0.488 OA
ATOM     38  C   UNL     1      -4.834   4.380  -1.891  0.00  0.00    +0.277 C 
ENDBRANCH  33  37
BRANCH  32  39
ATOM     39  O   UNL     1      -6.291   3.927  -4.835  0.00  0.00    -0.491 OA
ATOM     40  C   UNL     1      -6.731   3.185  -5.974  0.00  0.00    +0.277 C 
ENDBRANCH  32  39
ENDBRANCH  28  29
ENDBRANCH  24  28
ENDBRANCH   1  21
TORSDOF 11
