REMARK  Name = ZINC06815778
REMARK  8 active torsions:
REMARK  status: ('A' for Active; 'I' for Inactive)
REMARK    1  A    between atoms: C_6  and  O_7
REMARK    2  A    between atoms: O_7  and  C_8
REMARK    3  A    between atoms: C_8  and  C_9
REMARK    4  A    between atoms: N_11  and  C_12
REMARK    5  A    between atoms: C_12  and  N_14
REMARK    6  A    between atoms: N_14  and  C_15
REMARK    7  A    between atoms: C_18  and  N_22
REMARK    8  A    between atoms: C_20  and  O_21
REMARK                            x       y       z     vdW  Elec       q    Type
REMARK                         _______ _______ _______ _____ _____    ______ ____
ROOT
ATOM      1  C   UNL     1       3.112   7.757  -0.233  0.00  0.00    +0.141 C 
ATOM      2  S   UNL     1       1.547   8.373  -0.548  0.00  0.00    -0.018 S 
ENDROOT
BRANCH   1   5
ATOM      3  C   UNL     1       2.302   5.580  -0.466  0.00  0.00    +0.256 C 
ATOM      4  O   UNL     1       1.193   6.017  -0.689  0.00  0.00    -0.272 OA
ATOM      5  N   UNL     1       3.324   6.426  -0.225  0.00  0.00    -0.265 N 
ATOM      6  H   UNL     1       4.211   6.077  -0.047  0.00  0.00    +0.157 HD
BRANCH   3   7
ATOM      7  C   UNL     1       2.538   4.092  -0.457  0.00  0.00    +0.324 C 
BRANCH   7   8
ATOM      8  O   UNL     1       1.312   3.413  -0.736  0.00  0.00    -0.483 OA
BRANCH   8  14
ATOM      9  C   UNL     1       0.197   1.332  -1.031  0.00  0.00    +0.047 A 
ATOM     10  C   UNL     1       0.239  -0.048  -1.061  0.00  0.00    +0.023 A 
ATOM     11  C   UNL     1       1.431  -0.710  -0.827  0.00  0.00    +0.041 A 
ATOM     12  C   UNL     1       2.583   0.009  -0.562  0.00  0.00    +0.023 A 
ATOM     13  C   UNL     1       2.546   1.389  -0.531  0.00  0.00    +0.047 A 
ATOM     14  C   UNL     1       1.351   2.055  -0.766  0.00  0.00    +0.121 A 
ATOM     15 CL   UNL     1       1.481  -2.445  -0.865  0.00  0.00    -0.084 Cl
ENDBRANCH   8  14
ENDBRANCH   7   8
ENDBRANCH   3   7
ENDBRANCH   1   5
BRANCH   1  16
ATOM     16  N   UNL     1       4.134   8.603   0.007  0.00  0.00    -0.294 N 
ATOM     17  H   UNL     1       5.006   8.254   0.247  0.00  0.00    +0.154 HD
BRANCH  16  18
ATOM     18  C   UNL     1       3.936   9.986  -0.090  0.00  0.00    +0.075 A 
ATOM     19  C   UNL     1       2.834  10.575   0.514  0.00  0.00    +0.029 A 
ATOM     20  C   UNL     1       2.640  11.940   0.417  0.00  0.00    +0.035 A 
ATOM     21  C   UNL     1       3.542  12.721  -0.281  0.00  0.00    +0.130 A 
ATOM     22  C   UNL     1       4.643  12.142  -0.885  0.00  0.00    +0.080 A 
ATOM     23  C   UNL     1       4.847  10.775  -0.788  0.00  0.00    +0.140 A 
BRANCH  21  24
ATOM     24  N   UNL     1       3.330  14.183  -0.380  0.00  0.00    +0.057 N 
ATOM     25  O   UNL     1       2.362  14.695   0.152  0.00  0.00    -0.126 OA
ATOM     26  O   UNL     1       4.124  14.873  -0.994  0.00  0.00    -0.126 OA
ENDBRANCH  21  24
BRANCH  23  27
ATOM     27  O   UNL     1       5.932  10.204  -1.377  0.00  0.00    -0.505 OA
ATOM     28  H   UNL     1       5.780   9.921  -2.288  0.00  0.00    +0.292 HD
ENDBRANCH  23  27
ENDBRANCH  16  18
ENDBRANCH   1  16
TORSDOF 8
