REMARK  Name = ZINC02439696
REMARK  6 active torsions:
REMARK  status: ('A' for Active; 'I' for Inactive)
REMARK    1  A    between atoms: C_1  and  C_2
REMARK    2  A    between atoms: C_4  and  C_38
REMARK    3  A    between atoms: C_9  and  C_27
REMARK    4  A    between atoms: C_11  and  C_18
REMARK    5  A    between atoms: C_21  and  N_24
REMARK    6  A    between atoms: C_27  and  C_29
REMARK                            x       y       z     vdW  Elec       q    Type
REMARK                         _______ _______ _______ _____ _____    ______ ____
ROOT
ATOM      1  C   UNL     1       4.056   2.835  -0.475  0.00  0.00    +0.044 C 
ATOM      2  C   UNL     1       2.744   2.195  -0.102  0.00  0.00    -0.050 A 
ATOM      3  C   UNL     1       2.710   0.877   0.318  0.00  0.00    +0.008 A 
ATOM      4  C   UNL     1       1.512   0.286   0.661  0.00  0.00    -0.029 A 
ATOM      5  C   UNL     1       0.326   1.013   0.587  0.00  0.00    +0.039 A 
ATOM      6  C   UNL     1       0.372   2.337   0.163  0.00  0.00    -0.027 A 
ATOM      7  C   UNL     1       1.570   2.923  -0.178  0.00  0.00    +0.008 A 
ATOM      8  C   UNL     1      -1.049   2.830   0.193  0.00  0.00    +0.052 C 
ATOM      9  C   UNL     1      -1.205   4.025   1.138  0.00  0.00    +0.069 C 
ATOM     10  C   UNL     1      -1.309   5.260   0.220  0.00  0.00    +0.016 C 
ATOM     11  C   UNL     1      -1.185   4.714  -1.214  0.00  0.00    -0.047 C 
ATOM     12  C   UNL     1      -2.951   3.001  -1.288  0.00  0.00    -0.005 C 
ATOM     13  S   UNL     1      -3.359   4.215  -2.620  0.00  0.00    -0.181 S 
ATOM     14  C   UNL     1      -2.147   5.488  -2.138  0.00  0.00    +0.052 C 
ATOM     15  C   UNL     1      -1.858   1.650   0.664  0.00  0.00    +0.212 C 
ATOM     16  O   UNL     1      -3.060   1.615   0.826  0.00  0.00    -0.277 OA
ATOM     17  N   UNL     1      -0.990   0.643   0.875  0.00  0.00    -0.286 N 
ATOM     18  C   UNL     1       1.486  -1.149   1.118  0.00  0.00    +0.045 C 
ATOM     19  H   UNL     1      -1.249  -0.238   1.187  0.00  0.00    +0.155 HD
ATOM     20  N   UNL     1      -1.478   3.275  -1.122  0.00  0.00    +0.401 N 
ATOM     21  H   UNL     1      -0.957   2.771  -1.849  0.00  0.00    -0.078 HD
ENDROOT
BRANCH  10  22
ATOM     22  C   UNL     1      -0.187   6.224   0.512  0.00  0.00    -0.045 A 
ATOM     23  C   UNL     1      -0.345   7.193   1.484  0.00  0.00    +0.006 A 
ATOM     24  C   UNL     1       0.685   8.074   1.755  0.00  0.00    +0.033 A 
ATOM     25  C   UNL     1       1.870   7.992   1.047  0.00  0.00    +0.126 A 
ATOM     26  C   UNL     1       2.026   7.025   0.071  0.00  0.00    +0.033 A 
ATOM     27  C   UNL     1       0.997   6.141  -0.197  0.00  0.00    +0.006 A 
BRANCH  25  28
ATOM     28  N   UNL     1       2.971   8.938   1.334  0.00  0.00    +0.056 N 
ATOM     29  O   UNL     1       4.015   8.865   0.710  0.00  0.00    -0.126 OA
ATOM     30  O   UNL     1       2.834   9.790   2.193  0.00  0.00    -0.126 OA
ENDBRANCH  25  28
ENDBRANCH  10  22
BRANCH   9  31
ATOM     31  C   UNL     1       0.000   4.141   2.036  0.00  0.00    +0.168 C 
ATOM     32  O   UNL     1       1.036   3.587   1.735  0.00  0.00    -0.292 OA
BRANCH  31  33
ATOM     33  C   UNL     1      -0.081   4.927   3.277  0.00  0.00    +0.036 A 
ATOM     34  C   UNL     1       1.066   5.155   4.053  0.00  0.00    +0.014 A 
ATOM     35  C   UNL     1       0.936   5.904   5.209  0.00  0.00    +0.020 A 
ATOM     36  C   UNL     1      -0.310   6.391   5.564  0.00  0.00    +0.111 A 
ATOM     37  N   UNL     1      -1.373   6.158   4.818  0.00  0.00    -0.263 NA
ATOM     38  C   UNL     1      -1.302   5.455   3.707  0.00  0.00    +0.122 A 
ENDBRANCH  31  33
ENDBRANCH   9  31
TORSDOF 4
