REMARK  Name = ZINC39029821
REMARK  6 active torsions:
REMARK  status: ('A' for Active; 'I' for Inactive)
REMARK    1  A    between atoms: C_4  and  S_24
REMARK    2  A    between atoms: C_5  and  C_7
REMARK    3  A    between atoms: N_12  and  C_13
REMARK    4  A    between atoms: N_15  and  C_16
REMARK    5  A    between atoms: S_24  and  C_25
REMARK    6  A    between atoms: C_25  and  C_26
REMARK                            x       y       z     vdW  Elec       q    Type
REMARK                         _______ _______ _______ _____ _____    ______ ____
ROOT
ATOM      1  C   UNL     1       1.213  -2.157  -0.006  0.00  0.00    +0.194 C 
ATOM      2  N   UNL     1      -0.140  -2.710  -0.249  0.00  0.00    -0.289 N 
ATOM      3  N   UNL     1      -0.646  -3.394   0.611  0.00  0.00    -0.153 NA
ATOM      4  C   UNL     1      -0.052  -3.703   1.816  0.00  0.00    +0.203 C 
ATOM      5  N   UNL     1      -0.517  -4.435   2.811  0.00  0.00    -0.136 NA
ATOM      6  S   UNL     1       1.519  -2.850   1.676  0.00  0.00    -0.056 S 
ATOM      7  H   UNL     1      -0.609  -2.528  -1.078  0.00  0.00    +0.184 HD
ENDROOT
BRANCH   1  12
ATOM      8  C   UNL     1      -0.020   1.411   0.054  0.00  0.00    +0.000 A 
ATOM      9  C   UNL     1       1.168   2.119   0.047  0.00  0.00    +0.001 A 
ATOM     10  C   UNL     1       2.374   1.448   0.022  0.00  0.00    +0.015 A 
ATOM     11  C   UNL     1       2.393   0.058   0.005  0.00  0.00    +0.014 A 
ATOM     12  C   UNL     1       1.198  -0.650   0.013  0.00  0.00    -0.000 A 
ATOM     13  C   UNL     1      -0.005   0.028   0.037  0.00  0.00    +0.007 A 
BRANCH  11  14
ATOM     14  S   UNL     1       3.930  -0.803  -0.027  0.00  0.00    -0.120 S 
BRANCH  14  15
ATOM     15  C   UNL     1       5.173   0.517  -0.028  0.00  0.00    +0.109 C 
BRANCH  15  16
ATOM     16  C   UNL     1       6.552  -0.091  -0.055  0.00  0.00    -0.037 A 
ATOM     17  C   UNL     1       7.198  -0.389   1.130  0.00  0.00    +0.006 A 
ATOM     18  C   UNL     1       8.463  -0.947   1.107  0.00  0.00    +0.020 A 
ATOM     19  C   UNL     1       9.082  -1.206  -0.103  0.00  0.00    +0.041 A 
ATOM     20  C   UNL     1       8.434  -0.908  -1.289  0.00  0.00    +0.020 A 
ATOM     21  C   UNL     1       7.167  -0.355  -1.264  0.00  0.00    +0.006 A 
ATOM     22 CL   UNL     1      10.670  -1.907  -0.134  0.00  0.00    -0.084 Cl
ENDBRANCH  15  16
ENDBRANCH  14  15
ENDBRANCH  11  14
ENDBRANCH   1  12
BRANCH   5  23
ATOM     23  C   UNL     1       0.227  -4.618   3.915  0.00  0.00    +0.330 C 
ATOM     24  O   UNL     1       1.330  -4.109   3.998  0.00  0.00    -0.250 OA
ATOM     25  N   UNL     1      -0.248  -5.365   4.931  0.00  0.00    -0.265 N 
ATOM     26  H   UNL     1      -1.151  -5.717   4.894  0.00  0.00    +0.157 HD
BRANCH  25  27
ATOM     27  C   UNL     1       0.562  -5.634   6.041  0.00  0.00    +0.070 A 
ATOM     28  C   UNL     1       1.465  -4.680   6.491  0.00  0.00    +0.026 A 
ATOM     29  C   UNL     1       2.263  -4.948   7.586  0.00  0.00    +0.002 A 
ATOM     30  C   UNL     1       2.166  -6.165   8.234  0.00  0.00    +0.003 A 
ATOM     31  C   UNL     1       1.269  -7.119   7.790  0.00  0.00    +0.040 A 
ATOM     32  C   UNL     1       0.461  -6.855   6.699  0.00  0.00    +0.145 A 
ATOM     33  F   UNL     1      -0.420  -7.785   6.268  0.00  0.00    -0.204 F 
ENDBRANCH  25  27
ENDBRANCH   5  23
TORSDOF 6
