REMARK  Name = ZINC26202069
REMARK  8 active torsions:
REMARK  status: ('A' for Active; 'I' for Inactive)
REMARK    1  A    between atoms: C_1  and  C_2
REMARK    2  A    between atoms: C_2  and  C_4
REMARK    3  A    between atoms: C_2  and  N_13
REMARK    4  A    between atoms: C_14  and  C_16
REMARK    5  A    between atoms: C_16  and  C_18
REMARK    6  A    between atoms: C_16  and  N_19
REMARK    7  A    between atoms: N_22  and  S_25
REMARK    8  A    between atoms: S_25  and  C_28
REMARK                            x       y       z     vdW  Elec       q    Type
REMARK                         _______ _______ _______ _____ _____    ______ ____
ROOT
ATOM      1  C   UNL     1       1.385   3.493  -0.166  0.00  0.00    +0.016 C 
ATOM      2  C   UNL     1       1.162   3.299  -1.667  0.00  0.00    -0.004 C 
ENDROOT
BRANCH   1   3
ATOM      3  N   UNL     1       1.207   2.209   0.526  0.00  0.00    +0.389 N 
ATOM      4  C   UNL     1       1.588   2.316   1.941  0.00  0.00    -0.060 C 
ATOM      5  C   UNL     1       1.219   1.017   2.665  0.00  0.00    +0.091 C 
ATOM      6  N   UNL     1       1.826  -0.110   1.941  0.00  0.00    -0.180 NA
ATOM      7  C   UNL     1       1.601  -0.207   0.491  0.00  0.00    +0.091 C 
ATOM      8  C   UNL     1       1.955   1.140  -0.148  0.00  0.00    -0.060 C 
ATOM      9  H   UNL     1       0.139   1.947   0.486  0.00  0.00    -0.081 HD
BRANCH   6  10
ATOM     10  S   UNL     1       2.738  -1.240   2.738  0.00  0.00    +0.061 S 
ATOM     11  O   UNL     1       3.602  -1.820   1.770  0.00  0.00    -0.153 OA
ATOM     12  O   UNL     1       3.226  -0.611   3.915  0.00  0.00    -0.153 OA
BRANCH  10  13
ATOM     13  C   UNL     1       1.643  -2.516   3.265  0.00  0.00    +0.108 A 
ATOM     14  C   UNL     1       1.038  -2.438   4.505  0.00  0.00    +0.029 A 
ATOM     15  C   UNL     1       0.175  -3.436   4.918  0.00  0.00    +0.005 A 
ATOM     16  C   UNL     1      -0.075  -4.518   4.096  0.00  0.00    +0.038 A 
ATOM     17  C   UNL     1       0.535  -4.600   2.856  0.00  0.00    +0.125 A 
ATOM     18  C   UNL     1       1.395  -3.597   2.441  0.00  0.00    +0.066 A 
ATOM     19  F   UNL     1       0.291  -5.657   2.051  0.00  0.00    -0.205 F 
ENDBRANCH  10  13
ENDBRANCH   6  10
ENDBRANCH   1   3
BRANCH   1  21
ATOM     20  N   UNL     1       3.027   5.327   0.074  0.00  0.00    -0.307 N 
ATOM     21  C   UNL     1       2.784   4.002   0.073  0.00  0.00    +0.200 C 
ATOM     22  O   UNL     1       3.690   3.219   0.263  0.00  0.00    -0.278 OA
ATOM     23  H   UNL     1       2.205   6.038  -0.099  0.00  0.00    +0.149 HD
BRANCH  20  25
ATOM     24  C   UNL     1       5.158   5.830  -1.015  0.00  0.00    +0.036 C 
ATOM     25  C   UNL     1       4.387   5.822   0.306  0.00  0.00    +0.136 C 
BRANCH  25  26
ATOM     26  C   UNL     1       4.324   7.222   0.860  0.00  0.00    +0.126 A 
ATOM     27  C   UNL     1       5.116   7.700   1.829  0.00  0.00    +0.055 A 
ATOM     28  C   UNL     1       4.705   9.092   2.044  0.00  0.00    +0.020 A 
ATOM     29  C   UNL     1       5.127  10.113   2.896  0.00  0.00    +0.011 A 
ATOM     30  C   UNL     1       4.516  11.335   2.843  0.00  0.00    +0.001 A 
ATOM     31  C   UNL     1       3.481  11.565   1.949  0.00  0.00    +0.004 A 
ATOM     32  C   UNL     1       3.050  10.568   1.099  0.00  0.00    +0.047 A 
ATOM     33  C   UNL     1       3.657   9.319   1.137  0.00  0.00    +0.135 A 
ATOM     34  O   UNL     1       3.470   8.175   0.448  0.00  0.00    -0.458 OA
ENDBRANCH  25  26
ENDBRANCH  20  25
ENDBRANCH   1  21
TORSDOF 6
