REMARK  Name = ZINC39078092
REMARK  0 active torsions:
REMARK  status: ('A' for Active; 'I' for Inactive)
REMARK                            x       y       z     vdW  Elec       q    Type
REMARK                         _______ _______ _______ _____ _____    ______ ____
ROOT
ATOM      1  C   UNL     1      -0.016   1.349   0.009  0.00  0.00    +0.020 A 
ATOM      2  C   UNL     1       1.310   1.800  -0.001  0.00  0.00    +0.028 A 
ATOM      3  C   UNL     1       2.118   0.684  -0.015  0.00  0.00    +0.052 A 
ATOM      4  C   UNL     1       3.520   0.496  -0.029  0.00  0.00    +0.046 A 
ATOM      5  C   UNL     1       4.005  -0.772  -0.040  0.00  0.00    +0.118 A 
ATOM      6  N   UNL     1       3.170  -1.819  -0.038  0.00  0.00    -0.201 NA
ATOM      7  C   UNL     1       1.869  -1.673  -0.025  0.00  0.00    +0.353 A 
ATOM      8  O   UNL     1       1.077  -2.768  -0.023  0.00  0.00    -0.244 OA
ATOM      9  N   UNL     1       1.299  -0.429  -0.013  0.00  0.00    -0.268 N 
ATOM     10  C   UNL     1       0.002  -0.004   0.002  0.00  0.00    +0.096 A 
ENDROOT
TORSDOF 0
