REMARK  Name = ZINC64645856
REMARK  7 active torsions:
REMARK  status: ('A' for Active; 'I' for Inactive)
REMARK    1  A    between atoms: C_1  and  C_2
REMARK    2  A    between atoms: C_2  and  C_3
REMARK    3  A    between atoms: C_2  and  N_10
REMARK    4  A    between atoms: N_13  and  C_14
REMARK    5  A    between atoms: C_14  and  C_15
REMARK    6  A    between atoms: C_14  and  C_16
REMARK    7  A    between atoms: C_18  and  C_21
REMARK                            x       y       z     vdW  Elec       q    Type
REMARK                         _______ _______ _______ _____ _____    ______ ____
ROOT
ATOM      1  N   UNL     1       0.688  -0.476  -1.203  0.00  0.00    -0.293 N 
ATOM      2  C   UNL     1       0.006  -0.608  -2.358  0.00  0.00    +0.301 C 
ATOM      3  O   UNL     1      -1.178  -0.335  -2.400  0.00  0.00    -0.253 OA
ATOM      4  N   UNL     1       0.637  -1.043  -3.467  0.00  0.00    -0.288 N 
ATOM      5  H   UNL     1       1.632  -0.695  -1.170  0.00  0.00    +0.151 HD
ATOM      6  H   UNL     1       1.582  -1.261  -3.434  0.00  0.00    +0.151 HD
ENDROOT
BRANCH   1   8
ATOM      7  C   UNL     1      -0.019   1.526   0.010  0.00  0.00    +0.033 C 
ATOM      8  C   UNL     1       0.002  -0.004   0.002  0.00  0.00    +0.102 C 
BRANCH   8   9
ATOM      9  C   UNL     1       0.731  -0.503   1.223  0.00  0.00    -0.027 A 
ATOM     10  C   UNL     1       2.113  -0.514   1.246  0.00  0.00    +0.007 A 
ATOM     11  C   UNL     1       2.782  -0.971   2.366  0.00  0.00    +0.020 A 
ATOM     12  C   UNL     1       2.068  -1.419   3.463  0.00  0.00    +0.041 A 
ATOM     13  C   UNL     1       0.685  -1.409   3.439  0.00  0.00    +0.020 A 
ATOM     14  C   UNL     1       0.017  -0.945   2.321  0.00  0.00    +0.007 A 
ATOM     15 CL   UNL     1       2.908  -1.995   4.869  0.00  0.00    -0.084 Cl
ENDBRANCH   8   9
ENDBRANCH   1   8
BRANCH   4  16
ATOM     16  C   UNL     1      -0.104  -1.186  -4.723  0.00  0.00    +0.160 C 
ATOM     17  C   UNL     1      -0.792  -2.552  -4.757  0.00  0.00    +0.038 C 
BRANCH  16  18
ATOM     18  C   UNL     1       0.850  -1.075  -5.885  0.00  0.00    +0.248 A 
ATOM     19  N   UNL     1       0.656  -0.373  -6.964  0.00  0.00    -0.190 NA
ATOM     20  C   UNL     1       1.709  -0.501  -7.792  0.00  0.00    +0.202 A 
ATOM     21  N   UNL     1       2.587  -1.296  -7.232  0.00  0.00    -0.056 NA
ATOM     22  O   UNL     1       2.042  -1.678  -5.978  0.00  0.00    -0.336 OA
BRANCH  20  23
ATOM     23  C   UNL     1       1.852   0.150  -9.118  0.00  0.00    +0.023 A 
ATOM     24  C   UNL     1       0.843   0.983  -9.600  0.00  0.00    +0.014 A 
ATOM     25  C   UNL     1       0.980   1.586 -10.832  0.00  0.00    +0.039 A 
ATOM     26  C   UNL     1       2.119   1.366 -11.591  0.00  0.00    +0.123 A 
ATOM     27  C   UNL     1       3.123   0.539 -11.116  0.00  0.00    +0.039 A 
ATOM     28  C   UNL     1       2.997  -0.064  -9.882  0.00  0.00    +0.014 A 
ATOM     29  F   UNL     1       2.249   1.959 -12.798  0.00  0.00    -0.205 F 
ENDBRANCH  20  23
ENDBRANCH  16  18
ENDBRANCH   4  16
TORSDOF 5
