REMARK  Name = ZINC45810994
REMARK  7 active torsions:
REMARK  status: ('A' for Active; 'I' for Inactive)
REMARK    1  A    between atoms: C_1  and  C_2
REMARK    2  A    between atoms: C_10  and  C_11
REMARK    3  A    between atoms: N_13  and  N_14
REMARK    4  A    between atoms: C_15  and  C_17
REMARK    5  A    between atoms: C_20  and  C_22
REMARK    6  A    between atoms: C_22  and  O_23
REMARK    7  A    between atoms: O_23  and  C_24
REMARK                            x       y       z     vdW  Elec       q    Type
REMARK                         _______ _______ _______ _____ _____    ______ ____
ROOT
ATOM      1  N   UNL     1       0.061  -0.867   4.814  0.00  0.00    -0.228 N 
ATOM      2  C   UNL     1       0.084  -1.776   5.809  0.00  0.00    +0.295 C 
ATOM      3  O   UNL     1       0.097  -2.964   5.548  0.00  0.00    -0.265 OA
ATOM      4  H   UNL     1       0.051   0.080   5.022  0.00  0.00    +0.173 HD
ENDROOT
BRANCH   2   5
ATOM      5  C   UNL     1       0.091  -1.332   7.207  0.00  0.00    +0.191 A 
ATOM      6  C   UNL     1       0.119  -2.143   8.306  0.00  0.00    +0.055 A 
ATOM      7  C   UNL     1       0.116  -1.300   9.429  0.00  0.00    +0.049 A 
ATOM      8  C   UNL     1       0.087  -0.029   8.972  0.00  0.00    +0.143 A 
ATOM      9  O   UNL     1       0.079  -0.052   7.633  0.00  0.00    -0.452 OA
BRANCH   8  10
ATOM     10  C   UNL     1       0.074   1.211   9.828  0.00  0.00    +0.303 C 
BRANCH  10  11
ATOM     11  O   UNL     1       1.416   1.628  10.084  0.00  0.00    -0.484 OA
BRANCH  11  12
ATOM     12  C   UNL     1       1.582   2.740  10.848  0.00  0.00    +0.121 A 
ATOM     13  C   UNL     1       0.475   3.413  11.345  0.00  0.00    +0.045 A 
ATOM     14  C   UNL     1       0.646   4.542  12.122  0.00  0.00    +0.004 A 
ATOM     15  C   UNL     1       1.919   5.003  12.403  0.00  0.00    +0.000 A 
ATOM     16  C   UNL     1       3.024   4.335  11.908  0.00  0.00    +0.004 A 
ATOM     17  C   UNL     1       2.858   3.201  11.136  0.00  0.00    +0.045 A 
ENDBRANCH  11  12
ENDBRANCH  10  11
ENDBRANCH   8  10
ENDBRANCH   2   5
BRANCH   1  20
ATOM     18  C   UNL     1       0.032  -0.382   2.484  0.00  0.00    +0.296 C 
ATOM     19  O   UNL     1       0.018   0.806   2.745  0.00  0.00    -0.265 OA
ATOM     20  N   UNL     1       0.054  -1.291   3.479  0.00  0.00    -0.227 N 
ATOM     21  H   UNL     1       0.065  -2.238   3.270  0.00  0.00    +0.173 HD
BRANCH  18  31
ATOM     22  C   UNL     1      -0.018   1.503   0.010  0.00  0.00    +0.048 C 
ATOM     23  C   UNL     1       0.002  -0.004   0.002  0.00  0.00    +0.008 A 
ATOM     24  C   UNL     1       0.009  -0.877  -1.171  0.00  0.00    +0.025 A 
ATOM     25  C   UNL     1      -0.001  -0.654  -2.551  0.00  0.00    +0.027 A 
ATOM     26  C   UNL     1       0.009  -1.718  -3.409  0.00  0.00    +0.019 A 
ATOM     27  C   UNL     1       0.029  -3.018  -2.918  0.00  0.00    +0.019 A 
ATOM     28  C   UNL     1       0.038  -3.258  -1.561  0.00  0.00    +0.048 A 
ATOM     29  C   UNL     1       0.029  -2.191  -0.669  0.00  0.00    +0.136 A 
ATOM     30  O   UNL     1       0.035  -2.113   0.676  0.00  0.00    -0.450 OA
ATOM     31  C   UNL     1       0.024  -0.826   1.083  0.00  0.00    +0.195 A 
ATOM     32 BR   UNL     1      -0.005  -1.420  -5.276  0.00  0.00    -0.050 Br
ENDBRANCH  18  31
ENDBRANCH   1  20
TORSDOF 6
