REMARK  Name = ZINC08737258
REMARK  5 active torsions:
REMARK  status: ('A' for Active; 'I' for Inactive)
REMARK    1  A    between atoms: C_1  and  C_2
REMARK    2  A    between atoms: C_2  and  N_3
REMARK    3  A    between atoms: C_4  and  C_6
REMARK    4  A    between atoms: N_15  and  S_16
REMARK    5  A    between atoms: S_16  and  C_19
REMARK                            x       y       z     vdW  Elec       q    Type
REMARK                         _______ _______ _______ _____ _____    ______ ____
ROOT
ATOM      1  C   UNL     1      -0.947   1.320  -1.581  0.00  0.00    +0.187 C 
ATOM      2  C   UNL     1      -0.328   0.967  -0.219  0.00  0.00    +0.070 C 
ATOM      3  C   UNL     1      -0.952   1.946   0.750  0.00  0.00    -0.022 A 
ATOM      4  C   UNL     1      -0.784   2.110   2.109  0.00  0.00    +0.005 A 
ATOM      5  C   UNL     1      -1.484   3.094   2.783  0.00  0.00    +0.000 A 
ATOM      6  C   UNL     1      -2.355   3.916   2.091  0.00  0.00    +0.002 A 
ATOM      7  C   UNL     1      -2.528   3.756   0.732  0.00  0.00    +0.025 A 
ATOM      8  C   UNL     1      -1.825   2.764   0.045  0.00  0.00    +0.055 A 
ATOM      9  N   UNL     1      -1.855   2.438  -1.312  0.00  0.00    -0.195 N 
ENDROOT
BRANCH   1  11
ATOM     10  N   UNL     1      -1.081  -0.790  -2.865  0.00  0.00    -0.314 N 
ATOM     11  C   UNL     1      -1.714   0.143  -2.127  0.00  0.00    +0.236 C 
ATOM     12  O   UNL     1      -2.901   0.037  -1.903  0.00  0.00    -0.274 OA
ATOM     13  H   UNL     1      -0.132  -0.705  -3.045  0.00  0.00    +0.149 HD
BRANCH  10  15
ATOM     14  C   UNL     1      -0.881  -2.836  -4.191  0.00  0.00    +0.024 C 
ATOM     15  C   UNL     1      -1.827  -1.934  -3.396  0.00  0.00    +0.101 C 
ENDBRANCH  10  15
ENDBRANCH   1  11
BRANCH   9  16
ATOM     16  S   UNL     1      -2.780   3.205  -2.452  0.00  0.00    +0.043 S 
ATOM     17  O   UNL     1      -2.857   2.286  -3.534  0.00  0.00    -0.155 OA
ATOM     18  O   UNL     1      -3.952   3.606  -1.757  0.00  0.00    -0.155 OA
ATOM     19  C   UNL     1      -1.812   4.660  -2.936  0.00  0.00    +0.218 C 
ENDBRANCH   9  16
TORSDOF 3
