REMARK  Name = ZINC14463630
REMARK  4 active torsions:
REMARK  status: ('A' for Active; 'I' for Inactive)
REMARK    1  A    between atoms: C_10  and  C_11
REMARK    2  A    between atoms: C_22  and  S_27
REMARK    3  A    between atoms: S_27  and  N_30
REMARK    4  A    between atoms: N_30  and  C_31
REMARK                            x       y       z     vdW  Elec       q    Type
REMARK                         _______ _______ _______ _____ _____    ______ ____
ROOT
ATOM      1  C   UNL     1       2.500  -0.361  -0.023  0.00  0.00    +0.105 C 
ATOM      2  C   UNL     1       2.410  -0.885   1.413  0.00  0.00    +0.029 C 
ATOM      3  C   UNL     1       1.246  -0.124   2.113  0.00  0.00    +0.033 C 
ATOM      4  C   UNL     1       1.887   1.183   2.539  0.00  0.00    -0.030 C 
ATOM      5  C   UNL     1       3.189   1.052   2.613  0.00  0.00    -0.023 C 
ATOM      6  C   UNL     1       3.596  -0.354   2.242  0.00  0.00    +0.049 C 
ATOM      7  C   UNL     1       4.888  -0.369   1.489  0.00  0.00    -0.018 A 
ATOM      8  C   UNL     1       6.069  -0.161   2.188  0.00  0.00    +0.034 A 
ATOM      9  C   UNL     1       7.283  -0.168   1.531  0.00  0.00    +0.106 A 
ATOM     10  C   UNL     1       7.337  -0.383   0.166  0.00  0.00    +0.030 A 
ATOM     11  C   UNL     1       6.169  -0.592  -0.540  0.00  0.00    +0.025 A 
ATOM     12  C   UNL     1       4.947  -0.585   0.121  0.00  0.00    +0.031 A 
ATOM     13  N   UNL     1       3.772  -0.796  -0.609  0.00  0.00    -0.336 N 
ATOM     14  H   UNL     1       3.798  -1.219  -1.482  0.00  0.00    +0.147 HD
ENDROOT
BRANCH   1  24
ATOM     15  C   UNL     1      -1.202   3.141  -0.504  0.00  0.00    +0.001 A 
ATOM     16  C   UNL     1      -1.163   1.748  -0.519  0.00  0.00    +0.001 A 
ATOM     17  C   UNL     1       0.011   1.079  -0.356  0.00  0.00    +0.009 A 
ATOM     18  C   UNL     1       1.204   1.800  -0.180  0.00  0.00    -0.013 A 
ATOM     19  C   UNL     1       1.165   3.217  -0.170  0.00  0.00    -0.018 A 
ATOM     20  C   UNL     1      -0.067   3.873  -0.336  0.00  0.00    +0.008 A 
ATOM     21  C   UNL     1       2.357   3.938   0.006  0.00  0.00    +0.008 A 
ATOM     22  C   UNL     1       3.532   3.269   0.163  0.00  0.00    +0.001 A 
ATOM     23  C   UNL     1       3.571   1.877   0.153  0.00  0.00    +0.006 A 
ATOM     24  C   UNL     1       2.436   1.145  -0.015  0.00  0.00    -0.019 A 
ENDBRANCH   1  24
BRANCH   9  25
ATOM     25  S   UNL     1       8.771   0.099   2.436  0.00  0.00    +0.059 S 
ATOM     26  O   UNL     1       9.730   0.586   1.508  0.00  0.00    -0.153 OA
ATOM     27  O   UNL     1       8.411   0.818   3.608  0.00  0.00    -0.153 OA
BRANCH  25  28
ATOM     28  N   UNL     1       9.311  -1.384   2.939  0.00  0.00    -0.187 NA
ATOM     29  H   UNL     1       9.344  -1.593   3.885  0.00  0.00    +0.148 HD
BRANCH  28  30
ATOM     30  C   UNL     1       9.739  -2.381   1.953  0.00  0.00    +0.077 C 
ATOM     31  C   UNL     1       8.572  -3.319   1.637  0.00  0.00    +0.020 C 
ATOM     32  C   UNL     1       9.019  -4.359   0.608  0.00  0.00    +0.002 C 
ATOM     33  C   UNL     1      10.186  -5.170   1.176  0.00  0.00    +0.000 C 
ATOM     34  C   UNL     1      11.352  -4.231   1.492  0.00  0.00    +0.002 C 
ATOM     35  C   UNL     1      10.905  -3.191   2.521  0.00  0.00    +0.020 C 
ENDBRANCH  28  30
ENDBRANCH  25  28
ENDBRANCH   9  25
TORSDOF 4
