REMARK  Name = ZINC14975366
REMARK  13 active torsions:
REMARK  status: ('A' for Active; 'I' for Inactive)
REMARK    1  A    between atoms: C_1  and  O_2
REMARK    2  A    between atoms: O_2  and  C_3
REMARK    3  A    between atoms: C_3  and  C_5
REMARK    4  A    between atoms: C_6  and  C_33
REMARK    5  A    between atoms: N_7  and  C_10
REMARK    6  A    between atoms: C_13  and  C_22
REMARK    7  A    between atoms: C_16  and  C_17
REMARK    8  A    between atoms: C_16  and  N_60
REMARK    9  A    between atoms: N_24  and  C_25
REMARK   10  A    between atoms: C_29  and  S_31
REMARK   11  A    between atoms: S_31  and  C_32
REMARK   12  A    between atoms: C_33  and  O_35
REMARK   13  A    between atoms: O_35  and  C_36
REMARK                            x       y       z     vdW  Elec       q    Type
REMARK                         _______ _______ _______ _____ _____    ______ ____
ROOT
ATOM      1  C   UNL     1      -1.013  -0.017   3.247  0.00  0.00    +0.092 C 
ATOM      2  C   UNL     1       0.517  -0.124   3.442  0.00  0.00    +0.019 C 
ATOM      3  C   UNL     1       1.074   0.304   2.061  0.00  0.00    +0.022 C 
ATOM      4  C   UNL     1      -1.231  -0.105   1.725  0.00  0.00    -0.050 C 
ATOM      5  N   UNL     1       0.100  -0.284   1.133  0.00  0.00    +0.391 N 
ATOM      6  H   UNL     1       0.295  -1.285   1.014  0.00  0.00    -0.080 HD
ENDROOT
BRANCH   1   9
ATOM      7  C   UNL     1      -2.997  -2.312   5.225  0.00  0.00    +0.203 A 
ATOM      8  C   UNL     1      -2.649  -1.006   4.886  0.00  0.00    +0.180 A 
ATOM      9  N   UNL     1      -1.691  -1.125   3.923  0.00  0.00    -0.236 N 
ATOM     10  N   UNL     1      -1.480  -2.376   3.713  0.00  0.00    -0.064 NA
ATOM     11  N   UNL     1      -2.229  -3.105   4.460  0.00  0.00    -0.122 NA
BRANCH   7  12
ATOM     12  C   UNL     1      -3.999  -2.736   6.225  0.00  0.00    +0.362 C 
ATOM     13  O   UNL     1      -4.625  -1.903   6.848  0.00  0.00    -0.243 OA
BRANCH  12  15
ATOM     14  C   UNL     1      -5.218  -4.391   7.440  0.00  0.00    +0.280 C 
ATOM     15  O   UNL     1      -4.219  -4.047   6.444  0.00  0.00    -0.463 OA
ENDBRANCH  12  15
ENDBRANCH   7  12
BRANCH   8  16
ATOM     16  C   UNL     1      -3.202   0.241   5.447  0.00  0.00    +0.360 C 
ATOM     17  O   UNL     1      -4.059   0.192   6.307  0.00  0.00    -0.243 OA
BRANCH  16  18
ATOM     18  O   UNL     1      -2.757   1.434   5.005  0.00  0.00    -0.463 OA
ATOM     19  C   UNL     1      -3.346   2.619   5.602  0.00  0.00    +0.280 C 
ENDBRANCH  16  18
ENDBRANCH   8  16
ENDBRANCH   1   9
BRANCH   3  20
ATOM     20  C   UNL     1       2.449  -0.272   1.840  0.00  0.00    +0.204 C 
ATOM     21  O   UNL     1       2.628  -1.099   0.971  0.00  0.00    -0.277 OA
ATOM     22  N   UNL     1       3.480   0.132   2.608  0.00  0.00    -0.287 N 
ATOM     23  H   UNL     1       3.354   0.848   3.251  0.00  0.00    +0.155 HD
BRANCH  22  24
ATOM     24  C   UNL     1       4.731  -0.480   2.478  0.00  0.00    +0.034 A 
ATOM     25  C   UNL     1       4.815  -1.831   2.162  0.00  0.00    +0.023 A 
ATOM     26  C   UNL     1       6.050  -2.436   2.029  0.00  0.00    +0.003 A 
ATOM     27  C   UNL     1       7.206  -1.703   2.220  0.00  0.00    +0.015 A 
ATOM     28  C   UNL     1       7.129  -0.353   2.541  0.00  0.00    +0.009 A 
ATOM     29  C   UNL     1       5.889   0.259   2.671  0.00  0.00    +0.038 A 
BRANCH  28  30
ATOM     30  S   UNL     1       8.603   0.581   2.784  0.00  0.00    -0.129 S 
ATOM     31  C   UNL     1       9.934  -0.622   2.515  0.00  0.00    +0.090 C 
ENDBRANCH  28  30
ENDBRANCH  22  24
ENDBRANCH   3  20
BRANCH   5  32
ATOM     32  C   UNL     1       0.169   0.391  -0.198  0.00  0.00    -0.041 C 
BRANCH  32  33
ATOM     33  C   UNL     1       0.158   1.884   0.008  0.00  0.00    -0.057 A 
ATOM     34  C   UNL     1       1.342   2.578   0.166  0.00  0.00    +0.009 A 
ATOM     35  C   UNL     1       1.297   3.921   0.350  0.00  0.00    +0.045 A 
ATOM     36  S   UNL     1      -0.458   4.242   0.301  0.00  0.00    -0.105 S 
ATOM     37  C   UNL     1      -1.013   2.566   0.035  0.00  0.00    +0.047 A 
ENDBRANCH  32  33
ENDBRANCH   5  32
TORSDOF 10
