REMARK  Name = ZINC39636671
REMARK  11 active torsions:
REMARK  status: ('A' for Active; 'I' for Inactive)
REMARK    1  A    between atoms: C_1  and  C_2
REMARK    2  A    between atoms: C_5  and  C_37
REMARK    3  A    between atoms: C_6  and  C_8
REMARK    4  A    between atoms: C_8  and  N_9
REMARK    5  A    between atoms: C_10  and  C_12
REMARK    6  A    between atoms: C_23  and  C_25
REMARK    7  A    between atoms: C_25  and  C_27
REMARK    8  A    between atoms: C_25  and  O_30
REMARK    9  A    between atoms: C_27  and  C_28
REMARK   10  A    between atoms: C_27  and  C_29
REMARK   11  A    between atoms: O_30  and  C_31
REMARK                            x       y       z     vdW  Elec       q    Type
REMARK                         _______ _______ _______ _____ _____    ______ ____
ROOT
ATOM      1  C   UNL     1       3.367  -4.128   4.352  0.00  0.00    +0.100 C 
ATOM      2  C   UNL     1       3.707  -5.199   3.292  0.00  0.00    +0.121 C 
ATOM      3  N   UNL     1       4.435  -6.250   4.041  0.00  0.00    -0.297 N 
ATOM      4  C   UNL     1       3.720  -6.342   5.337  0.00  0.00    +0.115 C 
ATOM      5  C   UNL     1       3.377  -4.881   5.692  0.00  0.00    -0.004 C 
ATOM      6  C   UNL     1       4.441  -4.300   6.618  0.00  0.00    -0.010 C 
ATOM      7  C   UNL     1       4.392  -5.028   7.965  0.00  0.00    -0.082 C 
ATOM      8  N   UNL     1       3.059  -4.872   8.559  0.00  0.00    +0.379 N 
ATOM      9  C   UNL     1       2.052  -5.516   7.707  0.00  0.00    -0.082 C 
ATOM     10  C   UNL     1       2.002  -4.809   6.350  0.00  0.00    -0.010 C 
ATOM     11  C   UNL     1       5.506  -6.961   3.636  0.00  0.00    +0.257 C 
ATOM     12  O   UNL     1       5.942  -7.851   4.335  0.00  0.00    -0.272 OA
ATOM     13  H   UNL     1       3.048  -5.301   9.473  0.00  0.00    -0.086 HD
ATOM     14  H   UNL     1       2.844  -3.890   8.648  0.00  0.00    -0.086 HD
ENDROOT
BRANCH   1  16
ATOM     15  N   UNL     1       1.679  -2.336   4.594  0.00  0.00    -0.311 N 
ATOM     16  C   UNL     1       2.004  -3.542   4.089  0.00  0.00    +0.218 C 
ATOM     17  O   UNL     1       1.198  -4.157   3.422  0.00  0.00    -0.275 OA
ATOM     18  H   UNL     1       2.324  -1.844   5.127  0.00  0.00    +0.149 HD
BRANCH  15  19
ATOM     19  C   UNL     1       0.354  -1.767   4.338  0.00  0.00    +0.139 C 
BRANCH  19  25
ATOM     20  C   UNL     1      -1.222   1.060   8.154  0.00  0.00    +0.044 C 
ATOM     21  C   UNL     1      -0.508   0.931   6.834  0.00  0.00    -0.050 A 
ATOM     22  C   UNL     1       0.049   2.047   6.237  0.00  0.00    +0.003 A 
ATOM     23  C   UNL     1       0.704   1.929   5.026  0.00  0.00    +0.004 A 
ATOM     24  C   UNL     1       0.803   0.694   4.411  0.00  0.00    -0.046 A 
ATOM     25  C   UNL     1       0.247  -0.421   5.008  0.00  0.00    -0.027 A 
ATOM     26  C   UNL     1      -0.405  -0.304   6.222  0.00  0.00    +0.008 A 
ATOM     27  C   UNL     1       1.516   0.565   3.090  0.00  0.00    +0.044 C 
ENDBRANCH  19  25
ENDBRANCH  15  19
ENDBRANCH   1  16
BRANCH  11  28
ATOM     28  C   UNL     1       6.161  -6.651   2.315  0.00  0.00    +0.261 C 
BRANCH  28  29
ATOM     29  C   UNL     1       5.474  -7.449   1.205  0.00  0.00    +0.033 C 
ATOM     30  C   UNL     1       3.973  -7.155   1.220  0.00  0.00    +0.011 C 
ATOM     31  C   UNL     1       6.059  -7.046  -0.150  0.00  0.00    +0.011 C 
ENDBRANCH  28  29
BRANCH  28  32
ATOM     32  O   UNL     1       7.543  -7.009   2.373  0.00  0.00    -0.479 OA
BRANCH  32  33
ATOM     33  C   UNL     1       8.411  -6.236   1.668  0.00  0.00    +0.122 A 
ATOM     34  C   UNL     1       7.955  -5.103   1.011  0.00  0.00    +0.045 A 
ATOM     35  C   UNL     1       8.839  -4.319   0.294  0.00  0.00    +0.004 A 
ATOM     36  C   UNL     1      10.177  -4.664   0.232  0.00  0.00    +0.000 A 
ATOM     37  C   UNL     1      10.633  -5.794   0.885  0.00  0.00    +0.004 A 
ATOM     38  C   UNL     1       9.754  -6.577   1.608  0.00  0.00    +0.045 A 
ENDBRANCH  32  33
ENDBRANCH  28  32
ENDBRANCH  11  28
TORSDOF 7
