REMARK  Name = ZINC40167995
REMARK  9 active torsions:
REMARK  status: ('A' for Active; 'I' for Inactive)
REMARK    1  A    between atoms: C_1  and  C_2
REMARK    2  A    between atoms: C_2  and  C_3
REMARK    3  A    between atoms: C_3  and  C_5
REMARK    4  A    between atoms: C_3  and  O_15
REMARK    5  A    between atoms: N_7  and  C_8
REMARK    6  A    between atoms: C_13  and  C_14
REMARK    7  A    between atoms: O_15  and  C_16
REMARK    8  A    between atoms: C_26  and  C_27
REMARK    9  A    between atoms: C_30  and  C_33
REMARK                            x       y       z     vdW  Elec       q    Type
REMARK                         _______ _______ _______ _____ _____    ______ ____
ROOT
ATOM      1  C   UNL     1       0.683   0.676  -2.322  0.00  0.00    +0.212 A 
ATOM      2  C   UNL     1      -0.116   1.463  -3.191  0.00  0.00    +0.235 A 
ATOM      3  O   UNL     1      -1.040   0.974  -3.821  0.00  0.00    -0.283 OA
ATOM      4  C   UNL     1       0.214   2.897  -3.302  0.00  0.00    +0.068 A 
ATOM      5  C   UNL     1      -0.518   3.746  -4.131  0.00  0.00    +0.015 A 
ATOM      6  C   UNL     1      -0.179   5.079  -4.208  0.00  0.00    +0.001 A 
ATOM      7  C   UNL     1       0.883   5.575  -3.466  0.00  0.00    +0.004 A 
ATOM      8  C   UNL     1       1.614   4.746  -2.643  0.00  0.00    +0.047 A 
ATOM      9  C   UNL     1       1.289   3.398  -2.550  0.00  0.00    +0.140 A 
ATOM     10  O   UNL     1       1.992   2.570  -1.750  0.00  0.00    -0.451 OA
ATOM     11  C   UNL     1       1.702   1.264  -1.633  0.00  0.00    +0.181 A 
ENDROOT
BRANCH  11  12
ATOM     12  C   UNL     1       2.520   0.433  -0.729  0.00  0.00    +0.021 A 
ATOM     13  C   UNL     1       3.909   0.580  -0.705  0.00  0.00    +0.012 A 
ATOM     14  C   UNL     1       4.668  -0.200   0.142  0.00  0.00    +0.004 A 
ATOM     15  C   UNL     1       4.056  -1.127   0.967  0.00  0.00    -0.050 A 
ATOM     16  C   UNL     1       2.680  -1.279   0.949  0.00  0.00    +0.004 A 
ATOM     17  C   UNL     1       1.909  -0.501   0.111  0.00  0.00    +0.012 A 
ATOM     18  C   UNL     1       4.892  -1.977   1.890  0.00  0.00    +0.044 C 
ENDBRANCH  11  12
BRANCH   1  19
ATOM     19  O   UNL     1       0.432  -0.653  -2.175  0.00  0.00    -0.472 OA
BRANCH  19  20
ATOM     20  C   UNL     1       0.534  -1.466  -3.345  0.00  0.00    +0.259 C 
BRANCH  20  21
ATOM     21  C   UNL     1      -0.428  -2.621  -3.239  0.00  0.00    +0.258 C 
ATOM     22  O   UNL     1      -1.065  -2.789  -2.221  0.00  0.00    -0.271 OA
ATOM     23  N   UNL     1      -0.582  -3.467  -4.277  0.00  0.00    -0.282 N 
ATOM     24  H   UNL     1      -0.017  -3.381  -5.061  0.00  0.00    +0.155 HD
BRANCH  23  25
ATOM     25  C   UNL     1      -1.556  -4.471  -4.223  0.00  0.00    +0.036 A 
ATOM     26  C   UNL     1      -2.642  -4.341  -3.368  0.00  0.00    +0.023 A 
ATOM     27  C   UNL     1      -3.601  -5.333  -3.317  0.00  0.00    +0.002 A 
ATOM     28  C   UNL     1      -3.481  -6.455  -4.117  0.00  0.00    +0.000 A 
ATOM     29  C   UNL     1      -2.401  -6.587  -4.969  0.00  0.00    +0.005 A 
ATOM     30  C   UNL     1      -1.441  -5.596  -5.029  0.00  0.00    -0.029 A 
ATOM     31  C   UNL     1      -0.267  -5.737  -5.964  0.00  0.00    +0.045 C 
ENDBRANCH  23  25
ENDBRANCH  20  21
BRANCH  20  33
ATOM     32  C   UNL     1       2.921  -0.841  -3.740  0.00  0.00    +0.008 C 
ATOM     33  C   UNL     1       1.962  -2.002  -3.470  0.00  0.00    +0.051 C 
ENDBRANCH  20  33
ENDBRANCH  19  20
ENDBRANCH   1  19
TORSDOF 6
