REMARK  Name = ZINC29078538
REMARK  6 active torsions:
REMARK  status: ('A' for Active; 'I' for Inactive)
REMARK    1  A    between atoms: C_7  and  N_27
REMARK    2  A    between atoms: N_14  and  S_17
REMARK    3  A    between atoms: S_17  and  C_20
REMARK    4  A    between atoms: N_27  and  C_28
REMARK    5  A    between atoms: C_28  and  C_29
REMARK    6  A    between atoms: C_29  and  O_30
REMARK                            x       y       z     vdW  Elec       q    Type
REMARK                         _______ _______ _______ _____ _____    ______ ____
ROOT
ATOM      1  C   UNL     1       2.381   1.420  -0.013  0.00  0.00    +0.001 A 
ATOM      2  C   UNL     1       1.159   2.087   0.002  0.00  0.00    +0.002 A 
ATOM      3  C   UNL     1      -0.017   1.397   0.010  0.00  0.00    +0.026 A 
ATOM      4  C   UNL     1       0.002  -0.004   0.002  0.00  0.00    +0.052 A 
ATOM      5  C   UNL     1       1.246  -0.680  -0.013  0.00  0.00    +0.038 A 
ATOM      6  C   UNL     1       2.435   0.057  -0.021  0.00  0.00    +0.013 A 
ATOM      7  C   UNL     1       1.241  -2.098  -0.021  0.00  0.00    +0.132 A 
ATOM      8  N   UNL     1       0.072  -2.721  -0.014  0.00  0.00    -0.201 NA
ATOM      9  C   UNL     1      -1.074  -2.047   0.000  0.00  0.00    +0.198 A 
ATOM     10  N   UNL     1      -1.127  -0.729   0.008  0.00  0.00    -0.327 N 
ATOM     11  N   UNL     1      -2.261  -2.757   0.008  0.00  0.00    -0.299 N 
ATOM     12  C   UNL     1      -2.327  -3.684  -1.130  0.00  0.00    +0.125 C 
ATOM     13  C   UNL     1      -3.564  -4.576  -0.987  0.00  0.00    +0.128 C 
ATOM     14  N   UNL     1      -4.744  -3.714  -0.818  0.00  0.00    -0.174 NA
ATOM     15  C   UNL     1      -4.699  -2.667   0.214  0.00  0.00    +0.128 C 
ATOM     16  C   UNL     1      -3.417  -1.851   0.024  0.00  0.00    +0.125 C 
ATOM     17  H   UNL     1      -2.104  -0.224   0.020  0.00  0.00    +0.169 HD
ENDROOT
BRANCH  14  18
ATOM     18  S   UNL     1      -6.087  -3.917  -1.765  0.00  0.00    +0.061 S 
ATOM     19  O   UNL     1      -6.063  -5.262  -2.222  0.00  0.00    -0.153 OA
ATOM     20  O   UNL     1      -7.183  -3.379  -1.037  0.00  0.00    -0.153 OA
BRANCH  18  21
ATOM     21  C   UNL     1      -5.880  -2.898  -3.188  0.00  0.00    +0.106 A 
ATOM     22  C   UNL     1      -6.341  -1.595  -3.178  0.00  0.00    +0.030 A 
ATOM     23  C   UNL     1      -6.174  -0.794  -4.292  0.00  0.00    +0.022 A 
ATOM     24  C   UNL     1      -5.553  -1.300  -5.421  0.00  0.00    +0.041 A 
ATOM     25  C   UNL     1      -5.097  -2.606  -5.432  0.00  0.00    +0.022 A 
ATOM     26  C   UNL     1      -5.260  -3.404  -4.315  0.00  0.00    +0.030 A 
ATOM     27 CL   UNL     1      -5.348  -0.296  -6.822  0.00  0.00    -0.084 Cl
ENDBRANCH  18  21
ENDBRANCH  14  18
BRANCH   7  28
ATOM     28  N   UNL     1       2.421  -2.809  -0.037  0.00  0.00    -0.326 N 
ATOM     29  H   UNL     1       3.384  -2.276  -0.043  0.00  0.00    +0.148 HD
BRANCH  28  30
ATOM     30  C   UNL     1       2.394  -4.273  -0.045  0.00  0.00    +0.130 C 
BRANCH  30  31
ATOM     31  C   UNL     1       3.827  -4.810  -0.062  0.00  0.00    +0.174 C 
BRANCH  31  32
ATOM     32  O   UNL     1       4.484  -4.451   1.155  0.00  0.00    -0.393 OA
ATOM     33  H   UNL     1       5.529  -4.752   1.326  0.00  0.00    +0.209 HD
ENDBRANCH  31  32
ENDBRANCH  30  31
ENDBRANCH  28  30
ENDBRANCH   7  28
TORSDOF 6
