REMARK  Name = ZINC45631345
REMARK  6 active torsions:
REMARK  status: ('A' for Active; 'I' for Inactive)
REMARK    1  A    between atoms: C_1  and  C_2
REMARK    2  A    between atoms: N_11  and  C_12
REMARK    3  A    between atoms: C_12  and  C_13
REMARK    4  A    between atoms: C_19  and  S_26
REMARK    5  A    between atoms: C_23  and  C_25
REMARK    6  A    between atoms: S_26  and  N_29
REMARK                            x       y       z     vdW  Elec       q    Type
REMARK                         _______ _______ _______ _____ _____    ______ ____
ROOT
ATOM      1  C   UNL     1      -0.561  -1.363   3.031  0.00  0.00    +0.237 C 
ATOM      2  O   UNL     1      -0.876  -2.256   2.274  0.00  0.00    -0.274 OA
ATOM      3  N   UNL     1      -1.036  -1.349   4.293  0.00  0.00    -0.267 N 
ATOM      4  C   UNL     1      -0.746  -0.370   5.248  0.00  0.00    +0.040 A 
ATOM      5  C   UNL     1       0.060   0.765   5.135  0.00  0.00    +0.026 A 
ATOM      6  C   UNL     1       0.218   1.615   6.209  0.00  0.00    +0.030 A 
ATOM      7  C   UNL     1      -0.421   1.349   7.407  0.00  0.00    +0.105 A 
ATOM      8  C   UNL     1      -1.220   0.228   7.526  0.00  0.00    +0.034 A 
ATOM      9  C   UNL     1      -1.381  -0.627   6.452  0.00  0.00    -0.022 A 
ATOM     10  C   UNL     1      -2.183  -1.901   6.310  0.00  0.00    +0.059 C 
ATOM     11  C   UNL     1      -1.937  -2.354   4.862  0.00  0.00    +0.083 C 
ATOM     12  C   UNL     1      -1.273  -3.733   4.845  0.00  0.00    +0.029 C 
ENDROOT
BRANCH   7  13
ATOM     13  S   UNL     1      -0.216   2.437   8.778  0.00  0.00    +0.056 S 
ATOM     14  O   UNL     1      -0.482   1.673   9.946  0.00  0.00    -0.153 OA
ATOM     15  O   UNL     1       1.015   3.117   8.576  0.00  0.00    -0.153 OA
BRANCH  13  16
ATOM     16  N   UNL     1      -1.410   3.580   8.678  0.00  0.00    -0.204 NA
ATOM     17  H   UNL     1      -2.050   3.552   7.949  0.00  0.00    +0.144 HD
ATOM     18  H   UNL     1      -1.470   4.279   9.349  0.00  0.00    +0.144 HD
ENDBRANCH  13  16
ENDBRANCH   7  13
BRANCH   1  19
ATOM     19  C   UNL     1       0.363  -0.268   2.562  0.00  0.00    +0.201 C 
BRANCH  19  29
ATOM     20  C   UNL     1      -0.019   1.526   0.010  0.00  0.00    +0.028 C 
ATOM     21  C   UNL     1       0.002  -0.004   0.002  0.00  0.00    +0.075 C 
ATOM     22  C   UNL     1       0.778  -0.520  -1.221  0.00  0.00    +0.059 C 
ATOM     23  C   UNL     1       1.931  -1.304  -0.635  0.00  0.00    -0.025 A 
ATOM     24  C   UNL     1       2.960  -1.995  -1.246  0.00  0.00    +0.005 A 
ATOM     25  C   UNL     1       3.911  -2.644  -0.481  0.00  0.00    +0.000 A 
ATOM     26  C   UNL     1       3.831  -2.599   0.899  0.00  0.00    +0.002 A 
ATOM     27  C   UNL     1       2.807  -1.911   1.513  0.00  0.00    +0.023 A 
ATOM     28  C   UNL     1       1.842  -1.253   0.747  0.00  0.00    +0.034 A 
ATOM     29  N   UNL     1       0.735  -0.509   1.166  0.00  0.00    -0.318 N 
ENDBRANCH  19  29
ENDBRANCH   1  19
TORSDOF 4
