REMARK  Name = ZINC12455858
REMARK  8 active torsions:
REMARK  status: ('A' for Active; 'I' for Inactive)
REMARK    1  A    between atoms: C_5  and  N_7
REMARK    2  A    between atoms: C_12  and  C_13
REMARK    3  A    between atoms: C_12  and  N_71
REMARK    4  A    between atoms: C_17  and  O_19
REMARK    5  A    between atoms: O_19  and  C_20
REMARK    6  A    between atoms: C_20  and  C_21
REMARK    7  A    between atoms: C_28  and  C_30
REMARK    8  A    between atoms: C_31  and  C_32
REMARK                            x       y       z     vdW  Elec       q    Type
REMARK                         _______ _______ _______ _____ _____    ______ ____
ROOT
ATOM      1  C   UNL     1       1.216  -0.690  -0.025  0.00  0.00    -0.060 A 
ATOM      2  C   UNL     1       0.010  -0.013  -0.015  0.00  0.00    +0.002 A 
ATOM      3  C   UNL     1      -0.010   1.369  -0.012  0.00  0.00    +0.004 A 
ATOM      4  C   UNL     1       1.176   2.078  -0.017  0.00  0.00    +0.045 A 
ATOM      5  C   UNL     1       2.387   1.402  -0.026  0.00  0.00    +0.121 A 
ATOM      6  C   UNL     1       2.404   0.014  -0.030  0.00  0.00    +0.047 A 
ENDROOT
BRANCH   1   7
ATOM      7  C   UNL     1       1.233  -2.197  -0.029  0.00  0.00    -0.043 C 
BRANCH   7  13
ATOM      8  N   UNL     1       0.290  -4.246  -3.601  0.00  0.00    -0.331 N 
ATOM      9  C   UNL     1       1.553  -4.580  -2.929  0.00  0.00    +0.086 C 
ATOM     10  C   UNL     1       1.485  -4.128  -1.468  0.00  0.00    -0.059 C 
ATOM     11  C   UNL     1      -0.033  -2.349  -2.088  0.00  0.00    -0.059 C 
ATOM     12  C   UNL     1       0.035  -2.800  -3.549  0.00  0.00    +0.086 C 
ATOM     13  N   UNL     1       1.251  -2.670  -1.430  0.00  0.00    +0.384 N 
ATOM     14  H   UNL     1       2.011  -2.196  -1.933  0.00  0.00    -0.081 HD
BRANCH   8  19
ATOM     15  C   UNL     1       0.430  -6.517  -6.489  0.00  0.00    +0.002 A 
ATOM     16  C   UNL     1       0.283  -5.623  -7.534  0.00  0.00    +0.003 A 
ATOM     17  C   UNL     1       0.138  -4.272  -7.277  0.00  0.00    +0.040 A 
ATOM     18  C   UNL     1       0.140  -3.811  -5.973  0.00  0.00    +0.144 A 
ATOM     19  C   UNL     1       0.287  -4.708  -4.921  0.00  0.00    +0.065 A 
ATOM     20  C   UNL     1       0.437  -6.063  -5.184  0.00  0.00    +0.026 A 
ATOM     21  F   UNL     1      -0.001  -2.491  -5.723  0.00  0.00    -0.204 F 
ENDBRANCH   8  19
ENDBRANCH   7  13
ENDBRANCH   1   7
BRANCH   5  22
ATOM     22  O   UNL     1       3.555   2.097  -0.031  0.00  0.00    -0.492 OA
BRANCH  22  23
ATOM     23  C   UNL     1       3.461   3.523  -0.026  0.00  0.00    +0.234 C 
BRANCH  23  24
ATOM     24  C   UNL     1       4.867   4.126  -0.033  0.00  0.00    +0.044 C 
ATOM     25  C   UNL     1       4.769   5.649  -0.154  0.00  0.00    +0.010 C 
ATOM     26  C   UNL     1       6.175   6.250  -0.194  0.00  0.00    +0.019 C 
ATOM     27  C   UNL     1       6.907   5.915   1.109  0.00  0.00    +0.108 C 
ATOM     28  N   UNL     1       6.880   4.459   1.306  0.00  0.00    -0.298 N 
ATOM     29  C   UNL     1       5.584   3.766   1.272  0.00  0.00    +0.115 C 
ATOM     30  C   UNL     1       8.020   3.772   1.514  0.00  0.00    +0.239 C 
ATOM     31  O   UNL     1       7.977   2.582   1.768  0.00  0.00    -0.271 OA
BRANCH  30  32
ATOM     32  C   UNL     1       9.268   4.434   1.438  0.00  0.00    +0.068 C 
ATOM     33  C   UNL     1      10.420   3.724   1.540  0.00  0.00    +0.020 C 
BRANCH  33  34
ATOM     34  C   UNL     1      11.669   4.387   1.464  0.00  0.00    +0.012 A 
ATOM     35  C   UNL     1      12.950   3.853   1.544  0.00  0.00    +0.015 A 
ATOM     36  C   UNL     1      13.999   4.732   1.437  0.00  0.00    +0.008 A 
ATOM     37  C   UNL     1      13.741   6.055   1.260  0.00  0.00    +0.046 A 
ATOM     38  S   UNL     1      12.009   6.122   1.230  0.00  0.00    -0.097 S 
ENDBRANCH  33  34
ENDBRANCH  30  32
ENDBRANCH  23  24
ENDBRANCH  22  23
ENDBRANCH   5  22
TORSDOF 8
