REMARK  Name = ZINC36080257
REMARK  8 active torsions:
REMARK  status: ('A' for Active; 'I' for Inactive)
REMARK    1  A    between atoms: C_1  and  C_2
REMARK    2  A    between atoms: C_2  and  O_3
REMARK    3  A    between atoms: O_3  and  C_4
REMARK    4  A    between atoms: C_4  and  C_6
REMARK    5  A    between atoms: C_7  and  C_21
REMARK    6  A    between atoms: C_12  and  C_14
REMARK    7  A    between atoms: C_21  and  N_22
REMARK    8  A    between atoms: C_27  and  C_29
REMARK                            x       y       z     vdW  Elec       q    Type
REMARK                         _______ _______ _______ _____ _____    ______ ____
ROOT
ATOM      1  C   UNL     1      -3.042  -2.555   0.216  0.00  0.00    +0.076 C 
ATOM      2  C   UNL     1      -3.078  -3.866  -0.109  0.00  0.00    +0.008 C 
ATOM      3  N   UNL     1      -4.263  -4.500  -0.349  0.00  0.00    -0.274 N 
ATOM      4  C   UNL     1      -5.456  -3.895  -0.284  0.00  0.00    +0.304 C 
ATOM      5  O   UNL     1      -6.458  -4.544  -0.514  0.00  0.00    -0.252 OA
ATOM      6  N   UNL     1      -5.582  -2.590   0.028  0.00  0.00    -0.288 N 
ATOM      7  C   UNL     1      -4.362  -1.816   0.311  0.00  0.00    +0.143 C 
ATOM      8  H   UNL     1      -4.240  -5.442  -0.579  0.00  0.00    +0.156 HD
ATOM      9  H   UNL     1      -6.456  -2.171   0.069  0.00  0.00    +0.151 HD
ENDROOT
BRANCH   7  10
ATOM     10  C   UNL     1      -4.477  -1.249   1.702  0.00  0.00    -0.022 A 
ATOM     11  C   UNL     1      -4.868  -2.063   2.749  0.00  0.00    +0.008 A 
ATOM     12  C   UNL     1      -4.974  -1.544   4.026  0.00  0.00    +0.038 A 
ATOM     13  C   UNL     1      -4.688  -0.209   4.256  0.00  0.00    +0.123 A 
ATOM     14  C   UNL     1      -4.296   0.605   3.207  0.00  0.00    +0.038 A 
ATOM     15  C   UNL     1      -4.186   0.083   1.932  0.00  0.00    +0.008 A 
ATOM     16  F   UNL     1      -4.791   0.299   5.504  0.00  0.00    -0.205 F 
ENDBRANCH   7  10
BRANCH   1  17
ATOM     17  C   UNL     1      -1.815  -1.897   0.464  0.00  0.00    +0.339 C 
ATOM     18  O   UNL     1      -0.780  -2.535   0.505  0.00  0.00    -0.245 OA
BRANCH  17  19
ATOM     19  O   UNL     1      -1.793  -0.561   0.656  0.00  0.00    -0.462 OA
BRANCH  19  21
ATOM     20  C   UNL     1      -0.693   1.545   1.094  0.00  0.00    +0.048 C 
ATOM     21  C   UNL     1      -0.519   0.037   0.902  0.00  0.00    +0.229 C 
ENDBRANCH  19  21
ENDBRANCH  17  19
ENDBRANCH   1  17
BRANCH   2  22
ATOM     22  C   UNL     1      -1.789  -4.640  -0.210  0.00  0.00    -0.026 C 
BRANCH  22  23
ATOM     23  N   UNL     1      -1.415  -5.143   1.119  0.00  0.00    +0.385 N 
ATOM     24  C   UNL     1      -2.444  -6.077   1.594  0.00  0.00    -0.078 C 
ATOM     25  C   UNL     1      -2.100  -6.541   3.011  0.00  0.00    -0.019 C 
ATOM     26  C   UNL     1      -0.739  -7.243   2.996  0.00  0.00    -0.003 C 
ATOM     27  C   UNL     1       0.312  -6.285   2.429  0.00  0.00    -0.016 C 
ATOM     28  C   UNL     1      -0.121  -5.829   1.034  0.00  0.00    -0.071 C 
ATOM     29  C   UNL     1       0.927  -4.872   0.463  0.00  0.00    -0.013 C 
ATOM     30  H   UNL     1      -1.343  -4.369   1.762  0.00  0.00    -0.081 HD
ENDBRANCH  22  23
ENDBRANCH   2  22
TORSDOF 6
