REMARK  Name = ZINC32704034
REMARK  8 active torsions:
REMARK  status: ('A' for Active; 'I' for Inactive)
REMARK    1  A    between atoms: C_1  and  N_2
REMARK    2  A    between atoms: N_2  and  C_3
REMARK    3  A    between atoms: N_2  and  C_4
REMARK    4  A    between atoms: C_4  and  C_11
REMARK    5  A    between atoms: C_11  and  N_12
REMARK    6  A    between atoms: C_13  and  C_15
REMARK    7  A    between atoms: N_17  and  C_24
REMARK    8  A    between atoms: C_18  and  C_21
REMARK                            x       y       z     vdW  Elec       q    Type
REMARK                         _______ _______ _______ _____ _____    ______ ____
ROOT
ATOM      1  N   UNL     1      -1.907   1.756   1.331  0.00  0.00    -0.312 N 
ATOM      2  C   UNL     1      -2.296   2.596   2.310  0.00  0.00    +0.260 C 
ATOM      3  O   UNL     1      -2.849   2.159   3.303  0.00  0.00    -0.269 OA
ATOM      4  H   UNL     1      -1.466   2.104   0.540  0.00  0.00    +0.149 HD
ENDROOT
BRANCH   2   5
ATOM      5  C   UNL     1      -2.054   4.033   2.181  0.00  0.00    +0.123 C 
ATOM      6  N   UNL     1      -1.482   4.606   1.171  0.00  0.00    -0.178 NA
ATOM      7  N   UNL     1      -1.372   5.990   1.294  0.00  0.00    -0.212 N 
ATOM      8  C   UNL     1      -1.958   6.403   2.578  0.00  0.00    +0.189 C 
ATOM      9  C   UNL     1      -2.438   5.079   3.203  0.00  0.00    +0.096 C 
BRANCH   7  10
ATOM     10  C   UNL     1      -0.798   6.845   0.351  0.00  0.00    +0.052 A 
ATOM     11  C   UNL     1      -0.742   8.212   0.593  0.00  0.00    +0.025 A 
ATOM     12  C   UNL     1      -0.174   9.055  -0.341  0.00  0.00    +0.002 A 
ATOM     13  C   UNL     1       0.339   8.540  -1.518  0.00  0.00    +0.000 A 
ATOM     14  C   UNL     1       0.285   7.180  -1.763  0.00  0.00    +0.002 A 
ATOM     15  C   UNL     1      -0.276   6.330  -0.830  0.00  0.00    +0.025 A 
ENDBRANCH   7  10
BRANCH   8  16
ATOM     16  C   UNL     1      -3.122   7.334   2.354  0.00  0.00    +0.233 C 
ATOM     17  O   UNL     1      -3.662   7.379   1.270  0.00  0.00    -0.274 OA
ATOM     18  N   UNL     1      -3.562   8.117   3.360  0.00  0.00    -0.328 N 
ATOM     19  H   UNL     1      -3.130   8.081   4.227  0.00  0.00    +0.145 HD
ATOM     20  H   UNL     1      -4.311   8.716   3.215  0.00  0.00    +0.145 HD
ENDBRANCH   8  16
ENDBRANCH   2   5
BRANCH   1  21
ATOM     21  C   UNL     1      -2.150   0.317   1.460  0.00  0.00    +0.092 C 
BRANCH  21  22
ATOM     22  C   UNL     1      -1.749  -0.387   0.162  0.00  0.00    -0.050 C 
ATOM     23  C   UNL     1      -2.725  -1.491  -0.141  0.00  0.00    -0.010 C 
ATOM     24  C   UNL     1      -3.417  -2.030   1.125  0.00  0.00    -0.001 C 
ATOM     25  C   UNL     1      -2.449  -2.189   2.313  0.00  0.00    -0.000 C 
ATOM     26  C   UNL     1      -1.121  -2.765   1.901  0.00  0.00    -0.000 C 
ATOM     27  C   UNL     1      -0.145  -1.602   1.631  0.00  0.00    -0.001 C 
ATOM     28  C   UNL     1      -0.344  -1.004   0.319  0.00  0.00    -0.010 C 
BRANCH  22  30
ATOM     29  C   UNL     1      -1.417  -0.109  -2.198  0.00  0.00    -0.096 C 
ATOM     30  N   UNL     1      -1.741   0.582  -0.942  0.00  0.00    +0.381 N 
ATOM     31  C   UNL     1      -3.066   1.206  -1.055  0.00  0.00    -0.096 C 
ATOM     32  H   UNL     1      -1.049   1.293  -0.761  0.00  0.00    -0.082 HD
ENDBRANCH  22  30
ENDBRANCH  21  22
ENDBRANCH   1  21
TORSDOF 6
