REMARK  Name = ZINC40149512
REMARK  12 active torsions:
REMARK  status: ('A' for Active; 'I' for Inactive)
REMARK    1  A    between atoms: C_1  and  C_2
REMARK    2  A    between atoms: C_2  and  N_3
REMARK    3  A    between atoms: N_3  and  C_4
REMARK    4  A    between atoms: C_5  and  N_20
REMARK    5  A    between atoms: N_6  and  C_13
REMARK    6  A    between atoms: C_13  and  C_14
REMARK    7  A    between atoms: C_21  and  C_23
REMARK    8  A    between atoms: C_23  and  N_24
REMARK    9  A    between atoms: N_24  and  C_25
REMARK   10  A    between atoms: N_24  and  C_28
REMARK   11  A    between atoms: C_28  and  C_30
REMARK   12  A    between atoms: C_28  and  C_31
REMARK                            x       y       z     vdW  Elec       q    Type
REMARK                         _______ _______ _______ _____ _____    ______ ____
ROOT
ATOM      1  N   UNL     1       0.547  -0.530  -0.713  0.00  0.00    -0.266 N 
ATOM      2  C   UNL     1       0.007  -0.806  -1.919  0.00  0.00    +0.203 C 
ATOM      3  O   UNL     1       0.709  -1.222  -2.817  0.00  0.00    -0.277 OA
ENDROOT
BRANCH   1   4
ATOM      4  C   UNL     1       1.941  -0.639  -0.523  0.00  0.00    +0.140 A 
ATOM      5  C   UNL     1       2.462  -1.604   0.314  0.00  0.00    +0.128 A 
ATOM      6  N   UNL     1       3.825  -1.685   0.479  0.00  0.00    -0.276 N 
ATOM      7  C   UNL     1       4.641  -0.833  -0.168  0.00  0.00    +0.331 A 
ATOM      8  O   UNL     1       5.843  -0.920  -0.008  0.00  0.00    -0.246 OA
ATOM      9  N   UNL     1       4.151   0.114  -0.988  0.00  0.00    -0.273 N 
ATOM     10  H   UNL     1       4.761   0.717  -1.442  0.00  0.00    +0.173 HD
ATOM     11  C   UNL     1       2.824   0.232  -1.188  0.00  0.00    +0.277 A 
ATOM     12  O   UNL     1       2.391   1.091  -1.938  0.00  0.00    -0.266 OA
BRANCH   5  13
ATOM     13  N   UNL     1       1.629  -2.474   0.975  0.00  0.00    -0.343 N 
ATOM     14  H   UNL     1       0.667  -2.376   0.900  0.00  0.00    +0.144 HD
ATOM     15  H   UNL     1       2.003  -3.186   1.517  0.00  0.00    +0.144 HD
ENDBRANCH   5  13
BRANCH   6  16
ATOM     16  C   UNL     1       4.392  -2.705   1.365  0.00  0.00    +0.163 C 
BRANCH  16  17
ATOM     17  C   UNL     1       4.665  -3.959   0.576  0.00  0.00    -0.028 A 
ATOM     18  C   UNL     1       3.687  -4.929   0.458  0.00  0.00    +0.005 A 
ATOM     19  C   UNL     1       3.937  -6.080  -0.266  0.00  0.00    +0.000 A 
ATOM     20  C   UNL     1       5.166  -6.261  -0.872  0.00  0.00    +0.000 A 
ATOM     21  C   UNL     1       6.144  -5.291  -0.755  0.00  0.00    +0.000 A 
ATOM     22  C   UNL     1       5.893  -4.139  -0.035  0.00  0.00    +0.005 A 
ENDBRANCH  16  17
ENDBRANCH   6  16
ENDBRANCH   1   4
BRANCH   1  24
ATOM     23  C   UNL     1      -0.368   1.409   0.462  0.00  0.00    +0.025 C 
ATOM     24  C   UNL     1      -0.314  -0.118   0.398  0.00  0.00    +0.110 C 
ENDBRANCH   1  24
BRANCH   2  25
ATOM     25  C   UNL     1      -1.468  -0.598  -2.149  0.00  0.00    +0.020 C 
BRANCH  25  26
ATOM     26  N   UNL     1      -1.804  -0.967  -3.530  0.00  0.00    +0.392 N 
ATOM     27  H   UNL     1      -1.193  -0.479  -4.168  0.00  0.00    -0.080 HD
BRANCH  26  28
ATOM     28  C   UNL     1      -1.637  -2.416  -3.704  0.00  0.00    -0.067 C 
ATOM     29  C   UNL     1      -0.476  -2.894  -4.579  0.00  0.00    -0.017 C 
ATOM     30  C   UNL     1      -1.913  -2.998  -5.092  0.00  0.00    -0.017 C 
ENDBRANCH  26  28
BRANCH  26  31
ATOM     31  C   UNL     1      -3.198  -0.598  -3.810  0.00  0.00    -0.038 C 
ATOM     32  C   UNL     1      -4.076  -0.978  -2.616  0.00  0.00    -0.008 C 
BRANCH  31  33
ATOM     33  C   UNL     1      -3.287   0.888  -4.046  0.00  0.00    -0.043 A 
ATOM     34  C   UNL     1      -2.240   1.710  -3.673  0.00  0.00    +0.003 A 
ATOM     35  C   UNL     1      -2.321   3.073  -3.889  0.00  0.00    +0.000 A 
ATOM     36  C   UNL     1      -3.449   3.615  -4.478  0.00  0.00    +0.001 A 
ATOM     37  C   UNL     1      -4.496   2.793  -4.851  0.00  0.00    +0.020 A 
ATOM     38  C   UNL     1      -4.413   1.428  -4.640  0.00  0.00    +0.043 A 
ATOM     39 CL   UNL     1      -5.725   0.395  -5.115  0.00  0.00    -0.083 Cl
ENDBRANCH  31  33
ENDBRANCH  26  31
ENDBRANCH  25  26
ENDBRANCH   2  25
TORSDOF 10
