REMARK  Name = ZINC44713721
REMARK  7 active torsions:
REMARK  status: ('A' for Active; 'I' for Inactive)
REMARK    1  A    between atoms: C_1  and  C_2
REMARK    2  A    between atoms: C_3  and  C_9
REMARK    3  A    between atoms: C_4  and  C_8
REMARK    4  A    between atoms: C_9  and  C_11
REMARK    5  A    between atoms: C_9  and  N_12
REMARK    6  A    between atoms: C_13  and  C_15
REMARK    7  A    between atoms: C_26  and  C_28
REMARK                            x       y       z     vdW  Elec       q    Type
REMARK                         _______ _______ _______ _____ _____    ______ ____
ROOT
ATOM      1  C   UNL     1      -2.095  -1.536  -5.249  0.00  0.00    +0.100 C 
ATOM      2  C   UNL     1      -1.731  -2.965  -5.710  0.00  0.00    +0.121 C 
ATOM      3  N   UNL     1      -2.480  -3.152  -6.975  0.00  0.00    -0.296 N 
ATOM      4  C   UNL     1      -2.376  -1.842  -7.662  0.00  0.00    +0.115 C 
ATOM      5  C   UNL     1      -2.517  -0.802  -6.533  0.00  0.00    -0.004 C 
ATOM      6  C   UNL     1      -1.593   0.384  -6.791  0.00  0.00    -0.010 C 
ATOM      7  C   UNL     1      -2.067   1.133  -8.040  0.00  0.00    -0.082 C 
ATOM      8  N   UNL     1      -3.446   1.595  -7.842  0.00  0.00    +0.379 N 
ATOM      9  C   UNL     1      -4.343   0.443  -7.687  0.00  0.00    -0.082 C 
ATOM     10  C   UNL     1      -3.965  -0.334  -6.423  0.00  0.00    -0.010 C 
ATOM     11  C   UNL     1      -3.112  -4.262  -7.404  0.00  0.00    +0.247 C 
ATOM     12  O   UNL     1      -3.196  -5.233  -6.678  0.00  0.00    -0.270 OA
ATOM     13  H   UNL     1      -3.491   2.168  -7.013  0.00  0.00    -0.086 HD
ATOM     14  H   UNL     1      -3.735   2.139  -8.640  0.00  0.00    -0.086 HD
ENDROOT
BRANCH  11  15
ATOM     15  C   UNL     1      -3.704  -4.299  -8.759  0.00  0.00    +0.040 A 
ATOM     16  C   UNL     1      -3.250  -3.422  -9.745  0.00  0.00    +0.033 A 
ATOM     17  C   UNL     1      -3.806  -3.461 -11.008  0.00  0.00    +0.043 A 
ATOM     18  C   UNL     1      -4.812  -4.367 -11.297  0.00  0.00    +0.040 A 
ATOM     19  C   UNL     1      -5.267  -5.239 -10.323  0.00  0.00    +0.043 A 
ATOM     20  C   UNL     1      -4.714  -5.214  -9.057  0.00  0.00    +0.033 A 
ATOM     21 CL   UNL     1      -6.529  -6.371 -10.694  0.00  0.00    -0.083 Cl
ATOM     22 CL   UNL     1      -3.244  -2.371 -12.237  0.00  0.00    -0.083 Cl
ENDBRANCH  11  15
BRANCH   1  24
ATOM     23  N   UNL     1      -1.067   0.067  -3.669  0.00  0.00    -0.308 N 
ATOM     24  C   UNL     1      -0.897  -0.864  -4.629  0.00  0.00    +0.219 C 
ATOM     25  O   UNL     1       0.221  -1.160  -4.995  0.00  0.00    -0.275 OA
ATOM     26  H   UNL     1      -1.962   0.303  -3.377  0.00  0.00    +0.149 HD
BRANCH  23  27
ATOM     27  C   UNL     1       0.097   0.720  -3.067  0.00  0.00    +0.104 C 
ATOM     28  C   UNL     1       0.631  -0.142  -1.922  0.00  0.00    +0.033 C 
BRANCH  27  31
ATOM     29  C   UNL     1      -2.401   1.327  -1.286  0.00  0.00    +0.065 C 
ATOM     30  C   UNL     1      -1.386   2.333  -1.762  0.00  0.00    +0.038 A 
ATOM     31  C   UNL     1      -0.305   2.071  -2.533  0.00  0.00    +0.015 A 
ATOM     32  C   UNL     1       0.374   3.276  -2.747  0.00  0.00    +0.065 A 
ATOM     33  N   UNL     1      -0.277   4.226  -2.126  0.00  0.00    -0.179 NA
ATOM     34  N   UNL     1      -1.394   3.657  -1.502  0.00  0.00    -0.281 N 
ATOM     35  H   UNL     1      -2.055   4.130  -0.974  0.00  0.00    +0.189 HD
ATOM     36  C   UNL     1       1.636   3.448  -3.552  0.00  0.00    +0.068 C 
ENDBRANCH  27  31
ENDBRANCH  23  27
ENDBRANCH   1  24
TORSDOF 4
