REMARK  Name = ZINC01559306
REMARK  5 active torsions:
REMARK  status: ('A' for Active; 'I' for Inactive)
REMARK    1  A    between atoms: C_1  and  C_2
REMARK    2  A    between atoms: C_5  and  S_8
REMARK    3  A    between atoms: S_8  and  N_11
REMARK    4  A    between atoms: N_14  and  C_15
REMARK    5  A    between atoms: C_15  and  C_17
REMARK                            x       y       z     vdW  Elec       q    Type
REMARK                         _______ _______ _______ _____ _____    ______ ____
ROOT
ATOM      1  N   UNL     1       1.223  -2.923  -1.606  0.00  0.00    -0.169 N 
ATOM      2  C   UNL     1       2.269  -2.633  -2.405  0.00  0.00    +0.324 C 
ATOM      3  O   UNL     1       3.220  -2.017  -1.962  0.00  0.00    -0.251 OA
ATOM      4  N   UNL     1       2.262  -3.025  -3.694  0.00  0.00    -0.262 N 
ATOM      5  H   UNL     1       0.465  -3.414  -1.959  0.00  0.00    +0.178 HD
ATOM      6  H   UNL     1       1.504  -3.516  -4.047  0.00  0.00    +0.157 HD
ENDROOT
BRANCH   1   7
ATOM      7  S   UNL     1       1.232  -2.441  -0.022  0.00  0.00    +0.076 S 
ATOM      8  O   UNL     1       2.489  -2.832   0.515  0.00  0.00    -0.150 OA
ATOM      9  O   UNL     1      -0.002  -2.866   0.539  0.00  0.00    -0.150 OA
BRANCH   7  14
ATOM     10  C   UNL     1       1.151   3.592   0.010  0.00  0.00    +0.044 C 
ATOM     11  C   UNL     1       1.171   2.086   0.002  0.00  0.00    -0.050 A 
ATOM     12  C   UNL     1      -0.017   1.378   0.010  0.00  0.00    +0.005 A 
ATOM     13  C   UNL     1       0.002  -0.004   0.002  0.00  0.00    +0.029 A 
ATOM     14  C   UNL     1       1.208  -0.679  -0.013  0.00  0.00    +0.109 A 
ATOM     15  C   UNL     1       2.396   0.029  -0.021  0.00  0.00    +0.029 A 
ATOM     16  C   UNL     1       2.377   1.411  -0.015  0.00  0.00    +0.005 A 
ENDBRANCH   7  14
ENDBRANCH   1   7
BRANCH   4  17
ATOM     17  C   UNL     1       3.308  -2.735  -4.493  0.00  0.00    +0.087 C 
ATOM     18  S   UNL     1       4.646  -1.868  -3.869  0.00  0.00    -0.035 S 
BRANCH  17  19
ATOM     19  C   UNL     1       3.300  -3.165  -5.904  0.00  0.00    +0.004 A 
ATOM     20  C   UNL     1       2.102  -3.190  -6.623  0.00  0.00    +0.011 A 
ATOM     21  C   UNL     1       2.103  -3.587  -7.943  0.00  0.00    +0.016 A 
ATOM     22  C   UNL     1       3.285  -3.971  -8.554  0.00  0.00    +0.018 A 
ATOM     23  C   UNL     1       4.474  -3.954  -7.845  0.00  0.00    +0.016 A 
ATOM     24  C   UNL     1       4.489  -3.553  -6.526  0.00  0.00    +0.011 A 
ATOM     25 BR   UNL     1       3.274  -4.521 -10.363  0.00  0.00    -0.050 Br
ENDBRANCH  17  19
ENDBRANCH   4  17
TORSDOF 4
