REMARK  Name = ZINC43741934
REMARK  9 active torsions:
REMARK  status: ('A' for Active; 'I' for Inactive)
REMARK    1  A    between atoms: C_1  and  C_2
REMARK    2  A    between atoms: C_3  and  C_4
REMARK    3  A    between atoms: C_4  and  O_39
REMARK    4  A    between atoms: C_9  and  C_38
REMARK    5  A    between atoms: C_11  and  C_29
REMARK    6  A    between atoms: C_19  and  O_24
REMARK    7  A    between atoms: C_32  and  N_35
REMARK    8  A    between atoms: N_35  and  C_36
REMARK    9  A    between atoms: N_35  and  C_37
REMARK                            x       y       z     vdW  Elec       q    Type
REMARK                         _______ _______ _______ _____ _____    ______ ____
ROOT
ATOM      1  C   UNL     1      -0.506  -2.055  -0.871  0.00  0.00    +0.132 C 
ATOM      2  C   UNL     1       0.735  -2.365   0.000  0.00  0.00    +0.049 C 
ATOM      3  C   UNL     1       0.268  -3.368   1.089  0.00  0.00    +0.008 C 
ATOM      4  C   UNL     1      -1.241  -3.103   1.179  0.00  0.00    +0.006 C 
ATOM      5  C   UNL     1      -1.622  -2.938  -0.317  0.00  0.00    +0.012 C 
ATOM      6  C   UNL     1      -3.021  -2.355  -0.378  0.00  0.00    +0.023 C 
ATOM      7  C   UNL     1      -3.990  -3.415   0.173  0.00  0.00    +0.046 C 
ATOM      8  C   UNL     1      -3.516  -3.897   1.534  0.00  0.00    -0.057 C 
ATOM      9  C   UNL     1      -4.415  -3.956   2.489  0.00  0.00    -0.038 C 
ATOM     10  C   UNL     1      -5.813  -3.503   2.130  0.00  0.00    +0.039 C 
ATOM     11  C   UNL     1      -6.848  -4.408   2.795  0.00  0.00    +0.069 C 
ATOM     12  C   UNL     1      -6.564  -4.467   4.297  0.00  0.00    +0.173 C 
ATOM     13  C   UNL     1      -5.232  -5.168   4.536  0.00  0.00    +0.104 C 
ATOM     14  C   UNL     1      -4.087  -4.423   3.870  0.00  0.00    +0.092 C 
ATOM     15  C   UNL     1      -2.842  -5.312   3.848  0.00  0.00    +0.040 C 
ATOM     16  C   UNL     1      -1.710  -4.544   3.167  0.00  0.00    +0.011 C 
ATOM     17  C   UNL     1      -2.065  -4.256   1.731  0.00  0.00    +0.019 C 
ATOM     18  O   UNL     1      -6.507  -3.130   4.823  0.00  0.00    -0.346 OA
ATOM     19  C   UNL     1      -7.837  -2.878   5.338  0.00  0.00    +0.191 C 
ATOM     20  C   UNL     1      -8.229  -4.270   5.895  0.00  0.00    +0.191 C 
ATOM     21  O   UNL     1      -7.617  -5.180   4.958  0.00  0.00    -0.346 OA
ATOM     22  C   UNL     1      -1.597  -4.301  -1.012  0.00  0.00    +0.015 C 
ENDROOT
BRANCH   7  23
ATOM     23  C   UNL     1      -4.044  -4.584  -0.777  0.00  0.00    -0.040 A 
ATOM     24  C   UNL     1      -4.017  -5.875  -0.284  0.00  0.00    +0.006 A 
ATOM     25  C   UNL     1      -4.067  -6.949  -1.151  0.00  0.00    +0.023 A 
ATOM     26  C   UNL     1      -4.144  -6.729  -2.521  0.00  0.00    +0.029 A 
ATOM     27  C   UNL     1      -4.170  -5.431  -3.013  0.00  0.00    +0.023 A 
ATOM     28  C   UNL     1      -4.126  -4.362  -2.139  0.00  0.00    +0.006 A 
BRANCH  26  29
ATOM     29  N   UNL     1      -4.194  -7.813  -3.401  0.00  0.00    -0.336 N 
ATOM     30  C   UNL     1      -4.165  -9.182  -2.881  0.00  0.00    +0.129 C 
ATOM     31  C   UNL     1      -4.275  -7.580  -4.846  0.00  0.00    +0.129 C 
ENDBRANCH  26  29
ENDBRANCH   7  23
BRANCH   1  34
ATOM     32  C   UNL     1      -1.530   1.919  -0.528  0.00  0.00    +0.106 C 
ATOM     33  C   UNL     1      -1.164   0.498  -0.650  0.00  0.00    -0.103 C 
ATOM     34  C   UNL     1      -0.872  -0.634  -0.748  0.00  0.00    -0.067 C 
ENDBRANCH   1  34
BRANCH  14  35
ATOM     35  O   UNL     1      -3.781  -3.276   4.666  0.00  0.00    -0.384 OA
ATOM     36  H   UNL     1      -3.554  -3.483   5.583  0.00  0.00    +0.211 HD
ENDBRANCH  14  35
BRANCH   1  37
ATOM     37  O   UNL     1      -0.248  -2.382  -2.238  0.00  0.00    -0.376 OA
ATOM     38  H   UNL     1       0.465  -1.866  -2.638  0.00  0.00    +0.211 HD
ENDBRANCH   1  37
TORSDOF 5
