REMARK  Name = ZINC37359027
REMARK  5 active torsions:
REMARK  status: ('A' for Active; 'I' for Inactive)
REMARK    1  A    between atoms: C_1  and  O_2
REMARK    2  A    between atoms: O_2  and  C_3
REMARK    3  A    between atoms: C_6  and  N_9
REMARK    4  A    between atoms: C_10  and  N_31
REMARK    5  A    between atoms: C_12  and  C_24
REMARK                            x       y       z     vdW  Elec       q    Type
REMARK                         _______ _______ _______ _____ _____    ______ ____
ROOT
ATOM      1  N   UNL     1      -5.066  -2.452  -0.308  0.00  0.00    -0.216 N 
ATOM      2  C   UNL     1      -5.219  -3.741  -0.666  0.00  0.00    +0.131 A 
ATOM      3  C   UNL     1      -6.418  -4.187  -0.122  0.00  0.00    +0.086 A 
ATOM      4  C   UNL     1      -7.139  -5.401  -0.122  0.00  0.00    +0.089 A 
ATOM      5  N   UNL     1      -8.292  -5.447   0.534  0.00  0.00    -0.214 NA
ATOM      6  C   UNL     1      -8.778  -4.395   1.184  0.00  0.00    +0.220 A 
ATOM      7  N   UNL     1      -8.172  -3.226   1.236  0.00  0.00    -0.193 NA
ATOM      8  C   UNL     1      -6.993  -3.044   0.611  0.00  0.00    +0.189 A 
ATOM      9  N   UNL     1      -6.151  -2.043   0.475  0.00  0.00    -0.144 NA
ATOM     10  N   UNL     1      -9.988  -4.533   1.841  0.00  0.00    -0.298 N 
ATOM     11  C   UNL     1     -10.685  -5.820   1.808  0.00  0.00    +0.118 C 
ATOM     12  C   UNL     1     -10.727  -6.415   3.220  0.00  0.00    +0.088 C 
ATOM     13  S   UNL     1     -11.534  -5.223   4.330  0.00  0.00    -0.158 S 
ATOM     14  C   UNL     1     -10.580  -3.698   4.063  0.00  0.00    +0.088 C 
ATOM     15  C   UNL     1     -10.552  -3.394   2.566  0.00  0.00    +0.118 C 
ENDROOT
BRANCH   4  16
ATOM     16  C   UNL     1      -6.624  -6.591  -0.837  0.00  0.00    +0.003 A 
ATOM     17  C   UNL     1      -5.290  -6.973  -0.690  0.00  0.00    +0.010 A 
ATOM     18  C   UNL     1      -4.816  -8.083  -1.358  0.00  0.00    +0.002 A 
ATOM     19  C   UNL     1      -5.659  -8.817  -2.173  0.00  0.00    +0.020 A 
ATOM     20  C   UNL     1      -6.984  -8.444  -2.323  0.00  0.00    +0.042 A 
ATOM     21  C   UNL     1      -7.472  -7.338  -1.655  0.00  0.00    +0.030 A 
ATOM     22 CL   UNL     1      -8.034  -9.371  -3.348  0.00  0.00    -0.084 Cl
ENDBRANCH   4  16
BRANCH   1  26
ATOM     23  C   UNL     1      -1.829  -0.042  -1.358  0.00  0.00    +0.120 A 
ATOM     24  C   UNL     1      -3.098   0.508  -1.255  0.00  0.00    +0.048 A 
ATOM     25  C   UNL     1      -4.170  -0.289  -0.907  0.00  0.00    +0.031 A 
ATOM     26  C   UNL     1      -3.978  -1.642  -0.661  0.00  0.00    +0.068 A 
ATOM     27  C   UNL     1      -2.707  -2.192  -0.766  0.00  0.00    +0.031 A 
ATOM     28  C   UNL     1      -1.637  -1.395  -1.118  0.00  0.00    +0.048 A 
BRANCH  23  30
ATOM     29  C   UNL     1      -1.044   2.127  -1.934  0.00  0.00    +0.277 C 
ATOM     30  O   UNL     1      -0.774   0.744  -1.701  0.00  0.00    -0.495 OA
ENDBRANCH  23  30
ENDBRANCH   1  26
BRANCH   2  31
ATOM     31  N   UNL     1      -4.344  -4.485  -1.436  0.00  0.00    -0.342 N 
ATOM     32  H   UNL     1      -3.459  -4.141  -1.634  0.00  0.00    +0.144 HD
ATOM     33  H   UNL     1      -4.615  -5.351  -1.778  0.00  0.00    +0.144 HD
ENDBRANCH   2  31
TORSDOF 4
