REMARK  Name = ZINC39609574
REMARK  8 active torsions:
REMARK  status: ('A' for Active; 'I' for Inactive)
REMARK    1  A    between atoms: C_1  and  C_2
REMARK    2  A    between atoms: C_2  and  O_3
REMARK    3  A    between atoms: O_3  and  C_4
REMARK    4  A    between atoms: C_8  and  C_10
REMARK    5  A    between atoms: C_10  and  C_11
REMARK    6  A    between atoms: C_11  and  N_12
REMARK    7  A    between atoms: C_13  and  C_15
REMARK    8  A    between atoms: C_26  and  C_28
REMARK                            x       y       z     vdW  Elec       q    Type
REMARK                         _______ _______ _______ _____ _____    ______ ____
ROOT
ATOM      1  C   UNL     1       6.568  -6.380   5.903  0.00  0.00    +0.100 C 
ATOM      2  C   UNL     1       6.490  -5.225   6.927  0.00  0.00    +0.121 C 
ATOM      3  N   UNL     1       7.834  -5.187   7.551  0.00  0.00    -0.296 N 
ATOM      4  C   UNL     1       8.769  -5.445   6.429  0.00  0.00    +0.115 C 
ATOM      5  C   UNL     1       8.064  -6.521   5.579  0.00  0.00    -0.004 C 
ATOM      6  C   UNL     1       8.310  -6.264   4.095  0.00  0.00    -0.010 C 
ATOM      7  C   UNL     1       9.796  -6.467   3.785  0.00  0.00    -0.082 C 
ATOM      8  N   UNL     1      10.188  -7.837   4.137  0.00  0.00    +0.379 N 
ATOM      9  C   UNL     1      10.036  -8.046   5.582  0.00  0.00    -0.082 C 
ATOM     10  C   UNL     1       8.561  -7.910   5.967  0.00  0.00    -0.010 C 
ATOM     11  C   UNL     1       8.138  -4.968   8.845  0.00  0.00    +0.248 C 
ATOM     12  O   UNL     1       9.301  -4.874   9.190  0.00  0.00    -0.270 OA
ATOM     13  H   UNL     1       9.601  -8.491   3.640  0.00  0.00    -0.086 HD
ATOM     14  H   UNL     1      11.151  -7.987   3.875  0.00  0.00    -0.086 HD
ENDROOT
BRANCH  11  15
ATOM     15  C   UNL     1       7.065  -4.843   9.840  0.00  0.00    +0.052 A 
ATOM     16  C   UNL     1       5.877  -4.268   9.520  0.00  0.00    +0.059 A 
ATOM     17  S   UNL     1       4.959  -4.330  10.922  0.00  0.00    -0.096 S 
ATOM     18  C   UNL     1       6.106  -5.124  12.013  0.00  0.00    +0.020 A 
ATOM     19  C   UNL     1       7.240  -5.339  11.207  0.00  0.00    +0.001 A 
ATOM     20  C   UNL     1       8.346  -5.973  11.805  0.00  0.00    +0.010 A 
ATOM     21  C   UNL     1       8.296  -6.363  13.120  0.00  0.00    +0.001 A 
ATOM     22  C   UNL     1       7.165  -6.144  13.892  0.00  0.00    +0.001 A 
ATOM     23  C   UNL     1       6.068  -5.514  13.335  0.00  0.00    +0.015 A 
ENDBRANCH  11  15
BRANCH   1  25
ATOM     24  N   UNL     1       5.233  -7.009   3.918  0.00  0.00    -0.315 N 
ATOM     25  C   UNL     1       5.791  -6.032   4.659  0.00  0.00    +0.218 C 
ATOM     26  O   UNL     1       5.669  -4.872   4.325  0.00  0.00    -0.275 OA
ATOM     27  H   UNL     1       5.330  -7.936   4.185  0.00  0.00    +0.149 HD
BRANCH  24  28
ATOM     28  C   UNL     1       4.478  -6.670   2.709  0.00  0.00    +0.109 C 
BRANCH  28  29
ATOM     29  C   UNL     1       3.954  -7.952   2.059  0.00  0.00    +0.054 C 
BRANCH  29  34
ATOM     30  C   UNL     1       1.106  -7.043  -0.251  0.00  0.00    +0.121 A 
ATOM     31  C   UNL     1       1.758  -6.966  -1.474  0.00  0.00    +0.045 A 
ATOM     32  C   UNL     1       3.116  -7.207  -1.547  0.00  0.00    +0.004 A 
ATOM     33  C   UNL     1       3.825  -7.526  -0.404  0.00  0.00    +0.004 A 
ATOM     34  C   UNL     1       3.178  -7.604   0.815  0.00  0.00    -0.042 A 
ATOM     35  C   UNL     1       1.821  -7.358   0.895  0.00  0.00    +0.049 A 
BRANCH  30  36
ATOM     36  O   UNL     1      -0.230  -6.805  -0.176  0.00  0.00    -0.492 OA
BRANCH  36  38
ATOM     37  C   UNL     1      -2.388  -6.254  -1.115  0.00  0.00    +0.048 C 
ATOM     38  C   UNL     1      -0.902  -6.487  -1.397  0.00  0.00    +0.225 C 
ENDBRANCH  36  38
ENDBRANCH  30  36
ENDBRANCH  29  34
ENDBRANCH  28  29
ENDBRANCH  24  28
ENDBRANCH   1  25
TORSDOF 7
