REMARK  Name = ZINC36080579
REMARK  9 active torsions:
REMARK  status: ('A' for Active; 'I' for Inactive)
REMARK    1  A    between atoms: C_1  and  C_2
REMARK    2  A    between atoms: C_2  and  C_13
REMARK    3  A    between atoms: N_3  and  N_4
REMARK    4  A    between atoms: C_5  and  C_7
REMARK    5  A    between atoms: C_26  and  C_29
REMARK    6  A    between atoms: C_33  and  O_37
REMARK    7  A    between atoms: C_34  and  O_35
REMARK    8  A    between atoms: O_35  and  C_36
REMARK    9  A    between atoms: O_37  and  C_38
REMARK                            x       y       z     vdW  Elec       q    Type
REMARK                         _______ _______ _______ _____ _____    ______ ____
ROOT
ATOM      1  C   UNL     1      -0.000  -0.734  -1.278  0.00  0.00    -0.002 A 
ATOM      2  C   UNL     1      -0.015  -0.031  -2.486  0.00  0.00    +0.011 A 
ATOM      3  C   UNL     1      -0.024  -0.722  -3.676  0.00  0.00    +0.024 A 
ATOM      4  C   UNL     1      -0.015  -2.116  -3.681  0.00  0.00    +0.031 A 
ATOM      5  C   UNL     1       0.012  -2.820  -2.488  0.00  0.00    -0.019 A 
ATOM      6  C   UNL     1       0.019  -2.129  -1.288  0.00  0.00    +0.015 A 
ATOM      7  C   UNL     1       0.058  -4.322  -2.442  0.00  0.00    +0.049 C 
ATOM      8  C   UNL     1       1.204  -4.723  -1.527  0.00  0.00    -0.023 C 
ATOM      9  C   UNL     1       2.245  -5.091  -2.227  0.00  0.00    -0.030 C 
ATOM     10  C   UNL     1       1.958  -5.004  -3.711  0.00  0.00    +0.033 C 
ATOM     11  C   UNL     1       0.400  -4.952  -3.790  0.00  0.00    +0.029 C 
ATOM     12  C   UNL     1      -0.104  -4.228  -5.002  0.00  0.00    +0.109 C 
ATOM     13  N   UNL     1      -0.040  -2.783  -4.900  0.00  0.00    -0.336 N 
ATOM     14  H   UNL     1      -0.038  -2.258  -5.716  0.00  0.00    +0.147 HD
ENDROOT
BRANCH  12  15
ATOM     15  C   UNL     1       0.736  -4.636  -6.185  0.00  0.00    +0.018 A 
ATOM     16  C   UNL     1       1.821  -3.866  -6.561  0.00  0.00    +0.009 A 
ATOM     17  C   UNL     1       2.594  -4.237  -7.645  0.00  0.00    +0.004 A 
ATOM     18  C   UNL     1       2.284  -5.381  -8.359  0.00  0.00    +0.049 A 
ATOM     19  C   UNL     1       1.199  -6.157  -7.987  0.00  0.00    +0.162 A 
ATOM     20  C   UNL     1       0.425  -5.786  -6.891  0.00  0.00    +0.166 A 
BRANCH  20  21
ATOM     21  O   UNL     1      -0.639  -6.548  -6.519  0.00  0.00    -0.491 OA
ATOM     22  C   UNL     1      -1.901  -6.234  -7.111  0.00  0.00    +0.277 C 
ENDBRANCH  20  21
BRANCH  19  23
ATOM     23  O   UNL     1       0.894  -7.282  -8.687  0.00  0.00    -0.491 OA
ATOM     24  C   UNL     1       1.735  -7.604  -9.796  0.00  0.00    +0.277 C 
ENDBRANCH  19  23
ENDBRANCH  12  15
BRANCH   1  26
ATOM     25  C   UNL     1      -0.018   1.503   0.010  0.00  0.00    +0.068 C 
ATOM     26  C   UNL     1       0.002  -0.004   0.002  0.00  0.00    +0.063 C 
ATOM     27  N   UNL     1       0.022  -0.659   1.123  0.00  0.00    -0.184 NA
BRANCH  27  28
ATOM     28  N   UNL     1       0.024   0.035   2.340  0.00  0.00    -0.203 N 
ATOM     29  C   UNL     1       0.044  -0.645   3.503  0.00  0.00    +0.265 C 
ATOM     30  O   UNL     1       0.060  -1.861   3.497  0.00  0.00    -0.268 OA
ATOM     31  H   UNL     1       0.011   1.005   2.345  0.00  0.00    +0.178 HD
BRANCH  29  32
ATOM     32  C   UNL     1       0.046   0.087   4.787  0.00  0.00    +0.056 A 
ATOM     33  C   UNL     1       0.073  -0.608   6.003  0.00  0.00    +0.016 A 
ATOM     34  C   UNL     1       0.074   0.124   7.176  0.00  0.00    +0.020 A 
ATOM     35  C   UNL     1       0.048   1.506   7.112  0.00  0.00    +0.111 A 
ATOM     36  N   UNL     1       0.023   2.134   5.952  0.00  0.00    -0.263 NA
ATOM     37  C   UNL     1       0.027   1.482   4.808  0.00  0.00    +0.123 A 
ENDBRANCH  29  32
ENDBRANCH  27  28
ENDBRANCH   1  26
TORSDOF 6
