REMARK  Name = ZINC18199070
REMARK  6 active torsions:
REMARK  status: ('A' for Active; 'I' for Inactive)
REMARK    1  A    between atoms: C_1  and  O_2
REMARK    2  A    between atoms: O_2  and  C_3
REMARK    3  A    between atoms: C_6  and  C_11
REMARK    4  A    between atoms: C_8  and  O_9
REMARK    5  A    between atoms: O_9  and  C_10
REMARK    6  A    between atoms: C_16  and  C_25
REMARK                            x       y       z     vdW  Elec       q    Type
REMARK                         _______ _______ _______ _____ _____    ______ ____
ROOT
ATOM      1  C   UNL     1       2.895  -4.201   3.391  0.00  0.00    +0.032 C 
ATOM      2  C   UNL     1       3.917  -3.679   2.380  0.00  0.00    +0.060 C 
ATOM      3  C   UNL     1       3.205  -3.204   1.136  0.00  0.00    +0.020 C 
ATOM      4  C   UNL     1       1.961  -2.684   1.204  0.00  0.00    +0.041 C 
ATOM      5  C   UNL     1       1.229  -2.185  -0.022  0.00  0.00    +0.176 C 
ATOM      6  N   UNL     1       1.900  -2.653  -1.228  0.00  0.00    -0.219 N 
ATOM      7  C   UNL     1       3.147  -3.185  -1.230  0.00  0.00    +0.220 A 
ATOM      8  N   UNL     1       3.455  -3.492  -2.460  0.00  0.00    -0.180 NA
ATOM      9  C   UNL     1       2.434  -3.177  -3.270  0.00  0.00    +0.233 A 
ATOM     10  N   UNL     1       1.461  -2.661  -2.551  0.00  0.00    -0.132 NA
ATOM     11  N   UNL     1       2.408  -3.367  -4.652  0.00  0.00    -0.326 N 
ATOM     12  N   UNL     1       3.872  -3.330  -0.059  0.00  0.00    -0.287 N 
ATOM     13  C   UNL     1       1.287  -2.587   2.435  0.00  0.00    +0.164 C 
ATOM     14  O   UNL     1       0.173  -2.102   2.466  0.00  0.00    -0.292 OA
ATOM     15  C   UNL     1       1.914  -3.069   3.714  0.00  0.00    +0.088 C 
ATOM     16  H   UNL     1       3.174  -3.757  -5.103  0.00  0.00    +0.145 HD
ATOM     17  H   UNL     1       1.624  -3.110  -5.162  0.00  0.00    +0.145 HD
ATOM     18  H   UNL     1       4.824  -3.514  -0.082  0.00  0.00    +0.155 HD
ENDROOT
BRANCH   5  19
ATOM     19  C   UNL     1       1.208  -0.678  -0.013  0.00  0.00    -0.017 A 
ATOM     20  C   UNL     1       2.396   0.029  -0.021  0.00  0.00    +0.006 A 
ATOM     21  C   UNL     1       2.378   1.411  -0.013  0.00  0.00    +0.001 A 
ATOM     22  C   UNL     1       1.172   2.087   0.002  0.00  0.00    +0.015 A 
ATOM     23  C   UNL     1      -0.017   1.379   0.010  0.00  0.00    +0.018 A 
ATOM     24  C   UNL     1       0.002  -0.004   0.002  0.00  0.00    +0.021 A 
ATOM     25 BR   UNL     1      -1.667   2.303   0.022  0.00  0.00    -0.050 Br
ENDBRANCH   5  19
BRANCH   1  29
ATOM     26  C   UNL     1       4.901  -5.428   6.963  0.00  0.00    +0.161 A 
ATOM     27  C   UNL     1       5.013  -4.121   6.516  0.00  0.00    +0.049 A 
ATOM     28  C   UNL     1       4.368  -3.729   5.357  0.00  0.00    +0.008 A 
ATOM     29  C   UNL     1       3.601  -4.635   4.649  0.00  0.00    -0.040 A 
ATOM     30  C   UNL     1       3.484  -5.940   5.091  0.00  0.00    +0.053 A 
ATOM     31  C   UNL     1       4.133  -6.341   6.248  0.00  0.00    +0.162 A 
BRANCH  26  33
ATOM     32  C   UNL     1       6.310  -4.825   8.782  0.00  0.00    +0.277 C 
ATOM     33  O   UNL     1       5.540  -5.816   8.099  0.00  0.00    -0.491 OA
ENDBRANCH  26  33
BRANCH  31  34
ATOM     34  O   UNL     1       4.019  -7.625   6.683  0.00  0.00    -0.491 OA
ATOM     35  C   UNL     1       3.215  -8.507   5.898  0.00  0.00    +0.277 C 
ENDBRANCH  31  34
ENDBRANCH   1  29
TORSDOF 4
