REMARK  Name = ZINC36580061
REMARK  11 active torsions:
REMARK  status: ('A' for Active; 'I' for Inactive)
REMARK    1  A    between atoms: C_1  and  C_2
REMARK    2  A    between atoms: C_2  and  C_3
REMARK    3  A    between atoms: C_2  and  C_4
REMARK    4  A    between atoms: C_4  and  O_6
REMARK    5  A    between atoms: O_6  and  C_7
REMARK    6  A    between atoms: C_7  and  C_8
REMARK    7  A    between atoms: C_8  and  C_10
REMARK    8  A    between atoms: C_16  and  C_35
REMARK    9  A    between atoms: C_18  and  O_34
REMARK   10  A    between atoms: C_32  and  C_33
REMARK   11  A    between atoms: C_37  and  C_40
REMARK                            x       y       z     vdW  Elec       q    Type
REMARK                         _______ _______ _______ _____ _____    ______ ____
ROOT
ATOM      1  C   UNL     1      -5.499  -0.864  -2.410  0.00  0.00    +0.165 C 
ATOM      2  C   UNL     1      -6.236   0.144  -1.473  0.00  0.00    +0.162 C 
ATOM      3  C   UNL     1      -7.640   0.365  -2.091  0.00  0.00    +0.039 C 
ATOM      4  C   UNL     1      -7.713  -0.675  -3.211  0.00  0.00    +0.004 C 
ATOM      5  C   UNL     1      -6.267  -0.688  -3.744  0.00  0.00    +0.012 C 
ATOM      6  C   UNL     1      -6.105  -1.820  -4.721  0.00  0.00    +0.042 C 
ATOM      7  C   UNL     1      -7.188  -1.795  -5.810  0.00  0.00    +0.120 C 
ATOM      8  C   UNL     1      -8.147  -0.629  -5.688  0.00  0.00    +0.035 C 
ATOM      9  C   UNL     1      -8.736  -0.477  -4.288  0.00  0.00    -0.000 C 
ATOM     10  C   UNL     1      -9.452   0.870  -4.164  0.00  0.00    +0.008 C 
ATOM     11  C   UNL     1     -10.627   0.900  -5.153  0.00  0.00    +0.032 C 
ATOM     12  C   UNL     1     -10.078   0.595  -6.535  0.00  0.00    -0.056 C 
ATOM     13  C   UNL     1     -10.296   1.462  -7.511  0.00  0.00    +0.051 C 
ATOM     14  C   UNL     1      -9.761   1.225  -8.861  0.00  0.00    +0.179 C 
ATOM     15  O   UNL     1      -9.960   2.020  -9.760  0.00  0.00    -0.288 OA
ATOM     16  C   UNL     1      -8.977   0.001  -9.094  0.00  0.00    +0.047 C 
ATOM     17  C   UNL     1      -8.781  -0.855  -8.104  0.00  0.00    -0.012 C 
ATOM     18  C   UNL     1      -9.286  -0.676  -6.714  0.00  0.00    +0.013 C 
ATOM     19  C   UNL     1     -10.206  -1.858  -6.418  0.00  0.00    +0.020 C 
ATOM     20  C   UNL     1      -5.824   0.652  -4.336  0.00  0.00    +0.015 C 
ATOM     21  O   UNL     1      -6.367  -0.564  -0.234  0.00  0.00    -0.344 OA
ATOM     22  C   UNL     1      -6.254  -1.961  -0.514  0.00  0.00    +0.255 C 
ATOM     23  O   UNL     1      -5.797  -2.149  -1.855  0.00  0.00    -0.334 OA
ENDROOT
BRANCH  22  24
ATOM     24  C   UNL     1      -5.259  -2.598   0.458  0.00  0.00    +0.045 C 
ATOM     25  C   UNL     1      -5.111  -4.086   0.135  0.00  0.00    +0.008 C 
ATOM     26  C   UNL     1      -4.116  -4.723   1.108  0.00  0.00    +0.000 C 
ATOM     27  C   UNL     1      -4.628  -4.560   2.540  0.00  0.00    +0.000 C 
ATOM     28  C   UNL     1      -4.776  -3.072   2.864  0.00  0.00    +0.000 C 
ATOM     29  C   UNL     1      -5.771  -2.435   1.891  0.00  0.00    +0.008 C 
ENDBRANCH  22  24
BRANCH   1  30
ATOM     30  C   UNL     1      -4.028  -0.586  -2.550  0.00  0.00    +0.205 C 
ATOM     31  O   UNL     1      -3.643   0.246  -3.336  0.00  0.00    -0.291 OA
BRANCH  30  32
ATOM     32  C   UNL     1      -3.034  -1.345  -1.709  0.00  0.00    +0.309 C 
BRANCH  32  33
ATOM     33  O   UNL     1      -1.711  -0.905  -2.022  0.00  0.00    -0.457 OA
BRANCH  33  34
ATOM     34  C   UNL     1      -0.701  -1.487  -1.355  0.00  0.00    +0.310 C 
ATOM     35  O   UNL     1      -0.934  -2.341  -0.532  0.00  0.00    -0.251 OA
BRANCH  34  37
ATOM     36  C   UNL     1       0.889   0.416  -1.330  0.00  0.00    +0.019 C 
ATOM     37  C   UNL     1       0.721  -1.075  -1.632  0.00  0.00    +0.092 C 
ATOM     38  C   UNL     1       1.669  -1.884  -0.745  0.00  0.00    +0.019 C 
ENDBRANCH  34  37
ENDBRANCH  33  34
ENDBRANCH  32  33
ENDBRANCH  30  32
ENDBRANCH   1  30
BRANCH   7  39
ATOM     39  O   UNL     1      -6.514  -1.740  -7.080  0.00  0.00    -0.391 OA
ATOM     40  H   UNL     1      -5.930  -2.493  -7.248  0.00  0.00    +0.210 HD
ENDBRANCH   7  39
TORSDOF 7
