REMARK  Name = ZINC38563218
REMARK  9 active torsions:
REMARK  status: ('A' for Active; 'I' for Inactive)
REMARK    1  A    between atoms: C_1  and  C_2
REMARK    2  A    between atoms: C_5  and  N_11
REMARK    3  A    between atoms: C_6  and  N_8
REMARK    4  A    between atoms: C_12  and  C_14
REMARK    5  A    between atoms: N_16  and  C_17
REMARK    6  A    between atoms: C_17  and  C_18
REMARK    7  A    between atoms: C_18  and  C_20
REMARK    8  A    between atoms: C_18  and  S_25
REMARK    9  A    between atoms: S_25  and  C_28
REMARK                            x       y       z     vdW  Elec       q    Type
REMARK                         _______ _______ _______ _____ _____    ______ ____
ROOT
ATOM      1  C   UNL     1      -0.205  -6.101  -1.279  0.00  0.00    +0.299 C 
ATOM      2  O   UNL     1      -0.166  -6.755  -0.257  0.00  0.00    -0.265 OA
ATOM      3  N   UNL     1      -0.344  -6.717  -2.469  0.00  0.00    -0.305 N 
ATOM      4  H   UNL     1      -0.375  -6.194  -3.285  0.00  0.00    +0.149 HD
ENDROOT
BRANCH   1   6
ATOM      5  N   UNL     1       0.038  -3.995  -0.026  0.00  0.00    -0.276 N 
ATOM      6  C   UNL     1      -0.100  -4.612  -1.217  0.00  0.00    +0.303 C 
ATOM      7  O   UNL     1      -0.139  -3.958  -2.238  0.00  0.00    -0.265 OA
ATOM      8  H   UNL     1       0.151  -4.520   0.782  0.00  0.00    +0.155 HD
BRANCH   5  13
ATOM      9  C   UNL     1      -0.040   1.668   0.260  0.00  0.00    +0.044 C 
ATOM     10  C   UNL     1      -0.019   0.163   0.184  0.00  0.00    -0.048 A 
ATOM     11  C   UNL     1      -0.653  -0.483  -0.862  0.00  0.00    +0.005 A 
ATOM     12  C   UNL     1      -0.636  -1.862  -0.934  0.00  0.00    +0.026 A 
ATOM     13  C   UNL     1       0.020  -2.600   0.044  0.00  0.00    +0.064 A 
ATOM     14  C   UNL     1       0.656  -1.947   1.092  0.00  0.00    +0.148 A 
ATOM     15  C   UNL     1       0.639  -0.567   1.156  0.00  0.00    +0.038 A 
BRANCH  14  16
ATOM     16  N   UNL     1       1.355  -2.729   2.137  0.00  0.00    +0.058 N 
ATOM     17  O   UNL     1       1.826  -2.167   3.098  0.00  0.00    -0.126 OA
ATOM     18  O   UNL     1       1.456  -3.929   2.028  0.00  0.00    -0.126 OA
ENDBRANCH  14  16
ENDBRANCH   5  13
ENDBRANCH   1   6
BRANCH   3  19
ATOM     19  C   UNL     1      -0.447  -8.177  -2.530  0.00  0.00    +0.136 C 
BRANCH  19  20
ATOM     20  C   UNL     1      -0.596  -8.618  -3.987  0.00  0.00    +0.189 C 
BRANCH  20  21
ATOM     21  C   UNL     1      -0.702 -10.120  -4.050  0.00  0.00    +0.016 A 
ATOM     22  C   UNL     1      -1.707 -10.885  -4.541  0.00  0.00    +0.013 A 
ATOM     23  C   UNL     1      -1.587 -12.261  -4.494  0.00  0.00    +0.008 A 
ATOM     24  C   UNL     1      -0.467 -12.805  -3.958  0.00  0.00    +0.045 A 
ATOM     25  S   UNL     1       0.468 -11.353  -3.504  0.00  0.00    -0.100 S 
ENDBRANCH  20  21
BRANCH  20  26
ATOM     26  S   UNL     1       0.853  -8.074  -4.934  0.00  0.00    +0.006 S 
ATOM     27  O   UNL     1       0.868  -6.657  -5.035  0.00  0.00    -0.169 OA
ATOM     28  O   UNL     1       2.010  -8.782  -4.509  0.00  0.00    -0.169 OA
BRANCH  26  29
ATOM     29  C   UNL     1       0.559  -8.639  -6.577  0.00  0.00    +0.089 A 
ATOM     30  C   UNL     1       0.992  -9.893  -6.964  0.00  0.00    +0.028 A 
ATOM     31  C   UNL     1       0.761 -10.337  -8.253  0.00  0.00    +0.022 A 
ATOM     32  C   UNL     1       0.097  -9.525  -9.155  0.00  0.00    +0.041 A 
ATOM     33  C   UNL     1      -0.336  -8.270  -8.767  0.00  0.00    +0.022 A 
ATOM     34  C   UNL     1      -0.110  -7.830  -7.476  0.00  0.00    +0.028 A 
ATOM     35 CL   UNL     1      -0.193 -10.081 -10.774  0.00  0.00    -0.084 Cl
ENDBRANCH  26  29
ENDBRANCH  20  26
ENDBRANCH  19  20
ENDBRANCH   3  19
TORSDOF 8
