REMARK  Name = ZINC39704169
REMARK  14 active torsions:
REMARK  status: ('A' for Active; 'I' for Inactive)
REMARK    1  A    between atoms: C_1  and  C_2
REMARK    2  A    between atoms: C_2  and  O_3
REMARK    3  A    between atoms: O_3  and  C_4
REMARK    4  A    between atoms: C_4  and  C_6
REMARK    5  A    between atoms: C_8  and  C_36
REMARK    6  A    between atoms: C_10  and  C_32
REMARK    7  A    between atoms: C_13  and  N_15
REMARK    8  A    between atoms: C_16  and  C_18
REMARK    9  A    between atoms: C_18  and  S_19
REMARK   10  A    between atoms: S_19  and  C_20
REMARK   11  A    between atoms: C_24  and  C_27
REMARK   12  A    between atoms: C_27  and  C_28
REMARK   13  A    between atoms: C_28  and  C_29
REMARK   14  A    between atoms: N_34  and  C_35
REMARK                            x       y       z     vdW  Elec       q    Type
REMARK                         _______ _______ _______ _____ _____    ______ ____
ROOT
ATOM      1  N   UNL     1       1.263  -0.598  -4.239  0.00  0.00    -0.302 N 
ATOM      2  C   UNL     1       1.580  -0.374  -5.529  0.00  0.00    +0.224 C 
ATOM      3  O   UNL     1       1.468  -1.264  -6.345  0.00  0.00    -0.275 OA
ATOM      4  H   UNL     1       1.352   0.114  -3.586  0.00  0.00    +0.150 HD
ENDROOT
BRANCH   1   9
ATOM      5  C   UNL     1       1.477  -2.384  -2.511  0.00  0.00    +0.132 C 
ATOM      6  C   UNL     1       1.421  -3.907  -2.396  0.00  0.00    +0.024 C 
ATOM      7  C   UNL     1       1.437  -4.627  -3.759  0.00  0.00    +0.138 C 
ATOM      8  S   UNL     1       1.372  -3.240  -4.968  0.00  0.00    -0.125 S 
ATOM      9  C   UNL     1       0.784  -1.918  -3.821  0.00  0.00    +0.146 C 
ATOM     10  C   UNL     1       2.626  -4.381  -1.581  0.00  0.00    +0.010 C 
BRANCH   7  11
ATOM     11  C   UNL     1       2.706  -5.423  -3.925  0.00  0.00    +0.226 C 
ATOM     12  O   UNL     1       2.739  -6.588  -3.591  0.00  0.00    -0.275 OA
ATOM     13  N   UNL     1       3.804  -4.840  -4.445  0.00  0.00    -0.317 N 
ATOM     14  C   UNL     1       5.038  -5.614  -4.606  0.00  0.00    +0.128 C 
ATOM     15  H   UNL     1       3.778  -3.908  -4.712  0.00  0.00    +0.148 HD
ENDBRANCH   7  11
BRANCH   5  16
ATOM     16  C   UNL     1       0.773  -1.769  -1.329  0.00  0.00    +0.313 C 
ATOM     17  O   UNL     1       0.263  -2.478  -0.494  0.00  0.00    -0.250 OA
BRANCH  16  18
ATOM     18  O   UNL     1       0.714  -0.434  -1.203  0.00  0.00    -0.465 OA
BRANCH  18  20
ATOM     19  C   UNL     1       0.067   1.609  -0.087  0.00  0.00    +0.048 C 
ATOM     20  C   UNL     1       0.031   0.080  -0.058  0.00  0.00    +0.229 C 
ENDBRANCH  18  20
ENDBRANCH  16  18
ENDBRANCH   5  16
ENDBRANCH   1   9
BRANCH   2  21
ATOM     21  C   UNL     1       2.073   0.984  -5.959  0.00  0.00    +0.173 C 
BRANCH  21  22
ATOM     22  S   UNL     1       2.412   0.969  -7.741  0.00  0.00    -0.075 S 
BRANCH  22  23
ATOM     23  C   UNL     1       2.972   2.604  -8.082  0.00  0.00    +0.213 A 
ATOM     24  N   UNL     1       3.312   2.936  -9.322  0.00  0.00    -0.180 NA
ATOM     25  C   UNL     1       3.733   4.170  -9.574  0.00  0.00    +0.296 A 
ATOM     26  O   UNL     1       4.086   4.537 -10.830  0.00  0.00    -0.264 OA
ATOM     27  C   UNL     1       3.804   5.082  -8.520  0.00  0.00    +0.130 A 
ATOM     28  N   UNL     1       3.453   4.694  -7.308  0.00  0.00    -0.146 NA
ATOM     29  N   UNL     1       3.044   3.492  -7.098  0.00  0.00    -0.122 NA
BRANCH  27  30
ATOM     30  C   UNL     1       4.277   6.492  -8.761  0.00  0.00    +0.074 C 
BRANCH  30  31
ATOM     31  C   UNL     1       3.079   7.380  -9.106  0.00  0.00    +0.131 C 
BRANCH  31  32
ATOM     32  C   UNL     1       3.553   8.790  -9.348  0.00  0.00    +0.356 C 
ATOM     33  O   UNL     1       4.738   9.060  -9.254  0.00  0.00    -0.246 OA
ATOM     34  O   UNL     1       2.750   9.661  -9.638  0.00  0.00    -0.246 OA
ENDBRANCH  31  32
ENDBRANCH  30  31
ENDBRANCH  27  30
ENDBRANCH  22  23
ENDBRANCH  21  22
ENDBRANCH   2  21
TORSDOF 11
