REMARK  Name = ZINC66249616
REMARK  4 active torsions:
REMARK  status: ('A' for Active; 'I' for Inactive)
REMARK    1  A    between atoms: C_1  and  C_2
REMARK    2  A    between atoms: N_11  and  S_12
REMARK    3  A    between atoms: S_12  and  C_15
REMARK    4  A    between atoms: C_17  and  C_21
REMARK                            x       y       z     vdW  Elec       q    Type
REMARK                         _______ _______ _______ _____ _____    ______ ____
ROOT
ATOM      1  S   UNL     1       2.000  -6.957   0.280  0.00  0.00    +0.102 S 
ATOM      2  O   UNL     1       0.651  -7.127  -0.132  0.00  0.00    -0.146 OA
ATOM      3  O   UNL     1       3.033  -6.593  -0.625  0.00  0.00    -0.146 OA
ENDROOT
BRANCH   1  13
ATOM      4  C   UNL     1      -0.019   1.526   0.010  0.00  0.00    +0.008 C 
ATOM      5  C   UNL     1       0.002  -0.004   0.002  0.00  0.00    -0.009 C 
ATOM      6  C   UNL     1       0.727  -0.502  -1.252  0.00  0.00    +0.010 C 
ATOM      7  C   UNL     1       0.548  -2.014  -1.389  0.00  0.00    +0.054 C 
ATOM      8  C   UNL     1       0.969  -2.684  -0.083  0.00  0.00    +0.028 A 
ATOM      9  C   UNL     1       1.044  -1.972   1.048  0.00  0.00    +0.013 A 
ATOM     10  S   UNL     1       1.560  -3.151   2.269  0.00  0.00    -0.053 S 
ATOM     11  C   UNL     1       1.655  -4.574   1.192  0.00  0.00    +0.192 A 
ATOM     12  N   UNL     1       1.283  -4.025  -0.012  0.00  0.00    -0.336 N 
ATOM     13  N   UNL     1       1.990  -5.809   1.473  0.00  0.00    -0.103 NA
ATOM     14  C   UNL     1       0.752  -0.517   1.240  0.00  0.00    +0.047 C 
ATOM     15  H   UNL     1       1.242  -4.578  -0.807  0.00  0.00    +0.168 HD
ENDBRANCH   1  13
BRANCH   1  16
ATOM     16  C   UNL     1       2.494  -8.477   1.023  0.00  0.00    +0.130 A 
ATOM     17  C   UNL     1       3.807  -8.942   1.151  0.00  0.00    +0.061 A 
ATOM     18  C   UNL     1       3.743 -10.163   1.788  0.00  0.00    +0.104 A 
ATOM     19  N   UNL     1       2.417 -10.431   2.039  0.00  0.00    -0.355 N 
ATOM     20  H   UNL     1       2.074 -11.225   2.479  0.00  0.00    +0.166 HD
ATOM     21  C   UNL     1       1.671  -9.399   1.576  0.00  0.00    +0.112 A 
BRANCH  18  22
ATOM     22  C   UNL     1       4.882 -11.021   2.133  0.00  0.00    +0.263 C 
ATOM     23  O   UNL     1       6.014 -10.671   1.855  0.00  0.00    -0.268 OA
ATOM     24  N   UNL     1       4.675 -12.197   2.758  0.00  0.00    -0.296 N 
ATOM     25  C   UNL     1       3.365 -12.742   3.146  0.00  0.00    +0.108 C 
ATOM     26  C   UNL     1       3.621 -14.090   3.853  0.00  0.00    +0.020 C 
ATOM     27  C   UNL     1       5.093 -13.960   4.327  0.00  0.00    +0.020 C 
ATOM     28  C   UNL     1       5.723 -13.152   3.162  0.00  0.00    +0.108 C 
ENDBRANCH  18  22
ENDBRANCH   1  16
TORSDOF 3
