REMARK  Name = ZINC63151084
REMARK  8 active torsions:
REMARK  status: ('A' for Active; 'I' for Inactive)
REMARK    1  A    between atoms: C_1  and  C_2
REMARK    2  A    between atoms: C_4  and  C_9
REMARK    3  A    between atoms: C_5  and  C_8
REMARK    4  A    between atoms: C_9  and  S_10
REMARK    5  A    between atoms: S_10  and  C_11
REMARK    6  A    between atoms: C_16  and  C_17
REMARK    7  A    between atoms: N_19  and  N_20
REMARK    8  A    between atoms: C_21  and  C_23
REMARK                            x       y       z     vdW  Elec       q    Type
REMARK                         _______ _______ _______ _____ _____    ______ ____
ROOT
ATOM      1  C   UNL     1      -4.823   3.838  -1.361  0.00  0.00    +0.261 C 
ATOM      2  O   UNL     1      -3.975   3.766  -0.492  0.00  0.00    -0.269 OA
ATOM      3  N   UNL     1      -5.523   4.978  -1.526  0.00  0.00    -0.230 N 
ATOM      4  H   UNL     1      -6.199   5.036  -2.219  0.00  0.00    +0.173 HD
ENDROOT
BRANCH   1  10
ATOM      5  C   UNL     1      -4.359   1.490  -2.064  0.00  0.00    +0.020 A 
ATOM      6  C   UNL     1      -4.621   0.402  -2.890  0.00  0.00    +0.015 A 
ATOM      7  C   UNL     1      -5.586   0.495  -3.871  0.00  0.00    +0.001 A 
ATOM      8  C   UNL     1      -6.301   1.671  -4.043  0.00  0.00    +0.001 A 
ATOM      9  C   UNL     1      -6.056   2.759  -3.236  0.00  0.00    +0.014 A 
ATOM     10  C   UNL     1      -5.086   2.679  -2.232  0.00  0.00    +0.052 A 
BRANCH   5  11
ATOM     11  S   UNL     1      -3.128   1.373  -0.809  0.00  0.00    -0.120 S 
BRANCH  11  12
ATOM     12  C   UNL     1      -2.483  -0.314  -0.982  0.00  0.00    +0.109 C 
BRANCH  12  15
ATOM     13  C   UNL     1      -0.019   1.526   0.010  0.00  0.00    +0.045 C 
ATOM     14  C   UNL     1       0.002  -0.004   0.002  0.00  0.00    +0.174 C 
ATOM     15  C   UNL     1      -1.407  -0.548   0.046  0.00  0.00    -0.008 C 
ATOM     16  C   UNL     1      -1.526  -1.263   1.145  0.00  0.00    +0.038 C 
ATOM     17  N   UNL     1      -0.345  -1.271   1.865  0.00  0.00    -0.269 N 
ATOM     18  O   UNL     1       0.636  -0.500   1.190  0.00  0.00    -0.267 OA
ATOM     19  C   UNL     1      -2.784  -1.980   1.564  0.00  0.00    +0.065 C 
ATOM     20  H   UNL     1      -0.208  -1.735   2.706  0.00  0.00    +0.194 HD
ENDBRANCH  12  15
ENDBRANCH  11  12
ENDBRANCH   5  11
ENDBRANCH   1  10
BRANCH   3  21
ATOM     21  N   UNL     1      -5.273   6.080  -0.697  0.00  0.00    -0.230 N 
ATOM     22  C   UNL     1      -5.973   7.220  -0.863  0.00  0.00    +0.258 C 
ATOM     23  O   UNL     1      -6.821   7.292  -1.731  0.00  0.00    -0.269 OA
ATOM     24  H   UNL     1      -4.596   6.022  -0.005  0.00  0.00    +0.173 HD
BRANCH  22  25
ATOM     25  C   UNL     1      -5.711   8.373   0.005  0.00  0.00    +0.044 C 
ATOM     26  C   UNL     1      -6.338   9.600  -0.030  0.00  0.00    +0.008 A 
ATOM     27  C   UNL     1      -7.367  10.133  -0.846  0.00  0.00    +0.010 A 
ATOM     28  C   UNL     1      -7.799  11.398  -0.655  0.00  0.00    +0.001 A 
ATOM     29  C   UNL     1      -7.266  12.236   0.338  0.00  0.00    +0.002 A 
ATOM     30  C   UNL     1      -6.283  11.825   1.168  0.00  0.00    +0.026 A 
ATOM     31  C   UNL     1      -5.754  10.459   1.029  0.00  0.00    +0.043 A 
ATOM     32  N   UNL     1      -4.827   9.814   1.680  0.00  0.00    -0.380 N 
ATOM     33  C   UNL     1      -4.702   8.462   1.128  0.00  0.00    +0.154 C 
ATOM     34  H   UNL     1      -4.305  10.172   2.416  0.00  0.00    +0.160 HD
ENDBRANCH  22  25
ENDBRANCH   3  21
TORSDOF 6
