REMARK  Name = ZINC02369132
REMARK  5 active torsions:
REMARK  status: ('A' for Active; 'I' for Inactive)
REMARK    1  A    between atoms: C_1  and  C_2
REMARK    2  A    between atoms: C_2  and  C_29
REMARK    3  A    between atoms: C_4  and  N_9
REMARK    4  A    between atoms: C_12  and  O_14
REMARK    5  A    between atoms: C_15  and  C_22
REMARK                            x       y       z     vdW  Elec       q    Type
REMARK                         _______ _______ _______ _____ _____    ______ ____
ROOT
ATOM      1  N   UNL     1       1.539  -2.506  -2.393  0.00  0.00    -0.243 N 
ATOM      2  C   UNL     1       1.055  -3.337  -3.375  0.00  0.00    +0.132 A 
ATOM      3  C   UNL     1       2.059  -3.534  -4.258  0.00  0.00    +0.072 A 
ATOM      4  C   UNL     1       3.182  -2.804  -3.804  0.00  0.00    +0.238 A 
ATOM      5  N   UNL     1       2.863  -2.191  -2.697  0.00  0.00    -0.131 NA
ATOM      6  C   UNL     1       2.096  -4.348  -5.513  0.00  0.00    +0.115 C 
ATOM      7  S   UNL     1       1.093  -5.834  -5.426  0.00  0.00    -0.138 S 
ATOM      8  C   UNL     1      -0.615  -5.277  -5.348  0.00  0.00    +0.166 C 
ATOM      9  C   UNL     1      -0.945  -4.608  -4.072  0.00  0.00    +0.228 C 
ATOM     10  O   UNL     1      -2.052  -4.851  -3.640  0.00  0.00    -0.275 OA
ATOM     11  N   UNL     1      -0.238  -3.801  -3.339  0.00  0.00    -0.270 N 
ATOM     12  H   UNL     1      -0.741  -3.441  -2.591  0.00  0.00    +0.156 HD
ENDROOT
BRANCH   1  16
ATOM     13  C   UNL     1      -0.019   1.526   0.010  0.00  0.00    +0.041 C 
ATOM     14  C   UNL     1       0.002  -0.004   0.002  0.00  0.00    +0.066 C 
ATOM     15  C   UNL     1       0.720  -0.498  -1.257  0.00  0.00    +0.061 C 
ATOM     16  C   UNL     1       0.790  -2.028  -1.228  0.00  0.00    +0.114 C 
ATOM     17  C   UNL     1       1.496  -2.472   0.056  0.00  0.00    +0.055 C 
ATOM     18  C   UNL     1       0.749  -1.902   1.264  0.00  0.00    +0.162 C 
ATOM     19  O   UNL     1       0.693  -0.478   1.160  0.00  0.00    -0.374 OA
ATOM     20  C   UNL     1      -1.433  -0.534   0.012  0.00  0.00    +0.041 C 
ENDBRANCH   1  16
BRANCH   6  21
ATOM     21  C   UNL     1       3.523  -4.746  -5.789  0.00  0.00    -0.030 A 
ATOM     22  C   UNL     1       4.218  -5.508  -4.869  0.00  0.00    +0.006 A 
ATOM     23  C   UNL     1       5.527  -5.874  -5.122  0.00  0.00    +0.015 A 
ATOM     24  C   UNL     1       6.141  -5.477  -6.297  0.00  0.00    +0.018 A 
ATOM     25  C   UNL     1       5.444  -4.715  -7.217  0.00  0.00    +0.015 A 
ATOM     26  C   UNL     1       4.134  -4.354  -6.966  0.00  0.00    +0.006 A 
ATOM     27 BR   UNL     1       7.931  -5.977  -6.643  0.00  0.00    -0.050 Br
ENDBRANCH   6  21
BRANCH   4  28
ATOM     28  O   UNL     1       4.392  -2.747  -4.421  0.00  0.00    -0.491 OA
ATOM     29  H   UNL     1       4.473  -2.027  -5.062  0.00  0.00    +0.294 HD
ENDBRANCH   4  28
TORSDOF 3
