REMARK  Name = ZINC15969260
REMARK  5 active torsions:
REMARK  status: ('A' for Active; 'I' for Inactive)
REMARK    1  A    between atoms: C_2  and  C_3
REMARK    2  A    between atoms: C_3  and  N_4
REMARK    3  A    between atoms: C_5  and  C_7
REMARK    4  A    between atoms: C_12  and  N_13
REMARK    5  A    between atoms: C_29  and  C_34
REMARK                            x       y       z     vdW  Elec       q    Type
REMARK                         _______ _______ _______ _____ _____    ______ ____
ROOT
ATOM      1  N   UNL     1       1.476   2.274  -0.937  0.00  0.00    -0.192 N 
ATOM      2  C   UNL     1       1.285   1.585   0.207  0.00  0.00    +0.248 C 
ATOM      3  O   UNL     1       2.080   1.431   1.109  0.00  0.00    -0.273 OA
ATOM      4  C   UNL     1      -0.129   1.045   0.133  0.00  0.00    +0.170 C 
ATOM      5  C   UNL     1      -0.962   1.623   1.282  0.00  0.00    +0.069 C 
ATOM      6  C   UNL     1      -2.423   1.647   0.865  0.00  0.00    -0.015 A 
ATOM      7  C   UNL     1      -3.578   1.759   1.736  0.00  0.00    +0.003 A 
ATOM      8  C   UNL     1      -3.708   1.875   3.123  0.00  0.00    +0.010 A 
ATOM      9  C   UNL     1      -4.985   1.962   3.621  0.00  0.00    +0.001 A 
ATOM     10  C   UNL     1      -6.099   1.937   2.798  0.00  0.00    +0.002 A 
ATOM     11  C   UNL     1      -5.999   1.822   1.422  0.00  0.00    +0.026 A 
ATOM     12  C   UNL     1      -4.715   1.731   0.889  0.00  0.00    +0.047 A 
ATOM     13  N   UNL     1      -4.263   1.609  -0.393  0.00  0.00    -0.356 N 
ATOM     14  H   UNL     1      -4.825   1.567  -1.182  0.00  0.00    +0.166 HD
ATOM     15  C   UNL     1      -2.894   1.556  -0.397  0.00  0.00    +0.046 A 
ATOM     16  C   UNL     1      -2.006   1.416  -1.617  0.00  0.00    +0.156 C 
ATOM     17  N   UNL     1      -0.628   1.597  -1.146  0.00  0.00    -0.260 N 
ATOM     18  C   UNL     1       0.382   2.263  -1.711  0.00  0.00    +0.317 C 
ATOM     19  O   UNL     1       0.316   2.796  -2.801  0.00  0.00    -0.252 OA
ENDROOT
BRANCH  16  20
ATOM     20  C   UNL     1      -2.170   0.046  -2.222  0.00  0.00    -0.020 A 
ATOM     21  C   UNL     1      -1.763  -1.073  -1.520  0.00  0.00    +0.006 A 
ATOM     22  C   UNL     1      -1.914  -2.330  -2.074  0.00  0.00    +0.002 A 
ATOM     23  C   UNL     1      -2.472  -2.470  -3.331  0.00  0.00    +0.020 A 
ATOM     24  C   UNL     1      -2.879  -1.351  -4.034  0.00  0.00    +0.041 A 
ATOM     25  C   UNL     1      -2.733  -0.093  -3.477  0.00  0.00    +0.025 A 
ATOM     26 CL   UNL     1      -3.581  -1.525  -5.612  0.00  0.00    -0.084 Cl
ENDBRANCH  16  20
BRANCH   1  32
ATOM     27  C   UNL     1       2.873   4.257  -0.900  0.00  0.00    +0.059 A 
ATOM     28  C   UNL     1       4.069   4.892  -1.241  0.00  0.00    +0.015 A 
ATOM     29  C   UNL     1       5.037   4.205  -1.940  0.00  0.00    +0.001 A 
ATOM     30  C   UNL     1       4.831   2.885  -2.307  0.00  0.00    +0.002 A 
ATOM     31  C   UNL     1       3.655   2.243  -1.972  0.00  0.00    +0.025 A 
ATOM     32  C   UNL     1       2.667   2.921  -1.272  0.00  0.00    +0.058 A 
BRANCH  27  34
ATOM     33  N   UNL     1       2.035   6.271   0.206  0.00  0.00    -0.308 N 
ATOM     34  C   UNL     1       1.833   4.987  -0.150  0.00  0.00    +0.246 C 
ATOM     35  O   UNL     1       0.793   4.430   0.145  0.00  0.00    -0.270 OA
ATOM     36  H   UNL     1       2.864   6.715  -0.030  0.00  0.00    +0.149 HD
BRANCH  33  37
ATOM     37  C   UNL     1       1.001   6.996   0.950  0.00  0.00    +0.131 C 
BRANCH  37  39
ATOM     38  C   UNL     1       0.739   9.421   0.849  0.00  0.00    +0.005 C 
ATOM     39  C   UNL     1       1.472   8.401   1.223  0.00  0.00    -0.016 C 
ENDBRANCH  37  39
ENDBRANCH  33  37
ENDBRANCH  27  34
ENDBRANCH   1  32
TORSDOF 5
