REMARK  Name = ZINC39609558
REMARK  8 active torsions:
REMARK  status: ('A' for Active; 'I' for Inactive)
REMARK    1  A    between atoms: C_1  and  C_2
REMARK    2  A    between atoms: C_2  and  O_3
REMARK    3  A    between atoms: O_3  and  C_4
REMARK    4  A    between atoms: C_8  and  C_10
REMARK    5  A    between atoms: C_10  and  C_11
REMARK    6  A    between atoms: C_11  and  N_12
REMARK    7  A    between atoms: C_13  and  C_15
REMARK    8  A    between atoms: C_26  and  C_28
REMARK                            x       y       z     vdW  Elec       q    Type
REMARK                         _______ _______ _______ _____ _____    ______ ____
ROOT
ATOM      1  C   UNL     1      -8.120  -6.024   2.628  0.00  0.00    +0.100 C 
ATOM      2  C   UNL     1      -9.148  -5.002   2.094  0.00  0.00    +0.121 C 
ATOM      3  N   UNL     1     -10.357  -5.219   2.923  0.00  0.00    -0.297 N 
ATOM      4  C   UNL     1      -9.830  -5.460   4.287  0.00  0.00    +0.115 C 
ATOM      5  C   UNL     1      -8.570  -6.322   4.068  0.00  0.00    -0.004 C 
ATOM      6  C   UNL     1      -8.910  -7.801   4.220  0.00  0.00    -0.010 C 
ATOM      7  C   UNL     1      -9.301  -8.084   5.673  0.00  0.00    -0.082 C 
ATOM      8  N   UNL     1      -8.188  -7.723   6.560  0.00  0.00    +0.379 N 
ATOM      9  C   UNL     1      -7.928  -6.281   6.477  0.00  0.00    -0.082 C 
ATOM     10  C   UNL     1      -7.480  -5.922   5.057  0.00  0.00    -0.010 C 
ATOM     11  C   UNL     1     -11.645  -5.201   2.526  0.00  0.00    +0.260 C 
ATOM     12  O   UNL     1     -12.530  -5.398   3.331  0.00  0.00    -0.271 OA
ATOM     13  H   UNL     1      -8.424  -7.967   7.510  0.00  0.00    -0.086 HD
ATOM     14  H   UNL     1      -7.361  -8.229   6.282  0.00  0.00    -0.086 HD
ENDROOT
BRANCH  11  15
ATOM     15  C   UNL     1     -11.985  -4.936   1.082  0.00  0.00    +0.296 C 
ATOM     16  C   UNL     1     -11.579  -3.503   0.709  0.00  0.00    +0.283 C 
ATOM     17  O   UNL     1     -11.928  -3.281  -0.661  0.00  0.00    -0.484 OA
ATOM     18  C   UNL     1     -13.170  -3.680  -1.049  0.00  0.00    +0.162 A 
ATOM     19  C   UNL     1     -13.708  -3.184  -2.227  0.00  0.00    +0.049 A 
ATOM     20  C   UNL     1     -14.966  -3.583  -2.636  0.00  0.00    +0.004 A 
ATOM     21  C   UNL     1     -15.693  -4.477  -1.871  0.00  0.00    +0.004 A 
ATOM     22  C   UNL     1     -15.164  -4.973  -0.695  0.00  0.00    +0.049 A 
ATOM     23  C   UNL     1     -13.901  -4.576  -0.279  0.00  0.00    +0.163 A 
ATOM     24  O   UNL     1     -13.397  -5.068   0.886  0.00  0.00    -0.473 OA
ENDBRANCH  11  15
BRANCH   1  26
ATOM     25  N   UNL     1      -5.658  -6.224   2.484  0.00  0.00    -0.315 N 
ATOM     26  C   UNL     1      -6.736  -5.427   2.624  0.00  0.00    +0.218 C 
ATOM     27  O   UNL     1      -6.592  -4.229   2.748  0.00  0.00    -0.275 OA
ATOM     28  H   UNL     1      -5.774  -7.183   2.386  0.00  0.00    +0.149 HD
BRANCH  25  29
ATOM     29  C   UNL     1      -4.313  -5.644   2.481  0.00  0.00    +0.109 C 
BRANCH  29  30
ATOM     30  C   UNL     1      -3.278  -6.758   2.308  0.00  0.00    +0.054 C 
BRANCH  30  35
ATOM     31  C   UNL     1      -0.046  -5.209   1.112  0.00  0.00    +0.121 A 
ATOM     32  C   UNL     1       0.648  -5.065   2.305  0.00  0.00    +0.045 A 
ATOM     33  C   UNL     1       0.069  -5.469   3.492  0.00  0.00    +0.004 A 
ATOM     34  C   UNL     1      -1.201  -6.016   3.492  0.00  0.00    +0.004 A 
ATOM     35  C   UNL     1      -1.894  -6.161   2.305  0.00  0.00    -0.042 A 
ATOM     36  C   UNL     1      -1.322  -5.753   1.115  0.00  0.00    +0.049 A 
BRANCH  31  37
ATOM     37  O   UNL     1       0.522  -4.812  -0.057  0.00  0.00    -0.492 OA
BRANCH  37  39
ATOM     38  C   UNL     1       2.307  -3.874  -1.390  0.00  0.00    +0.048 C 
ATOM     39  C   UNL     1       1.838  -4.260   0.015  0.00  0.00    +0.225 C 
ENDBRANCH  37  39
ENDBRANCH  31  37
ENDBRANCH  30  35
ENDBRANCH  29  30
ENDBRANCH  25  29
ENDBRANCH   1  26
TORSDOF 7
