REMARK  Name = ZINC61888102
REMARK  7 active torsions:
REMARK  status: ('A' for Active; 'I' for Inactive)
REMARK    1  A    between atoms: C_1  and  C_2
REMARK    2  A    between atoms: C_5  and  S_9
REMARK    3  A    between atoms: C_7  and  C_8
REMARK    4  A    between atoms: S_9  and  N_12
REMARK    5  A    between atoms: N_12  and  C_13
REMARK    6  A    between atoms: C_18  and  C_20
REMARK    7  A    between atoms: N_21  and  O_22
REMARK                            x       y       z     vdW  Elec       q    Type
REMARK                         _______ _______ _______ _____ _____    ______ ____
ROOT
ATOM      1  N   UNL     1       1.606  -4.799   0.014  0.00  0.00    -0.186 NA
ATOM      2  H   UNL     1       1.873  -5.380  -0.716  0.00  0.00    +0.148 HD
ENDROOT
BRANCH   1   3
ATOM      3  C   UNL     1       2.513  -4.577   1.143  0.00  0.00    +0.087 C 
ATOM      4  C   UNL     1       2.417  -5.749   2.135  0.00  0.00    +0.021 C 
ATOM      5  C   UNL     1       3.823  -6.381   2.208  0.00  0.00    +0.002 C 
ATOM      6  C   UNL     1       4.489  -5.980   0.868  0.00  0.00    +0.013 C 
ATOM      7  C   UNL     1       3.973  -4.535   0.647  0.00  0.00    +0.074 C 
BRANCH   7   8
ATOM      8  C   UNL     1       4.024  -4.173  -0.815  0.00  0.00    +0.136 C 
ATOM      9  N   UNL     1       4.083  -5.104  -1.709  0.00  0.00    -0.076 NA
ATOM     10  N   UNL     1       4.009  -2.850  -1.197  0.00  0.00    -0.344 N 
ATOM     11  H   UNL     1       3.965  -2.152  -0.526  0.00  0.00    +0.144 HD
ATOM     12  H   UNL     1       4.042  -2.617  -2.138  0.00  0.00    +0.144 HD
BRANCH   9  13
ATOM     13  O   UNL     1       4.131  -4.764  -3.082  0.00  0.00    -0.408 OA
ATOM     14  H   UNL     1       4.173  -5.526  -3.675  0.00  0.00    +0.328 HD
ENDBRANCH   9  13
ENDBRANCH   7   8
ENDBRANCH   1   3
BRANCH   1  15
ATOM     15  S   UNL     1       0.125  -4.059  -0.017  0.00  0.00    +0.059 S 
ATOM     16  O   UNL     1      -0.471  -4.291   1.251  0.00  0.00    -0.153 OA
ATOM     17  O   UNL     1      -0.497  -4.446  -1.235  0.00  0.00    -0.153 OA
BRANCH  15  22
ATOM     18  C   UNL     1       1.106   1.883  -0.398  0.00  0.00    +0.044 C 
ATOM     19  C   UNL     1       0.861   0.399  -0.303  0.00  0.00    -0.047 A 
ATOM     20  C   UNL     1       0.738  -0.357  -1.454  0.00  0.00    +0.005 A 
ATOM     21  C   UNL     1       0.513  -1.718  -1.367  0.00  0.00    +0.029 A 
ATOM     22  C   UNL     1       0.413  -2.324  -0.128  0.00  0.00    +0.106 A 
ATOM     23  C   UNL     1       0.537  -1.569   1.023  0.00  0.00    +0.032 A 
ATOM     24  C   UNL     1       0.766  -0.208   0.935  0.00  0.00    -0.046 A 
ATOM     25  C   UNL     1       0.907   0.614   2.191  0.00  0.00    +0.044 C 
ENDBRANCH  15  22
ENDBRANCH   1  15
TORSDOF 5
