REMARK  Name = ZINC19376357
REMARK  5 active torsions:
REMARK  status: ('A' for Active; 'I' for Inactive)
REMARK    1  A    between atoms: N_15  and  C_18
REMARK    2  A    between atoms: C_18  and  C_19
REMARK    3  A    between atoms: C_19  and  C_21
REMARK    4  A    between atoms: C_19  and  O_31
REMARK    5  A    between atoms: C_33  and  O_35
REMARK                            x       y       z     vdW  Elec       q    Type
REMARK                         _______ _______ _______ _____ _____    ______ ____
ROOT
ATOM      1  C   UNL     1       4.075  -9.098   2.375  0.00  0.00    +0.001 A 
ATOM      2  C   UNL     1       3.933  -7.823   2.919  0.00  0.00    +0.001 A 
ATOM      3  C   UNL     1       4.833  -6.840   2.646  0.00  0.00    +0.012 A 
ATOM      4  C   UNL     1       5.922  -7.111   1.801  0.00  0.00    +0.024 A 
ATOM      5  C   UNL     1       6.066  -8.405   1.247  0.00  0.00    -0.014 A 
ATOM      6  C   UNL     1       5.120  -9.397   1.555  0.00  0.00    +0.008 A 
ATOM      7  C   UNL     1       7.154  -8.671   0.399  0.00  0.00    +0.009 A 
ATOM      8  C   UNL     1       8.046  -7.683   0.119  0.00  0.00    +0.010 A 
ATOM      9  C   UNL     1       7.910  -6.402   0.661  0.00  0.00    +0.023 A 
ATOM     10  C   UNL     1       6.873  -6.110   1.496  0.00  0.00    +0.135 A 
ATOM     11  O   UNL     1       6.722  -4.884   2.060  0.00  0.00    -0.485 OA
ATOM     12  C   UNL     1       7.442  -3.790   1.496  0.00  0.00    +0.110 C 
ATOM     13  C   UNL     1       7.378  -2.587   2.439  0.00  0.00    +0.029 C 
ATOM     14  C   UNL     1       5.924  -2.130   2.578  0.00  0.00    -0.075 C 
ATOM     15  N   UNL     1       5.394  -1.772   1.255  0.00  0.00    +0.382 N 
ATOM     16  C   UNL     1       5.400  -2.927   0.349  0.00  0.00    -0.075 C 
ATOM     17  C   UNL     1       6.838  -3.410   0.144  0.00  0.00    +0.029 C 
ATOM     18  C   UNL     1       8.902  -4.214   1.306  0.00  0.00    +0.084 C 
ATOM     19  C   UNL     1       8.941  -5.362   0.295  0.00  0.00    +0.152 C 
ATOM     20  H   UNL     1       6.057  -1.006   0.825  0.00  0.00    -0.082 HD
ENDROOT
BRANCH  19  21
ATOM     21  O   UNL     1      10.240  -5.958   0.302  0.00  0.00    -0.387 OA
ATOM     22  H   UNL     1      11.125  -5.351   0.059  0.00  0.00    +0.210 HD
ENDBRANCH  19  21
BRANCH  15  23
ATOM     23  C   UNL     1       4.048  -1.196   1.366  0.00  0.00    -0.042 C 
BRANCH  23  24
ATOM     24  C   UNL     1       4.148   0.242   1.878  0.00  0.00    +0.128 C 
BRANCH  24  25
ATOM     25  C   UNL     1       2.766   0.829   2.004  0.00  0.00    -0.017 A 
ATOM     26  C   UNL     1       2.116   1.310   0.883  0.00  0.00    +0.010 A 
ATOM     27  C   UNL     1       0.848   1.849   0.994  0.00  0.00    +0.050 A 
ATOM     28  C   UNL     1       0.226   1.911   2.232  0.00  0.00    +0.162 A 
ATOM     29  C   UNL     1       0.878   1.425   3.359  0.00  0.00    +0.162 A 
ATOM     30  C   UNL     1       2.150   0.885   3.240  0.00  0.00    +0.055 A 
ATOM     31  O   UNL     1       0.282   1.468   4.581  0.00  0.00    -0.485 OA
ATOM     32  C   UNL     1      -0.835   2.353   4.722  0.00  0.00    +0.270 C 
ATOM     33  C   UNL     1      -1.762   2.153   3.515  0.00  0.00    +0.270 C 
ATOM     34  O   UNL     1      -1.019   2.453   2.327  0.00  0.00    -0.485 OA
ENDBRANCH  24  25
BRANCH  24  35
ATOM     35  O   UNL     1       4.915   1.023   0.959  0.00  0.00    -0.389 OA
ATOM     36  H   UNL     1       5.096   2.089   1.160  0.00  0.00    +0.210 HD
ENDBRANCH  24  35
ENDBRANCH  23  24
ENDBRANCH  15  23
TORSDOF 5
