REMARK  Name = ZINC52627879
REMARK  9 active torsions:
REMARK  status: ('A' for Active; 'I' for Inactive)
REMARK    1  A    between atoms: C_1  and  O_2
REMARK    2  A    between atoms: O_2  and  C_3
REMARK    3  A    between atoms: C_7  and  C_13
REMARK    4  A    between atoms: C_15  and  O_19
REMARK    5  A    between atoms: O_19  and  C_20
REMARK    6  A    between atoms: C_20  and  C_21
REMARK    7  A    between atoms: C_21  and  C_23
REMARK    8  A    between atoms: C_21  and  N_33
REMARK    9  A    between atoms: C_23  and  C_24
REMARK                            x       y       z     vdW  Elec       q    Type
REMARK                         _______ _______ _______ _____ _____    ______ ____
ROOT
ATOM      1  C   UNL     1       0.930  -6.273   1.349  0.00  0.00    +0.004 A 
ATOM      2  C   UNL     1       0.365  -7.064   0.346  0.00  0.00    +0.057 A 
ATOM      3  C   UNL     1       0.464  -8.445   0.463  0.00  0.00    +0.139 A 
ATOM      4  C   UNL     1       1.114  -8.986   1.564  0.00  0.00    +0.156 A 
ATOM      5  N   UNL     1       1.636  -8.209   2.493  0.00  0.00    -0.259 NA
ATOM      6  C   UNL     1       1.571  -6.895   2.419  0.00  0.00    +0.119 A 
ENDROOT
BRANCH   1  11
ATOM      7  C   UNL     1       0.624  -0.617   1.038  0.00  0.00    +0.222 A 
ATOM      8  C   UNL     1       0.687  -2.025   1.093  0.00  0.00    +0.044 A 
ATOM      9  C   UNL     1       0.119  -2.831   0.095  0.00  0.00    +0.014 A 
ATOM     10  C   UNL     1       0.204  -4.184   0.189  0.00  0.00    +0.009 A 
ATOM     11  C   UNL     1       0.853  -4.793   1.274  0.00  0.00    -0.016 A 
ATOM     12  C   UNL     1       1.423  -4.025   2.274  0.00  0.00    +0.017 A 
ATOM     13  C   UNL     1       1.346  -2.630   2.194  0.00  0.00    -0.011 A 
ATOM     14  C   UNL     1       1.906  -1.792   3.179  0.00  0.00    +0.028 A 
ATOM     15  C   UNL     1       1.793  -0.444   3.036  0.00  0.00    +0.115 A 
ATOM     16  N   UNL     1       1.176   0.101   1.995  0.00  0.00    -0.221 NA
BRANCH   7  18
ATOM     17  C   UNL     1      -0.017   1.425   0.010  0.00  0.00    +0.279 C 
ATOM     18  O   UNL     1       0.002  -0.004   0.002  0.00  0.00    -0.479 OA
ENDBRANCH   7  18
ENDBRANCH   1  11
BRANCH   3  19
ATOM     19  O   UNL     1      -0.071  -9.256  -0.487  0.00  0.00    -0.492 OA
BRANCH  19  20
ATOM     20  C   UNL     1       0.073 -10.665  -0.293  0.00  0.00    +0.213 C 
BRANCH  20  21
ATOM     21  C   UNL     1      -0.586 -11.409  -1.456  0.00  0.00    -0.033 C 
BRANCH  21  22
ATOM     22  N   UNL     1       0.137 -11.113  -2.700  0.00  0.00    +0.382 N 
ATOM     23  H   UNL     1       1.097 -11.411  -2.611  0.00  0.00    -0.089 HD
ATOM     24  H   UNL     1      -0.297 -11.604  -3.467  0.00  0.00    -0.089 HD
ATOM     25  H   UNL     1       0.108 -10.120  -2.877  0.00  0.00    -0.089 HD
ENDBRANCH  21  22
BRANCH  21  26
ATOM     26  C   UNL     1      -0.542 -12.915  -1.188  0.00  0.00    +0.020 C 
BRANCH  26  27
ATOM     27  C   UNL     1      -1.298 -13.640  -2.271  0.00  0.00    -0.043 C 
ATOM     28  C   UNL     1      -0.782 -14.196  -3.391  0.00  0.00    -0.001 A 
ATOM     29  C   UNL     1       0.586 -14.287  -3.916  0.00  0.00    +0.010 A 
ATOM     30  C   UNL     1       0.796 -14.920  -5.092  0.00  0.00    +0.001 A 
ATOM     31  C   UNL     1      -0.257 -15.489  -5.821  0.00  0.00    +0.002 A 
ATOM     32  C   UNL     1      -1.540 -15.447  -5.404  0.00  0.00    +0.026 A 
ATOM     33  C   UNL     1      -1.876 -14.806  -4.179  0.00  0.00    +0.043 A 
ATOM     34  N   UNL     1      -3.024 -14.634  -3.571  0.00  0.00    -0.380 N 
ATOM     35  C   UNL     1      -2.787 -13.900  -2.323  0.00  0.00    +0.144 C 
ATOM     36  H   UNL     1      -3.886 -14.944  -3.890  0.00  0.00    +0.160 HD
ENDBRANCH  26  27
ENDBRANCH  21  26
ENDBRANCH  20  21
ENDBRANCH  19  20
ENDBRANCH   3  19
TORSDOF 8
