REMARK  Name = ZINC14139760
REMARK  4 active torsions:
REMARK  status: ('A' for Active; 'I' for Inactive)
REMARK    1  A    between atoms: C_6  and  N_7
REMARK    2  A    between atoms: C_8  and  C_10
REMARK    3  A    between atoms: C_10  and  S_11
REMARK    4  A    between atoms: S_11  and  C_12
REMARK                            x       y       z     vdW  Elec       q    Type
REMARK                         _______ _______ _______ _____ _____    ______ ____
ROOT
ATOM      1  N   UNL     1       1.239  -2.082  -0.021  0.00  0.00    -0.282 N 
ATOM      2  C   UNL     1       2.412  -2.736  -0.138  0.00  0.00    +0.228 C 
ATOM      3  O   UNL     1       3.454  -2.116  -0.144  0.00  0.00    -0.275 OA
ATOM      4  H   UNL     1       0.412  -2.581   0.065  0.00  0.00    +0.155 HD
ENDROOT
BRANCH   1  10
ATOM      5  C   UNL     1       2.237   0.030  -0.638  0.00  0.00    +0.029 A 
ATOM      6  C   UNL     1       2.213   1.412  -0.641  0.00  0.00    +0.043 A 
ATOM      7  C   UNL     1       1.171   2.090  -0.033  0.00  0.00    +0.161 A 
ATOM      8  C   UNL     1       0.147   1.383   0.581  0.00  0.00    +0.195 A 
ATOM      9  C   UNL     1       0.168  -0.001   0.587  0.00  0.00    +0.182 A 
ATOM     10  C   UNL     1       1.216  -0.681  -0.024  0.00  0.00    +0.072 A 
ATOM     11  F   UNL     1      -0.829  -0.690   1.184  0.00  0.00    -0.200 F 
ATOM     12  F   UNL     1      -0.873   2.046   1.169  0.00  0.00    -0.199 F 
ATOM     13  F   UNL     1       1.150   3.440  -0.037  0.00  0.00    -0.202 F 
ENDBRANCH   1  10
BRANCH   2  14
ATOM     14  C   UNL     1       2.427  -4.238  -0.260  0.00  0.00    +0.173 C 
BRANCH  14  15
ATOM     15  S   UNL     1       4.138  -4.814  -0.399  0.00  0.00    -0.078 S 
BRANCH  15  16
ATOM     16  C   UNL     1       3.866  -6.551  -0.525  0.00  0.00    +0.170 A 
ATOM     17  N   UNL     1       4.933  -7.391  -0.656  0.00  0.00    -0.301 N 
ATOM     18  H   UNL     1       5.830  -7.022  -0.679  0.00  0.00    +0.171 HD
ATOM     19  C   UNL     1       4.766  -8.723  -0.750  0.00  0.00    +0.260 A 
ATOM     20  O   UNL     1       5.730  -9.460  -0.862  0.00  0.00    -0.267 OA
ATOM     21  C   UNL     1       3.441  -9.262  -0.722  0.00  0.00    +0.072 A 
ATOM     22  C   UNL     1       3.009 -10.646  -0.811  0.00  0.00    +0.023 A 
ATOM     23  C   UNL     1       1.699 -10.928  -0.763  0.00  0.00    +0.048 A 
ATOM     24  S   UNL     1       0.936  -9.326  -0.592  0.00  0.00    -0.077 S 
ATOM     25  C   UNL     1       2.400  -8.323  -0.589  0.00  0.00    +0.116 A 
ATOM     26  N   UNL     1       2.635  -7.020  -0.496  0.00  0.00    -0.216 NA
ENDBRANCH  15  16
ENDBRANCH  14  15
ENDBRANCH   2  14
TORSDOF 4
