REMARK  Name = ZINC21668404
REMARK  5 active torsions:
REMARK  status: ('A' for Active; 'I' for Inactive)
REMARK    1  A    between atoms: C_1  and  C_2
REMARK    2  A    between atoms: C_4  and  O_5
REMARK    3  A    between atoms: C_14  and  C_16
REMARK    4  A    between atoms: N_21  and  S_22
REMARK    5  A    between atoms: S_22  and  C_25
REMARK                            x       y       z     vdW  Elec       q    Type
REMARK                         _______ _______ _______ _____ _____    ______ ____
ROOT
ATOM      1  C   UNL     1       1.276  -5.912   5.880  0.00  0.00    +0.045 C 
ATOM      2  C   UNL     1       0.209  -5.500   4.900  0.00  0.00    -0.033 A 
ATOM      3  C   UNL     1      -0.821  -6.333   4.599  0.00  0.00    +0.091 A 
ATOM      4  C   UNL     1      -1.808  -5.924   3.678  0.00  0.00    +0.285 A 
ATOM      5  O   UNL     1      -1.761  -4.723   3.082  0.00  0.00    -0.425 OA
ATOM      6  C   UNL     1      -0.765  -3.847   3.337  0.00  0.00    +0.141 A 
ATOM      7  C   UNL     1       0.254  -4.191   4.246  0.00  0.00    +0.021 A 
ATOM      8  C   UNL     1       1.289  -3.287   4.513  0.00  0.00    +0.013 A 
ATOM      9  C   UNL     1       1.310  -2.075   3.886  0.00  0.00    +0.024 A 
ATOM     10  C   UNL     1       0.301  -1.727   2.989  0.00  0.00    +0.037 A 
ATOM     11  C   UNL     1      -0.732  -2.610   2.712  0.00  0.00    +0.070 A 
ATOM     12  N   UNL     1       0.334  -0.482   2.360  0.00  0.00    -0.284 N 
ATOM     13  C   UNL     1      -0.817   0.141   2.037  0.00  0.00    +0.236 C 
ATOM     14  O   UNL     1      -1.880  -0.337   2.373  0.00  0.00    -0.274 OA
ATOM     15  H   UNL     1       1.299  -0.009   2.127  0.00  0.00    +0.155 HD
ENDROOT
BRANCH  13  16
ATOM     16  C   UNL     1      -0.783   1.432   1.260  0.00  0.00    +0.165 C 
ATOM     17  C   UNL     1      -0.715   1.132  -0.253  0.00  0.00    +0.031 C 
ATOM     18  C   UNL     1      -1.626   2.226  -0.869  0.00  0.00    +0.019 C 
ATOM     19  C   UNL     1      -2.730   2.357   0.210  0.00  0.00    +0.110 C 
ATOM     20  N   UNL     1      -2.023   2.195   1.494  0.00  0.00    -0.170 NA
BRANCH  20  21
ATOM     21  S   UNL     1      -2.537   2.775   2.957  0.00  0.00    +0.030 S 
ATOM     22  O   UNL     1      -3.955   2.737   2.885  0.00  0.00    -0.158 OA
ATOM     23  O   UNL     1      -1.839   1.998   3.920  0.00  0.00    -0.158 OA
ATOM     24  C   UNL     1      -1.960   4.495   3.005  0.00  0.00    +0.215 C 
ENDBRANCH  20  21
ENDBRANCH  13  16
BRANCH   4  25
ATOM     25  O   UNL     1      -2.726  -6.681   3.417  0.00  0.00    -0.480 OA
ATOM     26  H   UNL     1      -3.503  -6.376   2.701  0.00  0.00    +0.295 HD
ENDBRANCH   4  25
TORSDOF 3
