REMARK  Name = ZINC04324459
REMARK  8 active torsions:
REMARK  status: ('A' for Active; 'I' for Inactive)
REMARK    1  A    between atoms: C_1  and  C_2
REMARK    2  A    between atoms: C_7  and  O_8
REMARK    3  A    between atoms: O_8  and  C_9
REMARK    4  A    between atoms: C_9  and  C_10
REMARK    5  A    between atoms: C_10  and  C_12
REMARK    6  A    between atoms: C_10  and  O_21
REMARK    7  A    between atoms: C_12  and  N_45
REMARK    8  A    between atoms: C_15  and  C_18
REMARK                            x       y       z     vdW  Elec       q    Type
REMARK                         _______ _______ _______ _____ _____    ______ ____
ROOT
ATOM      1  C   UNL     1       0.980  -4.231  -1.144  0.00  0.00    +0.135 C 
ENDROOT
BRANCH   1   2
ATOM      2  O   UNL     1      -0.255  -4.790  -0.691  0.00  0.00    -0.390 OA
ATOM      3  H   UNL     1      -0.992  -4.663  -1.304  0.00  0.00    +0.210 HD
ENDBRANCH   1   2
BRANCH   1   4
ATOM      4  C   UNL     1       0.814  -2.724  -1.347  0.00  0.00    +0.258 C 
BRANCH   4   5
ATOM      5  O   UNL     1       0.556  -2.099  -0.087  0.00  0.00    -0.488 OA
BRANCH   5  12
ATOM      6  C   UNL     1      -2.072  -1.126  -0.437  0.00  0.00    +0.047 C 
ATOM      7  C   UNL     1      -0.885  -0.214  -0.259  0.00  0.00    -0.006 A 
ATOM      8  C   UNL     1      -1.059   1.156  -0.262  0.00  0.00    +0.027 A 
ATOM      9  C   UNL     1       0.030   1.994  -0.099  0.00  0.00    +0.042 A 
ATOM     10  C   UNL     1       1.296   1.461   0.068  0.00  0.00    +0.039 A 
ATOM     11  C   UNL     1       1.475   0.091   0.073  0.00  0.00    +0.061 A 
ATOM     12  C   UNL     1       0.383  -0.751  -0.091  0.00  0.00    +0.137 A 
ATOM     13 BR   UNL     1       3.205  -0.637   0.302  0.00  0.00    -0.046 Br
ATOM     14 CL   UNL     1      -0.193   3.716  -0.104  0.00  0.00    -0.083 Cl
ENDBRANCH   5  12
ENDBRANCH   4   5
ENDBRANCH   1   4
BRANCH   1  15
ATOM     15  C   UNL     1       1.378  -4.883  -2.470  0.00  0.00    -0.044 C 
BRANCH  15  21
ATOM     16  C   UNL     1       1.662  -7.021  -3.568  0.00  0.00    -0.078 C 
ATOM     17  C   UNL     1       1.663  -8.535  -3.341  0.00  0.00    -0.006 C 
ATOM     18  C   UNL     1       2.824  -8.906  -2.414  0.00  0.00    +0.071 C 
ATOM     19  C   UNL     1       2.681  -8.138  -1.097  0.00  0.00    -0.006 C 
ATOM     20  C   UNL     1       2.650  -6.636  -1.389  0.00  0.00    -0.078 C 
ATOM     21  N   UNL     1       1.497  -6.341  -2.266  0.00  0.00    +0.381 N 
ATOM     22  H   UNL     1       0.640  -6.686  -1.816  0.00  0.00    -0.082 HD
BRANCH  18  23
ATOM     23  C   UNL     1       2.795 -10.388  -2.139  0.00  0.00    +0.213 C 
ATOM     24  O   UNL     1       2.671 -10.791  -1.001  0.00  0.00    -0.276 OA
ATOM     25  N   UNL     1       2.905 -11.264  -3.156  0.00  0.00    -0.329 N 
ATOM     26  H   UNL     1       3.004 -10.942  -4.066  0.00  0.00    +0.145 HD
ATOM     27  H   UNL     1       2.886 -12.218  -2.979  0.00  0.00    +0.145 HD
ENDBRANCH  18  23
ENDBRANCH  15  21
ENDBRANCH   1  15
TORSDOF 7
