REMARK  Name = ZINC35930051
REMARK  3 active torsions:
REMARK  status: ('A' for Active; 'I' for Inactive)
REMARK    1  A    between atoms: C_15  and  C_30
REMARK    2  A    between atoms: C_17  and  N_29
REMARK    3  A    between atoms: N_18  and  C_22
REMARK                            x       y       z     vdW  Elec       q    Type
REMARK                         _______ _______ _______ _____ _____    ______ ____
ROOT
ATOM      1  C   UNL     1       2.297   1.435   0.599  0.00  0.00    +0.005 A 
ATOM      2  C   UNL     1       1.052   2.044   0.683  0.00  0.00    +0.018 A 
ATOM      3  C   UNL     1      -0.085   1.261   0.671  0.00  0.00    +0.084 A 
ATOM      4  N   UNL     1      -0.002  -0.052   0.580  0.00  0.00    -0.350 N 
ATOM      5  C   UNL     1       1.166  -0.670   0.498  0.00  0.00    +0.099 A 
ATOM      6  C   UNL     1       2.353   0.057   0.505  0.00  0.00    +0.042 A 
ATOM      7  N   UNL     1       1.208  -2.056   0.405  0.00  0.00    -0.314 N 
ATOM      8  C   UNL     1       2.481  -2.752   0.171  0.00  0.00    +0.125 C 
ATOM      9  C   UNL     1       2.686  -3.787   1.285  0.00  0.00    +0.127 C 
ATOM     10  N   UNL     1       1.457  -4.582   1.418  0.00  0.00    -0.297 N 
ATOM     11  C   UNL     1       0.184  -3.886   1.652  0.00  0.00    +0.127 C 
ATOM     12  C   UNL     1      -0.020  -2.852   0.543  0.00  0.00    +0.125 C 
ATOM     13  C   UNL     1       1.498  -5.962   1.325  0.00  0.00    +0.220 A 
ATOM     14  N   UNL     1       0.358  -6.634   1.448  0.00  0.00    -0.214 NA
ATOM     15  C   UNL     1       0.308  -7.958   1.371  0.00  0.00    +0.089 A 
ATOM     16  C   UNL     1       1.513  -8.662   1.152  0.00  0.00    +0.086 A 
ATOM     17  C   UNL     1       1.876  -9.997   1.016  0.00  0.00    +0.131 A 
ATOM     18  N   UNL     1       3.208 -10.037   0.821  0.00  0.00    -0.216 N 
ATOM     19  N   UNL     1       3.730  -8.738   0.827  0.00  0.00    -0.144 NA
ATOM     20  C   UNL     1       2.755  -7.878   1.022  0.00  0.00    +0.189 A 
ATOM     21  N   UNL     1       2.665  -6.537   1.115  0.00  0.00    -0.193 NA
ATOM     22  H   UNL     1      -0.817  -0.579   0.573  0.00  0.00    +0.166 HD
ENDROOT
BRANCH  18  23
ATOM     23  C   UNL     1       3.960 -11.205   0.639  0.00  0.00    +0.068 A 
ATOM     24  C   UNL     1       3.609 -12.369   1.310  0.00  0.00    +0.029 A 
ATOM     25  C   UNL     1       4.352 -13.519   1.129  0.00  0.00    +0.022 A 
ATOM     26  C   UNL     1       5.445 -13.512   0.281  0.00  0.00    +0.041 A 
ATOM     27  C   UNL     1       5.797 -12.353  -0.389  0.00  0.00    +0.022 A 
ATOM     28  C   UNL     1       5.054 -11.202  -0.216  0.00  0.00    +0.029 A 
ATOM     29 CL   UNL     1       6.377 -14.959   0.056  0.00  0.00    -0.084 Cl
ENDBRANCH  18  23
BRANCH  15  30
ATOM     30  C   UNL     1      -0.977  -8.679   1.512  0.00  0.00    +0.001 A 
ATOM     31  C   UNL     1      -1.071  -9.784   2.358  0.00  0.00    +0.013 A 
ATOM     32  C   UNL     1      -2.271 -10.452   2.486  0.00  0.00    +0.039 A 
ATOM     33  C   UNL     1      -3.382 -10.027   1.775  0.00  0.00    +0.123 A 
ATOM     34  C   UNL     1      -3.294  -8.929   0.933  0.00  0.00    +0.039 A 
ATOM     35  C   UNL     1      -2.101  -8.251   0.803  0.00  0.00    +0.013 A 
ATOM     36  F   UNL     1      -4.555 -10.685   1.903  0.00  0.00    -0.205 F 
ENDBRANCH  15  30
BRANCH  17  37
ATOM     37  N   UNL     1       1.025 -11.085   1.070  0.00  0.00    -0.342 N 
ATOM     38  H   UNL     1       0.065 -10.948   1.108  0.00  0.00    +0.144 HD
ATOM     39  H   UNL     1       1.387 -11.985   1.071  0.00  0.00    +0.144 HD
ENDBRANCH  17  37
TORSDOF 3
