REMARK  Name = ZINC11699225
REMARK  11 active torsions:
REMARK  status: ('A' for Active; 'I' for Inactive)
REMARK    1  A    between atoms: C_1  and  C_2
REMARK    2  A    between atoms: C_2  and  O_3
REMARK    3  A    between atoms: O_3  and  C_4
REMARK    4  A    between atoms: C_9  and  C_10
REMARK    5  A    between atoms: C_10  and  N_65
REMARK    6  A    between atoms: C_16  and  C_18
REMARK    7  A    between atoms: C_18  and  C_19
REMARK    8  A    between atoms: N_21  and  C_22
REMARK    9  A    between atoms: N_21  and  C_23
REMARK   10  A    between atoms: C_23  and  C_24
REMARK   11  A    between atoms: C_25  and  C_34
REMARK                            x       y       z     vdW  Elec       q    Type
REMARK                         _______ _______ _______ _____ _____    ______ ____
ROOT
ATOM      1  C   UNL     1       0.035   3.962  -0.673  0.00  0.00    -0.058 C 
ATOM      2  C   UNL     1      -1.262   3.213  -0.364  0.00  0.00    +0.085 C 
ATOM      3  N   UNL     1      -1.066   1.778  -0.550  0.00  0.00    -0.318 N 
ATOM      4  C   UNL     1       0.143   1.207  -0.577  0.00  0.00    +0.200 C 
ATOM      5  O   UNL     1       0.215   0.003  -0.699  0.00  0.00    -0.278 OA
ATOM      6  C   UNL     1       1.417   1.996  -0.467  0.00  0.00    +0.028 C 
ATOM      7  H   UNL     1      -1.847   1.213  -0.654  0.00  0.00    +0.149 HD
ATOM      8  N   UNL     1       1.124   3.328   0.096  0.00  0.00    +0.391 N 
ATOM      9  H   UNL     1       0.827   3.221   1.073  0.00  0.00    -0.080 HD
ENDROOT
BRANCH   8  10
ATOM     10  C   UNL     1       2.338   4.175   0.052  0.00  0.00    -0.038 C 
BRANCH  10  16
ATOM     11  C   UNL     1       2.039   5.595   2.097  0.00  0.00    +0.122 A 
ATOM     12  C   UNL     1       1.764   6.813   2.702  0.00  0.00    +0.046 A 
ATOM     13  C   UNL     1       1.491   7.923   1.927  0.00  0.00    +0.004 A 
ATOM     14  C   UNL     1       1.493   7.821   0.547  0.00  0.00    +0.000 A 
ATOM     15  C   UNL     1       1.771   6.610  -0.058  0.00  0.00    +0.005 A 
ATOM     16  C   UNL     1       2.039   5.496   0.713  0.00  0.00    -0.022 A 
BRANCH  11  17
ATOM     17  O   UNL     1       2.307   4.502   2.858  0.00  0.00    -0.492 OA
BRANCH  17  19
ATOM     18  C   UNL     1       2.612   3.347   4.959  0.00  0.00    +0.048 C 
ATOM     19  C   UNL     1       2.289   4.678   4.276  0.00  0.00    +0.225 C 
ENDBRANCH  17  19
ENDBRANCH  11  17
ENDBRANCH  10  16
ENDBRANCH   8  10
BRANCH   6  20
ATOM     20  C   UNL     1       2.389   1.266   0.462  0.00  0.00    +0.090 C 
BRANCH  20  21
ATOM     21  C   UNL     1       1.750   1.085   1.815  0.00  0.00    +0.215 C 
ATOM     22  O   UNL     1       0.631   1.506   2.018  0.00  0.00    -0.276 OA
ATOM     23  N   UNL     1       2.422   0.455   2.798  0.00  0.00    -0.299 N 
ATOM     24  C   UNL     1       3.774  -0.054   2.553  0.00  0.00    +0.132 C 
BRANCH  23  25
ATOM     25  C   UNL     1       1.801   0.278   4.114  0.00  0.00    +0.160 C 
BRANCH  25  26
ATOM     26  C   UNL     1       1.156  -1.082   4.186  0.00  0.00    +0.037 A 
ATOM     27  C   UNL     1       0.424  -1.533   5.217  0.00  0.00    -0.021 A 
ATOM     28  C   UNL     1      -0.010  -2.889   4.872  0.00  0.00    +0.003 A 
ATOM     29  C   UNL     1      -0.780  -3.856   5.521  0.00  0.00    +0.010 A 
ATOM     30  C   UNL     1      -1.004  -5.062   4.919  0.00  0.00    +0.001 A 
ATOM     31  C   UNL     1      -0.472  -5.334   3.666  0.00  0.00    +0.002 A 
ATOM     32  C   UNL     1       0.291  -4.394   3.008  0.00  0.00    +0.026 A 
ATOM     33  C   UNL     1       0.532  -3.160   3.603  0.00  0.00    +0.047 A 
ATOM     34  N   UNL     1       1.234  -2.041   3.214  0.00  0.00    -0.356 N 
ATOM     35  H   UNL     1       1.714  -1.947   2.376  0.00  0.00    +0.166 HD
ATOM     36  C   UNL     1       0.105  -0.785   6.486  0.00  0.00    +0.046 C 
ENDBRANCH  25  26
ENDBRANCH  23  25
ENDBRANCH  20  21
ENDBRANCH   6  20
TORSDOF 8
