REMARK  Name = ZINC40442306
REMARK  10 active torsions:
REMARK  status: ('A' for Active; 'I' for Inactive)
REMARK    1  A    between atoms: C_1  and  C_2
REMARK    2  A    between atoms: C_5  and  O_8
REMARK    3  A    between atoms: O_8  and  C_9
REMARK    4  A    between atoms: C_9  and  C_10
REMARK    5  A    between atoms: C_12  and  O_30
REMARK    6  A    between atoms: C_15  and  N_18
REMARK    7  A    between atoms: C_26  and  N_27
REMARK    8  A    between atoms: N_27  and  O_28
REMARK    9  A    between atoms: O_30  and  C_31
REMARK   10  A    between atoms: C_34  and  C_37
REMARK                            x       y       z     vdW  Elec       q    Type
REMARK                         _______ _______ _______ _____ _____    ______ ____
ROOT
ATOM      1  C   UNL     1       0.362  -6.323   1.072  0.00  0.00    +0.199 C 
ATOM      2  C   UNL     1      -0.020  -7.013   2.396  0.00  0.00    +0.210 C 
ATOM      3  C   UNL     1       1.095  -8.065   2.611  0.00  0.00    +0.102 C 
ATOM      4  C   UNL     1       1.659  -8.239   1.178  0.00  0.00    +0.226 C 
ATOM      5  O   UNL     1       1.599  -6.905   0.625  0.00  0.00    -0.346 OA
ENDROOT
BRANCH   4   6
ATOM      6  N   UNL     1       3.041  -8.722   1.223  0.00  0.00    -0.288 N 
ATOM      7  C   UNL     1       4.165  -7.953   1.173  0.00  0.00    +0.203 A 
ATOM      8  N   UNL     1       5.223  -8.707   1.236  0.00  0.00    -0.232 NA
ATOM      9  C   UNL     1       4.846 -10.008   1.329  0.00  0.00    +0.133 A 
ATOM     10  C   UNL     1       3.444 -10.035   1.328  0.00  0.00    +0.166 A 
ATOM     11  N   UNL     1       2.795 -11.188   1.416  0.00  0.00    -0.216 NA
ATOM     12  C   UNL     1       3.433 -12.338   1.509  0.00  0.00    +0.134 A 
ATOM     13  C   UNL     1       4.816 -12.397   1.520  0.00  0.00    +0.070 A 
ATOM     14  C   UNL     1       5.551 -11.221   1.422  0.00  0.00    +0.093 A 
ATOM     15 CL   UNL     1       2.519 -13.810   1.621  0.00  0.00    -0.062 Cl
BRANCH  14  16
ATOM     16  N   UNL     1       6.941 -11.242   1.432  0.00  0.00    -0.266 N 
ATOM     17  H   UNL     1       7.439 -10.412   1.375  0.00  0.00    +0.194 HD
BRANCH  16  18
ATOM     18  O   UNL     1       7.630 -12.476   1.527  0.00  0.00    -0.289 OA
ATOM     19  H   UNL     1       8.593 -12.390   1.527  0.00  0.00    +0.244 HD
ENDBRANCH  16  18
ENDBRANCH  14  16
ENDBRANCH   4   6
BRANCH   1  20
ATOM     20  C   UNL     1       0.546  -4.822   1.302  0.00  0.00    +0.264 C 
BRANCH  20  21
ATOM     21  O   UNL     1       0.793  -4.176   0.051  0.00  0.00    -0.489 OA
BRANCH  21  26
ATOM     22  C   UNL     1       1.567   1.402   0.166  0.00  0.00    +0.044 C 
ATOM     23  C   UNL     1       1.360  -0.090   0.135  0.00  0.00    -0.050 A 
ATOM     24  C   UNL     1       1.413  -0.770  -1.068  0.00  0.00    +0.007 A 
ATOM     25  C   UNL     1       1.224  -2.138  -1.099  0.00  0.00    +0.046 A 
ATOM     26  C   UNL     1       0.980  -2.830   0.079  0.00  0.00    +0.121 A 
ATOM     27  C   UNL     1       0.927  -2.146   1.285  0.00  0.00    +0.046 A 
ATOM     28  C   UNL     1       1.123  -0.778   1.311  0.00  0.00    +0.007 A 
ENDBRANCH  21  26
ENDBRANCH  20  21
ENDBRANCH   1  20
BRANCH   2  29
ATOM     29  O   UNL     1      -0.033  -6.067   3.467  0.00  0.00    -0.486 OA
BRANCH  29  30
ATOM     30  C   UNL     1      -0.800  -6.369   4.547  0.00  0.00    +0.121 A 
ATOM     31  C   UNL     1      -0.954  -5.445   5.570  0.00  0.00    +0.046 A 
ATOM     32  C   UNL     1      -1.735  -5.754   6.667  0.00  0.00    +0.007 A 
ATOM     33  C   UNL     1      -2.362  -6.984   6.747  0.00  0.00    -0.050 A 
ATOM     34  C   UNL     1      -2.209  -7.907   5.729  0.00  0.00    +0.007 A 
ATOM     35  C   UNL     1      -1.435  -7.600   4.627  0.00  0.00    +0.046 A 
ATOM     36  C   UNL     1      -3.212  -7.319   7.945  0.00  0.00    +0.044 C 
ENDBRANCH  29  30
ENDBRANCH   2  29
TORSDOF 8
