REMARK  Name = ZINC12888615
REMARK  10 active torsions:
REMARK  status: ('A' for Active; 'I' for Inactive)
REMARK    1  A    between atoms: C_1  and  C_2
REMARK    2  A    between atoms: C_2  and  C_4
REMARK    3  A    between atoms: C_2  and  N_12
REMARK    4  A    between atoms: C_4  and  C_5
REMARK    5  A    between atoms: C_5  and  C_6
REMARK    6  A    between atoms: C_15  and  C_22
REMARK    7  A    between atoms: C_16  and  O_21
REMARK    8  A    between atoms: C_29  and  O_30
REMARK    9  A    between atoms: O_30  and  C_31
REMARK   10  A    between atoms: C_37  and  N_64
REMARK                            x       y       z     vdW  Elec       q    Type
REMARK                         _______ _______ _______ _____ _____    ______ ____
ROOT
ATOM      1  N   UNL     1      -3.204   2.071  -2.035  0.00  0.00    -0.258 N 
ATOM      2  C   UNL     1      -2.362   1.027  -2.168  0.00  0.00    +0.262 A 
ATOM      3  O   UNL     1      -2.791  -0.114  -2.145  0.00  0.00    -0.267 OA
ATOM      4  C   UNL     1      -0.986   1.263  -2.334  0.00  0.00    +0.067 A 
ATOM      5  C   UNL     1      -0.532   2.549  -2.352  0.00  0.00    +0.201 A 
ATOM      6  N   UNL     1      -1.425   3.582  -2.220  0.00  0.00    -0.278 N 
ATOM      7  H   UNL     1      -1.107   4.498  -2.236  0.00  0.00    +0.173 HD
ATOM      8  C   UNL     1      -2.737   3.333  -2.062  0.00  0.00    +0.332 A 
ATOM      9  O   UNL     1      -3.513   4.261  -1.941  0.00  0.00    -0.246 OA
ENDROOT
BRANCH   4  10
ATOM     10  C   UNL     1      -0.026   0.112  -2.484  0.00  0.00    +0.007 C 
ATOM     11  C   UNL     1      -0.006  -0.690  -1.209  0.00  0.00    -0.008 A 
ATOM     12  C   UNL     1       0.014  -2.068  -1.216  0.00  0.00    -0.040 A 
ATOM     13  C   UNL     1       0.038  -2.767  -0.018  0.00  0.00    +0.053 A 
ATOM     14  C   UNL     1       0.042  -2.091   1.190  0.00  0.00    +0.170 A 
ATOM     15  C   UNL     1       0.023  -0.701   1.202  0.00  0.00    +0.208 A 
ATOM     16  C   UNL     1       0.002  -0.004   0.002  0.00  0.00    +0.167 A 
ATOM     17  O   UNL     1       0.030  -0.274   2.500  0.00  0.00    -0.449 OA
ATOM     18  C   UNL     1      -0.358  -1.419   3.282  0.00  0.00    +0.467 C 
ATOM     19  O   UNL     1       0.062  -2.539   2.480  0.00  0.00    -0.452 OA
ATOM     20  C   UNL     1      -0.002  -2.852  -2.503  0.00  0.00    +0.017 C 
ATOM     21  C   UNL     1       0.374  -1.947  -3.673  0.00  0.00    -0.073 C 
ATOM     22  C   UNL     1      -0.381   0.017  -4.875  0.00  0.00    -0.095 C 
ATOM     23  N   UNL     1      -0.469  -0.735  -3.604  0.00  0.00    +0.386 N 
ATOM     24  H   UNL     1      -1.445  -1.014  -3.448  0.00  0.00    -0.081 HD
BRANCH  16  25
ATOM     25  O   UNL     1      -0.016   1.356   0.009  0.00  0.00    -0.491 OA
ATOM     26  C   UNL     1       1.248   2.022   0.001  0.00  0.00    +0.277 C 
ENDBRANCH  16  25
ENDBRANCH   4  10
BRANCH   1  28
ATOM     27  C   UNL     1      -5.099   2.425  -0.530  0.00  0.00    +0.031 C 
ATOM     28  C   UNL     1      -4.639   1.830  -1.862  0.00  0.00    +0.092 C 
BRANCH  28  29
ATOM     29  C   UNL     1      -5.409   2.490  -3.008  0.00  0.00    +0.030 C 
BRANCH  29  30
ATOM     30  C   UNL     1      -5.041   1.810  -4.328  0.00  0.00    +0.037 C 
BRANCH  30  31
ATOM     31  C   UNL     1      -5.799   2.459  -5.457  0.00  0.00    -0.047 A 
ATOM     32  C   UNL     1      -7.040   1.974  -5.826  0.00  0.00    +0.003 A 
ATOM     33  C   UNL     1      -7.737   2.573  -6.858  0.00  0.00    +0.000 A 
ATOM     34  C   UNL     1      -7.190   3.651  -7.528  0.00  0.00    +0.000 A 
ATOM     35  C   UNL     1      -5.947   4.133  -7.163  0.00  0.00    +0.000 A 
ATOM     36  C   UNL     1      -5.251   3.538  -6.127  0.00  0.00    +0.003 A 
ENDBRANCH  30  31
ENDBRANCH  29  30
ENDBRANCH  28  29
ENDBRANCH   1  28
BRANCH   5  37
ATOM     37  O   UNL     1       0.785   2.803  -2.503  0.00  0.00    -0.493 OA
ATOM     38  H   UNL     1       1.007   3.744  -2.503  0.00  0.00    +0.294 HD
ENDBRANCH   5  37
TORSDOF 7
