REMARK  Name = ZINC64143410
REMARK  10 active torsions:
REMARK  status: ('A' for Active; 'I' for Inactive)
REMARK    1  A    between atoms: C_1  and  C_2
REMARK    2  A    between atoms: C_4  and  C_8
REMARK    3  A    between atoms: C_8  and  C_9
REMARK    4  A    between atoms: C_9  and  N_10
REMARK    5  A    between atoms: N_10  and  C_11
REMARK    6  A    between atoms: C_11  and  C_12
REMARK    7  A    between atoms: N_15  and  C_26
REMARK    8  A    between atoms: C_17  and  C_19
REMARK    9  A    between atoms: C_29  and  O_32
REMARK   10  A    between atoms: O_32  and  C_33
REMARK                            x       y       z     vdW  Elec       q    Type
REMARK                         _______ _______ _______ _____ _____    ______ ____
ROOT
ATOM      1  C   UNL     1      -6.139   6.224  -5.390  0.00  0.00    +0.014 C 
ATOM      2  C   UNL     1      -6.471   5.427  -6.675  0.00  0.00    +0.127 C 
ATOM      3  N   UNL     1      -6.125   6.322  -7.791  0.00  0.00    -0.266 N 
ATOM      4  N   UNL     1      -5.580   7.483  -7.305  0.00  0.00    -0.232 NA
ATOM      5  C   UNL     1      -6.121   7.679  -5.934  0.00  0.00    +0.107 C 
ATOM      6  H   UNL     1      -4.573   7.432  -7.292  0.00  0.00    +0.145 HD
ENDROOT
BRANCH   5   7
ATOM      7  C   UNL     1      -5.208   8.551  -5.112  0.00  0.00    -0.010 A 
ATOM      8  C   UNL     1      -3.895   8.739  -5.503  0.00  0.00    +0.006 A 
ATOM      9  C   UNL     1      -3.057   9.539  -4.750  0.00  0.00    +0.000 A 
ATOM     10  C   UNL     1      -3.530  10.151  -3.604  0.00  0.00    +0.001 A 
ATOM     11  C   UNL     1      -4.842   9.963  -3.211  0.00  0.00    +0.020 A 
ATOM     12  C   UNL     1      -5.683   9.167  -3.969  0.00  0.00    +0.046 A 
ATOM     13 CL   UNL     1      -7.333   8.936  -3.480  0.00  0.00    -0.083 Cl
ENDBRANCH   5   7
BRANCH   3  14
ATOM     14  C   UNL     1      -6.321   6.031  -9.145  0.00  0.00    +0.045 A 
ATOM     15  C   UNL     1      -6.888   4.821  -9.521  0.00  0.00    +0.028 A 
ATOM     16  C   UNL     1      -7.082   4.535 -10.858  0.00  0.00    +0.047 A 
ATOM     17  C   UNL     1      -6.711   5.456 -11.826  0.00  0.00    +0.120 A 
ATOM     18  C   UNL     1      -6.144   6.665 -11.451  0.00  0.00    +0.047 A 
ATOM     19  C   UNL     1      -5.954   6.955 -10.114  0.00  0.00    +0.028 A 
BRANCH  17  20
ATOM     20  O   UNL     1      -6.902   5.174 -13.142  0.00  0.00    -0.495 OA
ATOM     21  C   UNL     1      -6.496   6.168 -14.085  0.00  0.00    +0.277 C 
ENDBRANCH  17  20
ENDBRANCH   3  14
BRANCH   1  22
ATOM     22  C   UNL     1      -4.770   5.828  -4.835  0.00  0.00    -0.076 C 
BRANCH  22  23
ATOM     23  N   UNL     1      -4.836   4.463  -4.296  0.00  0.00    +0.380 N 
ATOM     24  H   UNL     1      -5.099   3.824  -5.031  0.00  0.00    -0.086 HD
ATOM     25  H   UNL     1      -5.523   4.426  -3.557  0.00  0.00    -0.086 HD
BRANCH  23  26
ATOM     26  C   UNL     1      -3.522   4.082  -3.763  0.00  0.00    -0.075 C 
BRANCH  26  27
ATOM     27  C   UNL     1      -3.591   2.660  -3.202  0.00  0.00    +0.055 C 
BRANCH  27  31
ATOM     28  C   UNL     1       0.088   1.083  -0.101  0.00  0.00    +0.065 C 
ATOM     29  C   UNL     1      -0.655   1.587  -1.311  0.00  0.00    +0.032 A 
ATOM     30  N   UNL     1      -1.998   1.831  -1.401  0.00  0.00    -0.346 N 
ATOM     31  C   UNL     1      -2.242   2.270  -2.655  0.00  0.00    +0.105 A 
ATOM     32  H   UNL     1      -2.653   1.712  -0.695  0.00  0.00    +0.167 HD
ATOM     33  N   UNL     1      -1.117   2.298  -3.314  0.00  0.00    -0.241 NA
ATOM     34  C   UNL     1      -0.123   1.889  -2.511  0.00  0.00    +0.133 A 
ENDBRANCH  27  31
ENDBRANCH  26  27
ENDBRANCH  23  26
ENDBRANCH  22  23
ENDBRANCH   1  22
TORSDOF 8
