REMARK  Name = ZINC39912470
REMARK  8 active torsions:
REMARK  status: ('A' for Active; 'I' for Inactive)
REMARK    1  A    between atoms: C_1  and  C_2
REMARK    2  A    between atoms: C_5  and  C_8
REMARK    3  A    between atoms: C_11  and  C_27
REMARK    4  A    between atoms: N_18  and  C_19
REMARK    5  A    between atoms: C_19  and  C_20
REMARK    6  A    between atoms: C_29  and  C_35
REMARK    7  A    between atoms: C_31  and  C_34
REMARK    8  A    between atoms: C_32  and  O_33
REMARK                            x       y       z     vdW  Elec       q    Type
REMARK                         _______ _______ _______ _____ _____    ______ ____
ROOT
ATOM      1  C   UNL     1       0.053  -4.246  -0.001  0.00  0.00    +0.142 C 
ATOM      2  C   UNL     1      -1.292  -4.800   0.380  0.00  0.00    +0.035 A 
ATOM      3  C   UNL     1      -2.657  -4.891   0.085  0.00  0.00    +0.102 A 
ATOM      4  N   UNL     1      -3.211  -5.650   1.010  0.00  0.00    -0.173 NA
ATOM      5  N   UNL     1      -2.331  -6.048   1.858  0.00  0.00    -0.272 N 
ATOM      6  H   UNL     1      -2.512  -6.617   2.623  0.00  0.00    +0.189 HD
ATOM      7  C   UNL     1      -1.103  -5.551   1.524  0.00  0.00    +0.126 A 
ATOM      8  C   UNL     1       0.317  -5.497   1.888  0.00  0.00    +0.266 C 
ATOM      9  O   UNL     1       0.808  -6.057   2.850  0.00  0.00    -0.268 OA
ATOM     10  N   UNL     1       0.999  -4.741   1.008  0.00  0.00    -0.281 N 
ENDROOT
BRANCH   3  11
ATOM     11  C   UNL     1      -3.353  -4.249  -1.058  0.00  0.00    +0.044 A 
ATOM     12  C   UNL     1      -2.623  -3.573  -2.032  0.00  0.00    +0.017 A 
ATOM     13  C   UNL     1      -3.275  -2.978  -3.093  0.00  0.00    -0.049 A 
ATOM     14  C   UNL     1      -4.653  -3.050  -3.192  0.00  0.00    +0.010 A 
ATOM     15  C   UNL     1      -5.388  -3.718  -2.231  0.00  0.00    -0.008 A 
ATOM     16  C   UNL     1      -4.745  -4.325  -1.164  0.00  0.00    +0.129 A 
ATOM     17  C   UNL     1      -6.888  -3.791  -2.346  0.00  0.00    +0.047 C 
ATOM     18  C   UNL     1      -2.483  -2.247  -4.146  0.00  0.00    +0.044 C 
BRANCH  16  19
ATOM     19  O   UNL     1      -5.465  -4.987  -0.222  0.00  0.00    -0.506 OA
ATOM     20  H   UNL     1      -5.750  -4.433   0.517  0.00  0.00    +0.292 HD
ENDBRANCH  16  19
ENDBRANCH   3  11
BRANCH   1  25
ATOM     21  C   UNL     1      -0.080   1.531   0.068  0.00  0.00    +0.044 C 
ATOM     22  C   UNL     1      -0.045   0.025   0.050  0.00  0.00    -0.050 A 
ATOM     23  C   UNL     1      -0.234  -0.685   1.221  0.00  0.00    +0.004 A 
ATOM     24  C   UNL     1      -0.202  -2.067   1.205  0.00  0.00    +0.006 A 
ATOM     25  C   UNL     1       0.018  -2.739   0.017  0.00  0.00    -0.022 A 
ATOM     26  C   UNL     1       0.205  -2.029  -1.155  0.00  0.00    +0.006 A 
ATOM     27  C   UNL     1       0.169  -0.647  -1.139  0.00  0.00    +0.004 A 
ENDBRANCH   1  25
BRANCH  10  28
ATOM     28  C   UNL     1       2.436  -4.460   1.048  0.00  0.00    +0.144 C 
BRANCH  28  29
ATOM     29  C   UNL     1       2.682  -3.213   1.858  0.00  0.00    -0.030 A 
ATOM     30  C   UNL     1       2.686  -1.977   1.240  0.00  0.00    +0.008 A 
ATOM     31  C   UNL     1       2.911  -0.833   1.982  0.00  0.00    +0.038 A 
ATOM     32  C   UNL     1       3.131  -0.926   3.346  0.00  0.00    +0.123 A 
ATOM     33  C   UNL     1       3.126  -2.164   3.964  0.00  0.00    +0.038 A 
ATOM     34  C   UNL     1       2.896  -3.306   3.221  0.00  0.00    +0.008 A 
ATOM     35  F   UNL     1       3.351   0.192   4.072  0.00  0.00    -0.205 F 
ENDBRANCH  28  29
ENDBRANCH  10  28
TORSDOF 5
