REMARK  Name = ZINC09751443
REMARK  9 active torsions:
REMARK  status: ('A' for Active; 'I' for Inactive)
REMARK    1  A    between atoms: C_1  and  C_2
REMARK    2  A    between atoms: C_2  and  N_3
REMARK    3  A    between atoms: C_7  and  C_29
REMARK    4  A    between atoms: C_12  and  S_13
REMARK    5  A    between atoms: S_13  and  C_14
REMARK    6  A    between atoms: C_14  and  C_16
REMARK    7  A    between atoms: C_14  and  C_17
REMARK    8  A    between atoms: N_19  and  C_20
REMARK    9  A    between atoms: C_23  and  N_26
REMARK                            x       y       z     vdW  Elec       q    Type
REMARK                         _______ _______ _______ _____ _____    ______ ____
ROOT
ATOM      1  N   UNL     1      -0.696   1.559   1.231  0.00  0.00    -0.288 N 
ATOM      2  C   UNL     1      -0.335   2.731   1.783  0.00  0.00    +0.264 A 
ATOM      3  O   UNL     1       0.552   3.402   1.283  0.00  0.00    -0.267 OA
ATOM      4  C   UNL     1      -1.006   3.183   2.960  0.00  0.00    +0.080 A 
ATOM      5  C   UNL     1      -0.797   4.407   3.729  0.00  0.00    +0.010 A 
ATOM      6  C   UNL     1      -1.558   4.623   4.829  0.00  0.00    +0.057 A 
ATOM      7  S   UNL     1      -2.608   3.184   4.895  0.00  0.00    -0.076 S 
ATOM      8  C   UNL     1      -2.008   2.332   3.459  0.00  0.00    +0.117 A 
ATOM      9  N   UNL     1      -2.313   1.182   2.869  0.00  0.00    -0.216 NA
ATOM     10  C   UNL     1      -1.682   0.792   1.781  0.00  0.00    +0.173 A 
ENDROOT
BRANCH   5  11
ATOM     11  C   UNL     1       0.225   5.391   3.315  0.00  0.00    +0.021 A 
ATOM     12  C   UNL     1       0.100   6.743   3.140  0.00  0.00    +0.016 A 
ATOM     13  C   UNL     1       1.208   7.465   2.749  0.00  0.00    +0.008 A 
ATOM     14  C   UNL     1       2.381   6.815   2.538  0.00  0.00    +0.046 A 
ATOM     15  S   UNL     1       1.942   5.124   2.905  0.00  0.00    -0.097 S 
ENDBRANCH   5  11
BRANCH   1  17
ATOM     16  C   UNL     1      -0.757   1.610  -1.214  0.00  0.00    +0.027 C 
ATOM     17  C   UNL     1      -0.014   1.094   0.020  0.00  0.00    +0.124 C 
ENDBRANCH   1  17
BRANCH  10  18
ATOM     18  S   UNL     1      -2.116  -0.740   1.026  0.00  0.00    -0.075 S 
BRANCH  18  19
ATOM     19  C   UNL     1      -3.425  -1.285   2.150  0.00  0.00    +0.137 C 
ATOM     20  C   UNL     1      -2.831  -1.548   3.536  0.00  0.00    +0.029 C 
BRANCH  19  21
ATOM     21  C   UNL     1      -4.045  -2.553   1.622  0.00  0.00    +0.230 C 
ATOM     22  O   UNL     1      -3.408  -3.282   0.892  0.00  0.00    -0.274 OA
ATOM     23  N   UNL     1      -5.309  -2.876   1.960  0.00  0.00    -0.285 N 
ATOM     24  H   UNL     1      -5.796  -2.329   2.597  0.00  0.00    +0.155 HD
BRANCH  23  25
ATOM     25  C   UNL     1      -5.919  -4.001   1.394  0.00  0.00    +0.034 A 
ATOM     26  C   UNL     1      -7.279  -3.989   1.115  0.00  0.00    +0.025 A 
ATOM     27  C   UNL     1      -7.878  -5.099   0.552  0.00  0.00    +0.034 A 
ATOM     28  C   UNL     1      -7.125  -6.226   0.275  0.00  0.00    +0.126 A 
ATOM     29  C   UNL     1      -5.771  -6.243   0.557  0.00  0.00    +0.034 A 
ATOM     30  C   UNL     1      -5.167  -5.135   1.115  0.00  0.00    +0.025 A 
BRANCH  28  31
ATOM     31  N   UNL     1      -7.770  -7.416  -0.324  0.00  0.00    +0.056 N 
ATOM     32  O   UNL     1      -7.109  -8.409  -0.568  0.00  0.00    -0.126 OA
ATOM     33  O   UNL     1      -8.963  -7.402  -0.573  0.00  0.00    -0.126 OA
ENDBRANCH  28  31
ENDBRANCH  23  25
ENDBRANCH  19  21
ENDBRANCH  18  19
ENDBRANCH  10  18
TORSDOF 7
