REMARK  Name = ZINC04554291
REMARK  11 active torsions:
REMARK  status: ('A' for Active; 'I' for Inactive)
REMARK    1  A    between atoms: C_1  and  C_2
REMARK    2  A    between atoms: C_2  and  C_3
REMARK    3  A    between atoms: C_8  and  N_9
REMARK    4  A    between atoms: C_10  and  C_12
REMARK    5  A    between atoms: C_16  and  N_17
REMARK    6  A    between atoms: C_18  and  C_20
REMARK    7  A    between atoms: C_20  and  N_62
REMARK    8  A    between atoms: C_21  and  C_22
REMARK    9  A    between atoms: C_21  and  N_62
REMARK   10  A    between atoms: C_22  and  C_23
REMARK   11  A    between atoms: C_22  and  C_24
REMARK                            x       y       z     vdW  Elec       q    Type
REMARK                         _______ _______ _______ _____ _____    ______ ____
ROOT
ATOM      1  C   UNL     1       2.986  -1.635   1.744  0.00  0.00    +0.069 A 
ATOM      2  C   UNL     1       2.156  -0.683   1.018  0.00  0.00    -0.023 A 
ATOM      3  C   UNL     1       2.815   0.068   0.109  0.00  0.00    -0.004 A 
ATOM      4  S   UNL     1       4.503  -0.461   0.217  0.00  0.00    -0.077 S 
ATOM      5  C   UNL     1       4.339  -1.671   1.445  0.00  0.00    +0.084 A 
ATOM      6  C   UNL     1       2.245   1.108  -0.804  0.00  0.00    +0.043 C 
ATOM      7  C   UNL     1       1.360   2.064   0.007  0.00  0.00    +0.005 C 
ATOM      8  C   UNL     1      -0.061   1.510   0.024  0.00  0.00    +0.001 C 
ATOM      9  C   UNL     1      -0.030  -0.017   0.014  0.00  0.00    +0.005 C 
ATOM     10  C   UNL     1       0.660  -0.544   1.267  0.00  0.00    +0.037 C 
ENDROOT
BRANCH   1  12
ATOM     11  N   UNL     1       2.347  -2.131   4.044  0.00  0.00    -0.281 N 
ATOM     12  C   UNL     1       2.409  -2.525   2.756  0.00  0.00    +0.251 C 
ATOM     13  O   UNL     1       1.986  -3.620   2.434  0.00  0.00    -0.270 OA
ATOM     14  H   UNL     1       2.756  -1.294   4.314  0.00  0.00    +0.155 HD
BRANCH  11  20
ATOM     15  C   UNL     1       2.035  -2.835   6.332  0.00  0.00    -0.026 A 
ATOM     16  C   UNL     1       1.387  -3.624   7.263  0.00  0.00    +0.005 A 
ATOM     17  C   UNL     1       0.402  -4.505   6.859  0.00  0.00    +0.000 A 
ATOM     18  C   UNL     1       0.061  -4.600   5.522  0.00  0.00    +0.002 A 
ATOM     19  C   UNL     1       0.700  -3.811   4.587  0.00  0.00    +0.023 A 
ATOM     20  C   UNL     1       1.694  -2.928   4.989  0.00  0.00    +0.037 A 
BRANCH  15  22
ATOM     21  C   UNL     1       2.497  -0.487   6.984  0.00  0.00    +0.009 C 
ATOM     22  C   UNL     1       3.108  -1.874   6.773  0.00  0.00    +0.033 C 
ENDBRANCH  15  22
ENDBRANCH  11  20
ENDBRANCH   1  12
BRANCH   5  23
ATOM     23  N   UNL     1       5.322  -2.480   1.995  0.00  0.00    -0.281 N 
ATOM     24  C   UNL     1       6.597  -2.372   1.574  0.00  0.00    +0.201 C 
ATOM     25  O   UNL     1       6.886  -1.567   0.713  0.00  0.00    -0.278 OA
ATOM     26  H   UNL     1       5.091  -3.124   2.683  0.00  0.00    +0.155 HD
BRANCH  24  27
ATOM     27  C   UNL     1       7.666  -3.250   2.172  0.00  0.00    +0.015 C 
BRANCH  27  28
ATOM     28  N   UNL     1       8.961  -2.933   1.541  0.00  0.00    +0.385 N 
ATOM     29  H   UNL     1       9.187  -1.946   1.709  0.00  0.00    -0.085 HD
ATOM     30  H   UNL     1       8.896  -3.102   0.530  0.00  0.00    -0.085 HD
BRANCH  28  31
ATOM     31  C   UNL     1      10.027  -3.780   2.108  0.00  0.00    -0.079 C 
BRANCH  31  32
ATOM     32  C   UNL     1      11.357  -3.430   1.436  0.00  0.00    -0.034 C 
ATOM     33  C   UNL     1      11.744  -1.993   1.790  0.00  0.00    +0.005 C 
ATOM     34  C   UNL     1      12.444  -4.387   1.927  0.00  0.00    +0.005 C 
ENDBRANCH  31  32
ENDBRANCH  28  31
ENDBRANCH  27  28
ENDBRANCH  24  27
ENDBRANCH   5  23
TORSDOF 8
