REMARK  Name = ZINC20835537
REMARK  10 active torsions:
REMARK  status: ('A' for Active; 'I' for Inactive)
REMARK    1  A    between atoms: C_1  and  C_2
REMARK    2  A    between atoms: C_2  and  C_27
REMARK    3  A    between atoms: N_3  and  N_4
REMARK    4  A    between atoms: C_7  and  S_10
REMARK    5  A    between atoms: S_10  and  C_11
REMARK    6  A    between atoms: C_11  and  C_12
REMARK    7  A    between atoms: C_12  and  C_13
REMARK    8  A    between atoms: N_15  and  C_16
REMARK    9  A    between atoms: C_19  and  O_22
REMARK   10  A    between atoms: O_22  and  C_23
REMARK                            x       y       z     vdW  Elec       q    Type
REMARK                         _______ _______ _______ _____ _____    ______ ____
ROOT
ATOM      1  N   UNL     1       6.011   6.032  -0.016  0.00  0.00    -0.205 N 
ATOM      2  C   UNL     1       5.991   7.419  -0.011  0.00  0.00    +0.232 A 
ATOM      3  N   UNL     1       7.085   8.239  -0.010  0.00  0.00    -0.186 NA
ATOM      4  C   UNL     1       6.645   9.531  -0.005  0.00  0.00    +0.210 A 
ATOM      5  N   UNL     1       5.333   9.512  -0.004  0.00  0.00    -0.144 NA
ATOM      6  N   UNL     1       4.919   8.174  -0.013  0.00  0.00    -0.245 N 
ATOM      7  H   UNL     1       6.972   5.495  -0.020  0.00  0.00    +0.177 HD
ATOM      8  H   UNL     1       3.921   7.712  -0.020  0.00  0.00    +0.192 HD
ENDROOT
BRANCH   1  11
ATOM      9  C   UNL     1       6.143   3.280  -0.026  0.00  0.00    +0.068 C 
ATOM     10  C   UNL     1       4.827   4.015  -0.021  0.00  0.00    +0.063 C 
ATOM     11  N   UNL     1       4.808   5.314  -0.017  0.00  0.00    -0.184 NA
BRANCH  10  12
ATOM     12  C   UNL     1       3.562   3.260  -0.022  0.00  0.00    -0.002 A 
ATOM     13  C   UNL     1       3.588   1.852  -0.028  0.00  0.00    +0.010 A 
ATOM     14  C   UNL     1       2.436   1.135  -0.029  0.00  0.00    +0.009 A 
ATOM     15  C   UNL     1       1.194   1.797  -0.024  0.00  0.00    -0.018 A 
ATOM     16  C   UNL     1      -0.011   1.075  -0.025  0.00  0.00    +0.008 A 
ATOM     17  C   UNL     1      -1.198   1.742  -0.025  0.00  0.00    +0.001 A 
ATOM     18  C   UNL     1      -1.238   3.135  -0.014  0.00  0.00    +0.001 A 
ATOM     19  C   UNL     1      -0.092   3.869  -0.014  0.00  0.00    +0.008 A 
ATOM     20  C   UNL     1       1.153   3.215  -0.018  0.00  0.00    -0.017 A 
ATOM     21  C   UNL     1       2.354   3.940  -0.018  0.00  0.00    +0.018 A 
ENDBRANCH  10  12
ENDBRANCH   1  11
BRANCH   4  22
ATOM     22  S   UNL     1       7.660  10.972  -0.003  0.00  0.00    -0.084 S 
BRANCH  22  23
ATOM     23  C   UNL     1       6.474  12.344   0.004  0.00  0.00    +0.086 C 
BRANCH  23  24
ATOM     24  C   UNL     1       7.232  13.673   0.006  0.00  0.00    +0.107 C 
BRANCH  24  25
ATOM     25  C   UNL     1       6.247  14.813   0.012  0.00  0.00    +0.218 C 
ATOM     26  O   UNL     1       5.056  14.586   0.013  0.00  0.00    -0.275 OA
ATOM     27  N   UNL     1       6.690  16.087   0.015  0.00  0.00    -0.285 N 
ATOM     28  H   UNL     1       7.767  16.294   0.090  0.00  0.00    +0.155 HD
BRANCH  27  29
ATOM     29  C   UNL     1       5.777  17.146  -0.078  0.00  0.00    +0.034 A 
ATOM     30  C   UNL     1       6.122  18.300  -0.768  0.00  0.00    +0.027 A 
ATOM     31  C   UNL     1       5.220  19.342  -0.863  0.00  0.00    +0.048 A 
ATOM     32  C   UNL     1       3.975  19.239  -0.260  0.00  0.00    +0.130 A 
ATOM     33  C   UNL     1       3.632  18.088   0.434  0.00  0.00    +0.048 A 
ATOM     34  C   UNL     1       4.531  17.044   0.525  0.00  0.00    +0.027 A 
BRANCH  32  35
ATOM     35  O   UNL     1       3.090  20.267  -0.350  0.00  0.00    -0.406 OA
BRANCH  35  36
ATOM     36  C   UNL     1       3.509  21.423  -1.079  0.00  0.00    +0.575 C 
ATOM     37  F   UNL     1       3.799  21.061  -2.399  0.00  0.00    -0.133 F 
ATOM     38  F   UNL     1       2.484  22.376  -1.072  0.00  0.00    -0.133 F 
ATOM     39  F   UNL     1       4.652  21.962  -0.481  0.00  0.00    -0.133 F 
ENDBRANCH  35  36
ENDBRANCH  32  35
ENDBRANCH  27  29
ENDBRANCH  24  25
ENDBRANCH  23  24
ENDBRANCH  22  23
ENDBRANCH   4  22
TORSDOF 9
