REMARK  Name = ZINC00062343
REMARK  3 active torsions:
REMARK  status: ('A' for Active; 'I' for Inactive)
REMARK    1  A    between atoms: C_4  and  C_21
REMARK    2  A    between atoms: C_5  and  C_7
REMARK    3  A    between atoms: N_8  and  C_9
REMARK                            x       y       z     vdW  Elec       q    Type
REMARK                         _______ _______ _______ _____ _____    ______ ____
ROOT
ATOM      1  C   UNL     1       1.253  -2.155  -0.023  0.00  0.00    +0.119 C 
ATOM      2  N   UNL     1       2.393  -2.784  -0.038  0.00  0.00    -0.255 NA
ENDROOT
BRANCH   2   3
ATOM      3  C   UNL     1       2.420  -4.152  -0.047  0.00  0.00    +0.066 A 
ATOM      4  C   UNL     1       1.582  -4.874   0.810  0.00  0.00    +0.030 A 
ATOM      5  C   UNL     1       1.607  -6.251   0.803  0.00  0.00    +0.030 A 
ATOM      6  C   UNL     1       2.465  -6.927  -0.055  0.00  0.00    +0.067 A 
ATOM      7  C   UNL     1       3.305  -6.212  -0.913  0.00  0.00    +0.069 A 
ATOM      8  C   UNL     1       3.279  -4.829  -0.914  0.00  0.00    +0.055 A 
ATOM      9  N   UNL     1       4.034  -7.153  -1.638  0.00  0.00    -0.306 N 
ATOM     10  H   UNL     1       4.700  -6.956  -2.315  0.00  0.00    +0.170 HD
ATOM     11  C   UNL     1       3.655  -8.382  -1.239  0.00  0.00    +0.325 A 
ATOM     12  O   UNL     1       4.099  -9.428  -1.674  0.00  0.00    -0.247 OA
ATOM     13  N   UNL     1       2.711  -8.278  -0.285  0.00  0.00    -0.306 N 
ATOM     14  H   UNL     1       2.275  -9.019   0.165  0.00  0.00    +0.170 HD
ENDBRANCH   2   3
BRANCH   1  19
ATOM     15  C   UNL     1      -0.017   1.375   0.010  0.00  0.00    +0.001 A 
ATOM     16  C   UNL     1       1.170   2.086   0.002  0.00  0.00    +0.001 A 
ATOM     17  C   UNL     1       2.384   1.422  -0.013  0.00  0.00    +0.013 A 
ATOM     18  C   UNL     1       2.419   0.043  -0.022  0.00  0.00    +0.063 A 
ATOM     19  C   UNL     1       1.224  -0.683  -0.014  0.00  0.00    +0.005 A 
ATOM     20  C   UNL     1       0.002  -0.004   0.002  0.00  0.00    +0.010 A 
BRANCH  18  21
ATOM     21  C   UNL     1       3.741  -0.679  -0.040  0.00  0.00    +0.418 C 
ATOM     22  F   UNL     1       4.783   0.255  -0.045  0.00  0.00    -0.166 F 
ATOM     23  F   UNL     1       3.847  -1.488   1.097  0.00  0.00    -0.166 F 
ATOM     24  F   UNL     1       3.823  -1.475  -1.187  0.00  0.00    -0.166 F 
ENDBRANCH  18  21
ENDBRANCH   1  19
TORSDOF 3
