REMARK  Name = ZINC01771738
REMARK  9 active torsions:
REMARK  status: ('A' for Active; 'I' for Inactive)
REMARK    1  A    between atoms: C_1  and  N_60
REMARK    2  A    between atoms: C_2  and  C_3
REMARK    3  A    between atoms: C_2  and  N_60
REMARK    4  A    between atoms: C_9  and  C_10
REMARK    5  A    between atoms: C_9  and  N_60
REMARK    6  A    between atoms: C_11  and  O_34
REMARK    7  A    between atoms: C_18  and  O_21
REMARK    8  A    between atoms: O_21  and  C_22
REMARK    9  A    between atoms: C_25  and  C_28
REMARK                            x       y       z     vdW  Elec       q    Type
REMARK                         _______ _______ _______ _____ _____    ______ ____
ROOT
ATOM      1  C   UNL     1       0.967   3.085   1.308  0.00  0.00    +0.020 A 
ATOM      2  C   UNL     1       0.966   1.702   1.222  0.00  0.00    +0.122 A 
ATOM      3  C   UNL     1      -0.178   1.018   0.819  0.00  0.00    +0.046 A 
ATOM      4  C   UNL     1      -1.315   1.702   0.496  0.00  0.00    +0.019 A 
ATOM      5  C   UNL     1      -1.332   3.095   0.582  0.00  0.00    +0.068 A 
ATOM      6  C   UNL     1      -0.181   3.795   0.989  0.00  0.00    +0.143 A 
ATOM      7  O   UNL     1      -0.208   5.141   1.063  0.00  0.00    -0.459 OA
ATOM      8  C   UNL     1      -1.301   5.855   0.762  0.00  0.00    +0.245 A 
ATOM      9  C   UNL     1      -2.456   5.287   0.363  0.00  0.00    +0.210 A 
ATOM     10  C   UNL     1      -2.539   3.870   0.249  0.00  0.00    +0.235 A 
ATOM     11  O   UNL     1      -3.568   3.321  -0.110  0.00  0.00    -0.283 OA
ENDROOT
BRANCH   2  12
ATOM     12  O   UNL     1       2.090   1.008   1.535  0.00  0.00    -0.506 OA
ATOM     13  H   UNL     1       2.682   0.859   0.785  0.00  0.00    +0.292 HD
ENDBRANCH   2  12
BRANCH   1  14
ATOM     14  C   UNL     1       2.211   3.815   1.746  0.00  0.00    -0.035 C 
BRANCH  14  16
ATOM     15  C   UNL     1       2.349   5.098  -0.303  0.00  0.00    -0.095 C 
ATOM     16  N   UNL     1       3.035   4.109   0.555  0.00  0.00    +0.383 N 
ATOM     17  H   UNL     1       3.172   3.242   0.022  0.00  0.00    -0.081 HD
BRANCH  16  18
ATOM     18  C   UNL     1       4.355   4.630   0.971  0.00  0.00    -0.043 C 
BRANCH  18  19
ATOM     19  C   UNL     1       5.248   4.712  -0.240  0.00  0.00    -0.064 A 
ATOM     20  C   UNL     1       6.026   3.627  -0.600  0.00  0.00    +0.002 A 
ATOM     21  C   UNL     1       6.842   3.701  -1.713  0.00  0.00    +0.000 A 
ATOM     22  C   UNL     1       6.888   4.862  -2.461  0.00  0.00    +0.000 A 
ATOM     23  C   UNL     1       6.114   5.949  -2.098  0.00  0.00    +0.000 A 
ATOM     24  C   UNL     1       5.294   5.873  -0.988  0.00  0.00    +0.002 A 
ENDBRANCH  18  19
ENDBRANCH  16  18
ENDBRANCH  14  16
ENDBRANCH   1  14
BRANCH   9  25
ATOM     25  O   UNL     1      -3.535   6.063   0.070  0.00  0.00    -0.449 OA
BRANCH  25  26
ATOM     26  C   UNL     1      -3.402   7.410   0.182  0.00  0.00    +0.129 A 
ATOM     27  C   UNL     1      -3.693   8.038   1.385  0.00  0.00    +0.047 A 
ATOM     28  C   UNL     1      -3.554   9.405   1.502  0.00  0.00    +0.012 A 
ATOM     29  C   UNL     1      -3.129  10.157   0.408  0.00  0.00    -0.018 A 
ATOM     30  C   UNL     1      -2.842   9.525  -0.800  0.00  0.00    +0.012 A 
ATOM     31  C   UNL     1      -2.979   8.157  -0.910  0.00  0.00    +0.047 A 
BRANCH  29  32
ATOM     32  C   UNL     1      -2.983  11.629   0.530  0.00  0.00    -0.018 A 
ATOM     33  C   UNL     1      -2.554  12.382  -0.561  0.00  0.00    +0.008 A 
ATOM     34  C   UNL     1      -2.425  13.751  -0.444  0.00  0.00    +0.001 A 
ATOM     35  C   UNL     1      -2.711  14.374   0.757  0.00  0.00    +0.000 A 
ATOM     36  C   UNL     1      -3.133  13.632   1.845  0.00  0.00    +0.001 A 
ATOM     37  C   UNL     1      -3.270  12.263   1.738  0.00  0.00    +0.008 A 
ENDBRANCH  29  32
ENDBRANCH  25  26
ENDBRANCH   9  25
TORSDOF 8
