REMARK  Name = ZINC67621226
REMARK  13 active torsions:
REMARK  status: ('A' for Active; 'I' for Inactive)
REMARK    1  A    between atoms: C_1  and  C_2
REMARK    2  A    between atoms: C_5  and  C_30
REMARK    3  A    between atoms: N_8  and  C_10
REMARK    4  A    between atoms: C_10  and  C_11
REMARK    5  A    between atoms: C_11  and  C_12
REMARK    6  A    between atoms: C_12  and  C_13
REMARK    7  A    between atoms: C_13  and  N_14
REMARK    8  A    between atoms: N_17  and  C_18
REMARK    9  A    between atoms: C_18  and  C_19
REMARK   10  A    between atoms: C_19  and  C_21
REMARK   11  A    between atoms: C_19  and  O_29
REMARK   12  A    between atoms: C_21  and  N_22
REMARK   13  A    between atoms: C_25  and  C_28
REMARK                            x       y       z     vdW  Elec       q    Type
REMARK                         _______ _______ _______ _____ _____    ______ ____
ROOT
ATOM      1  N   UNL     1       2.861   0.005   7.382  0.00  0.00    -0.299 N 
ATOM      2  C   UNL     1       2.440   0.457   8.580  0.00  0.00    +0.300 C 
ATOM      3  O   UNL     1       1.492   1.216   8.645  0.00  0.00    -0.253 OA
ATOM      4  N   UNL     1       3.068   0.066   9.707  0.00  0.00    -0.297 N 
ATOM      5  H   UNL     1       3.617  -0.601   7.331  0.00  0.00    +0.150 HD
ATOM      6  H   UNL     1       3.824  -0.540   9.655  0.00  0.00    +0.150 HD
ENDROOT
BRANCH   1   7
ATOM      7  C   UNL     1       2.178   0.429   6.158  0.00  0.00    +0.105 C 
BRANCH   7   8
ATOM      8  C   UNL     1       2.850  -0.222   4.947  0.00  0.00    +0.017 C 
BRANCH   8   9
ATOM      9  C   UNL     1       2.136   0.221   3.668  0.00  0.00    -0.017 C 
BRANCH   9  10
ATOM     10  C   UNL     1       2.808  -0.431   2.458  0.00  0.00    -0.079 C 
BRANCH  10  16
ATOM     11  C   UNL     1      -0.019   1.526   0.010  0.00  0.00    +0.005 C 
ATOM     12  C   UNL     1       0.002  -0.004   0.002  0.00  0.00    -0.031 C 
ATOM     13  C   UNL     1       0.721  -0.499  -1.257  0.00  0.00    +0.003 C 
ATOM     14  C   UNL     1       2.177  -0.027  -1.220  0.00  0.00    -0.031 C 
ATOM     15  C   UNL     1       2.839  -0.534   0.063  0.00  0.00    -0.076 C 
ATOM     16  N   UNL     1       2.123  -0.005   1.230  0.00  0.00    +0.380 N 
ATOM     17  C   UNL     1       0.744  -0.512   1.240  0.00  0.00    -0.076 C 
ATOM     18  C   UNL     1       2.924  -0.581  -2.434  0.00  0.00    +0.005 C 
ATOM     19  H   UNL     1       2.109   1.003   1.187  0.00  0.00    -0.082 HD
ENDBRANCH  10  16
ENDBRANCH   9  10
ENDBRANCH   8   9
ENDBRANCH   7   8
ENDBRANCH   1   7
BRANCH   4  20
ATOM     20  C   UNL     1       2.610   0.557  11.009  0.00  0.00    +0.135 C 
BRANCH  20  21
ATOM     21  C   UNL     1       3.488  -0.034  12.114  0.00  0.00    +0.115 C 
BRANCH  21  22
ATOM     22  O   UNL     1       4.823   0.456  11.974  0.00  0.00    -0.392 OA
ATOM     23  H   UNL     1       4.898   1.418  12.034  0.00  0.00    +0.210 HD
ENDBRANCH  21  22
BRANCH  21  24
ATOM     24  C   UNL     1       2.934   0.378  13.480  0.00  0.00    -0.046 C 
BRANCH  24  25
ATOM     25  N   UNL     1       3.777  -0.189  14.541  0.00  0.00    +0.381 N 
ATOM     26  C   UNL     1       3.690  -1.653  14.503  0.00  0.00    -0.078 C 
ATOM     27  C   UNL     1       4.629  -2.251  15.553  0.00  0.00    -0.016 C 
ATOM     28  C   UNL     1       4.218  -1.750  16.941  0.00  0.00    -0.018 C 
ATOM     29  C   UNL     1       4.241  -0.219  16.947  0.00  0.00    -0.016 C 
ATOM     30  C   UNL     1       3.317   0.304  15.845  0.00  0.00    -0.078 C 
ATOM     31  C   UNL     1       5.200  -2.280  17.988  0.00  0.00    +0.007 C 
ATOM     32  H   UNL     1       4.735   0.093  14.395  0.00  0.00    -0.082 HD
ENDBRANCH  24  25
ENDBRANCH  21  24
ENDBRANCH  20  21
ENDBRANCH   4  20
TORSDOF 10
