REMARK  Name = ZINC01861170
REMARK  13 active torsions:
REMARK  status: ('A' for Active; 'I' for Inactive)
REMARK    1  A    between atoms: C_1  and  C_2
REMARK    2  A    between atoms: C_2  and  C_3
REMARK    3  A    between atoms: C_2  and  C_4
REMARK    4  A    between atoms: C_2  and  C_5
REMARK    5  A    between atoms: N_7  and  C_8
REMARK    6  A    between atoms: C_8  and  C_32
REMARK    7  A    between atoms: N_14  and  C_19
REMARK    8  A    between atoms: C_19  and  C_20
REMARK    9  A    between atoms: C_20  and  C_21
REMARK   10  A    between atoms: C_24  and  O_29
REMARK   11  A    between atoms: C_25  and  O_27
REMARK   12  A    between atoms: O_27  and  C_28
REMARK   13  A    between atoms: O_29  and  C_30
REMARK                            x       y       z     vdW  Elec       q    Type
REMARK                         _______ _______ _______ _____ _____    ______ ____
ROOT
ATOM      1  C   UNL     1       1.532  -2.285  -2.665  0.00  0.00    +0.240 C 
ATOM      2  C   UNL     1       1.664  -3.789  -2.647  0.00  0.00    +0.096 A 
ATOM      3  C   UNL     1       0.730  -4.833  -2.624  0.00  0.00    +0.262 A 
ATOM      4  N   UNL     1       1.166  -6.110  -2.611  0.00  0.00    -0.275 N 
ATOM      5  C   UNL     1       2.486  -6.373  -2.619  0.00  0.00    +0.331 A 
ATOM      6  O   UNL     1       2.862  -7.529  -2.608  0.00  0.00    -0.246 OA
ATOM      7  N   UNL     1       3.397  -5.385  -2.641  0.00  0.00    -0.281 N 
ATOM      8  C   UNL     1       2.999  -4.064  -2.655  0.00  0.00    +0.120 A 
ATOM      9  N   UNL     1       3.739  -2.907  -2.677  0.00  0.00    -0.269 N 
ATOM     10  C   UNL     1       2.969  -1.804  -2.684  0.00  0.00    +0.256 C 
ATOM     11  O   UNL     1       3.350  -0.653  -2.703  0.00  0.00    -0.272 OA
ATOM     12  O   UNL     1      -0.465  -4.590  -2.616  0.00  0.00    -0.267 OA
ATOM     13  H   UNL     1       4.709  -2.887  -2.686  0.00  0.00    +0.156 HD
ATOM     14  H   UNL     1       0.527  -6.839  -2.595  0.00  0.00    +0.173 HD
ENDROOT
BRANCH   1  17
ATOM     15  C   UNL     1       0.707  -0.490  -1.238  0.00  0.00    +0.220 C 
ATOM     16  O   UNL     1       1.150   0.308  -2.036  0.00  0.00    -0.275 OA
ATOM     17  N   UNL     1       0.847  -1.812  -1.460  0.00  0.00    -0.290 N 
ATOM     18  H   UNL     1       0.493  -2.451  -0.821  0.00  0.00    +0.150 HD
BRANCH  15  20
ATOM     19  C   UNL     1      -0.019   1.526   0.010  0.00  0.00    +0.020 C 
ATOM     20  C   UNL     1       0.002  -0.004   0.002  0.00  0.00    +0.039 C 
ATOM     21  C   UNL     1       0.742  -0.511   1.242  0.00  0.00    +0.020 C 
ATOM     22  C   UNL     1      -1.433  -0.534   0.013  0.00  0.00    +0.020 C 
ENDBRANCH  15  20
ENDBRANCH   1  17
BRANCH   1  23
ATOM     23  C   UNL     1       0.792  -1.821  -3.921  0.00  0.00    +0.424 C 
ATOM     24  F   UNL     1       0.730  -0.423  -3.936  0.00  0.00    -0.167 F 
ATOM     25  F   UNL     1       1.474  -2.270  -5.057  0.00  0.00    -0.167 F 
ATOM     26  F   UNL     1      -0.505  -2.344  -3.918  0.00  0.00    -0.167 F 
ENDBRANCH   1  23
BRANCH   7  27
ATOM     27  C   UNL     1       4.824  -5.713  -2.650  0.00  0.00    +0.133 C 
BRANCH  27  28
ATOM     28  C   UNL     1       5.308  -5.848  -4.095  0.00  0.00    +0.057 C 
BRANCH  28  29
ATOM     29  C   UNL     1       6.777  -6.186  -4.104  0.00  0.00    -0.042 A 
ATOM     30  C   UNL     1       7.718  -5.173  -4.120  0.00  0.00    +0.007 A 
ATOM     31  C   UNL     1       9.066  -5.478  -4.128  0.00  0.00    +0.049 A 
ATOM     32  C   UNL     1       9.477  -6.801  -4.119  0.00  0.00    +0.161 A 
ATOM     33  C   UNL     1       8.530  -7.821  -4.102  0.00  0.00    +0.162 A 
ATOM     34  C   UNL     1       7.180  -7.508  -4.089  0.00  0.00    +0.053 A 
BRANCH  33  35
ATOM     35  O   UNL     1       8.928  -9.121  -4.093  0.00  0.00    -0.491 OA
ATOM     36  C   UNL     1       7.901 -10.114  -4.075  0.00  0.00    +0.277 C 
ENDBRANCH  33  35
BRANCH  32  37
ATOM     37  O   UNL     1      10.803  -7.103  -4.127  0.00  0.00    -0.491 OA
ATOM     38  C   UNL     1      11.718  -6.006  -4.145  0.00  0.00    +0.277 C 
ENDBRANCH  32  37
ENDBRANCH  28  29
ENDBRANCH  27  28
ENDBRANCH   7  27
TORSDOF 8
