REMARK  Name = ZINC01192356
REMARK  10 active torsions:
REMARK  status: ('A' for Active; 'I' for Inactive)
REMARK    1  A    between atoms: C_1  and  C_2
REMARK    2  A    between atoms: C_5  and  N_9
REMARK    3  A    between atoms: C_6  and  C_8
REMARK    4  A    between atoms: C_10  and  O_31
REMARK    5  A    between atoms: C_11  and  C_15
REMARK    6  A    between atoms: C_12  and  C_14
REMARK    7  A    between atoms: C_17  and  C_30
REMARK    8  A    between atoms: N_19  and  C_22
REMARK    9  A    between atoms: C_25  and  C_29
REMARK   10  A    between atoms: C_26  and  C_28
REMARK                            x       y       z     vdW  Elec       q    Type
REMARK                         _______ _______ _______ _____ _____    ______ ____
ROOT
ATOM      1  N   UNL     1       1.348   1.393   2.489  0.00  0.00    -0.200 N 
ATOM      2  C   UNL     1       2.106   1.400   3.603  0.00  0.00    +0.223 A 
ATOM      3  C   UNL     1       3.402   1.027   3.226  0.00  0.00    +0.060 A 
ATOM      4  C   UNL     1       3.355   0.805   1.779  0.00  0.00    +0.071 A 
ATOM      5  N   UNL     1       2.132   1.030   1.391  0.00  0.00    -0.168 NA
ATOM      6  C   UNL     1       4.508   0.391   0.902  0.00  0.00    +0.068 C 
ENDROOT
BRANCH   1  11
ATOM      7  C   UNL     1      -4.178   2.668   2.284  0.00  0.00    +0.044 C 
ATOM      8  C   UNL     1      -2.711   2.329   2.338  0.00  0.00    -0.050 A 
ATOM      9  C   UNL     1      -2.070   2.232   3.560  0.00  0.00    +0.005 A 
ATOM     10  C   UNL     1      -0.726   1.921   3.613  0.00  0.00    +0.028 A 
ATOM     11  C   UNL     1      -0.017   1.708   2.438  0.00  0.00    +0.072 A 
ATOM     12  C   UNL     1      -0.663   1.806   1.213  0.00  0.00    -0.025 A 
ATOM     13  C   UNL     1      -2.007   2.122   1.167  0.00  0.00    +0.008 A 
ATOM     14  C   UNL     1       0.103   1.576  -0.064  0.00  0.00    +0.046 C 
ENDBRANCH   1  11
BRANCH   3  15
ATOM     15  C   UNL     1       4.526   0.898   4.068  0.00  0.00    +0.030 C 
ATOM     16  C   UNL     1       4.856   1.922   4.948  0.00  0.00    +0.062 C 
ATOM     17  C   UNL     1       5.978   1.959   5.896  0.00  0.00    +0.069 C 
ATOM     18  N   UNL     1       5.924   3.095   6.523  0.00  0.00    -0.177 NA
ATOM     19  N   UNL     1       4.840   3.860   6.093  0.00  0.00    -0.156 N 
ATOM     20  C   UNL     1       4.156   3.198   5.138  0.00  0.00    +0.272 C 
ATOM     21  O   UNL     1       3.159   3.582   4.551  0.00  0.00    -0.268 OA
ATOM     22  C   UNL     1       7.006   0.877   6.102  0.00  0.00    +0.068 C 
BRANCH  19  23
ATOM     23  C   UNL     1       4.511   5.130   6.582  0.00  0.00    +0.061 A 
ATOM     24  C   UNL     1       3.408   5.806   6.076  0.00  0.00    +0.026 A 
ATOM     25  C   UNL     1       3.082   7.056   6.564  0.00  0.00    +0.005 A 
ATOM     26  C   UNL     1       3.859   7.640   7.548  0.00  0.00    -0.047 A 
ATOM     27  C   UNL     1       4.960   6.972   8.050  0.00  0.00    -0.046 A 
ATOM     28  C   UNL     1       5.288   5.719   7.570  0.00  0.00    +0.029 A 
ATOM     29  C   UNL     1       5.804   7.612   9.123  0.00  0.00    +0.044 C 
ATOM     30  C   UNL     1       3.504   9.007   8.075  0.00  0.00    +0.044 C 
ENDBRANCH  19  23
ENDBRANCH   3  15
BRANCH   2  31
ATOM     31  O   UNL     1       1.691   1.707   4.853  0.00  0.00    -0.492 OA
ATOM     32  H   UNL     1       1.370   0.948   5.358  0.00  0.00    +0.294 HD
ENDBRANCH   2  31
TORSDOF 4
