REMARK  Name = ZINC36158723
REMARK  16 active torsions:
REMARK  status: ('A' for Active; 'I' for Inactive)
REMARK    1  A    between atoms: C_1  and  C_2
REMARK    2  A    between atoms: C_2  and  C_3
REMARK    3  A    between atoms: C_2  and  C_4
REMARK    4  A    between atoms: C_4  and  C_5
REMARK    5  A    between atoms: C_5  and  N_6
REMARK    6  A    between atoms: N_6  and  C_7
REMARK    7  A    between atoms: N_6  and  C_23
REMARK    8  A    between atoms: C_7  and  C_8
REMARK    9  A    between atoms: C_23  and  C_24
REMARK   10  A    between atoms: C_24  and  C_26
REMARK   11  A    between atoms: C_24  and  O_32
REMARK   12  A    between atoms: C_26  and  O_27
REMARK   13  A    between atoms: O_27  and  C_28
REMARK   14  A    between atoms: C_28  and  C_29
REMARK   15  A    between atoms: C_28  and  C_30
REMARK   16  A    between atoms: C_28  and  C_31
REMARK                            x       y       z     vdW  Elec       q    Type
REMARK                         _______ _______ _______ _____ _____    ______ ____
ROOT
ATOM      1  N   UNL     1      -2.753  -2.813  -0.117  0.00  0.00    +0.386 N 
ATOM      2  H   UNL     1      -3.110  -2.537   0.785  0.00  0.00    -0.081 HD
ENDROOT
BRANCH   1   3
ATOM      3  C   UNL     1      -1.360  -2.369  -0.250  0.00  0.00    -0.078 C 
BRANCH   3   4
ATOM      4  C   UNL     1      -1.277  -0.863   0.008  0.00  0.00    -0.016 C 
BRANCH   4   6
ATOM      5  C   UNL     1       0.265   1.099   0.134  0.00  0.00    +0.007 C 
ATOM      6  C   UNL     1       0.188  -0.423   0.001  0.00  0.00    -0.019 C 
ATOM      7  C   UNL     1       0.922  -1.076   1.174  0.00  0.00    +0.007 C 
ENDBRANCH   4   6
ENDBRANCH   3   4
ENDBRANCH   1   3
BRANCH   1   8
ATOM      8  C   UNL     1      -3.566  -2.197  -1.175  0.00  0.00    -0.003 C 
BRANCH   8   9
ATOM      9  C   UNL     1      -5.021  -2.510  -0.937  0.00  0.00    +0.094 A 
ATOM     10  N   UNL     1      -5.942  -2.150  -1.868  0.00  0.00    -0.312 N 
ATOM     11  H   UNL     1      -5.650  -1.696  -2.674  0.00  0.00    +0.170 HD
ATOM     12  C   UNL     1      -7.251  -2.411  -1.696  0.00  0.00    +0.260 A 
ATOM     13  O   UNL     1      -8.065  -2.082  -2.541  0.00  0.00    -0.267 OA
ATOM     14  C   UNL     1      -7.672  -3.083  -0.501  0.00  0.00    +0.075 A 
ATOM     15  C   UNL     1      -9.026  -3.465  -0.103  0.00  0.00    -0.023 A 
ATOM     16  C   UNL     1      -9.161  -4.096   1.083  0.00  0.00    -0.004 A 
ATOM     17  S   UNL     1      -7.514  -4.216   1.728  0.00  0.00    -0.073 S 
ATOM     18  C   UNL     1      -6.649  -3.416   0.401  0.00  0.00    +0.116 A 
ATOM     19  N   UNL     1      -5.373  -3.129   0.159  0.00  0.00    -0.229 NA
ATOM     20  C   UNL     1     -10.430  -4.585   1.712  0.00  0.00    +0.043 C 
ATOM     21  C   UNL     1     -11.614  -3.935   0.982  0.00  0.00    +0.005 C 
ATOM     22  C   UNL     1     -11.397  -4.075  -0.527  0.00  0.00    +0.005 C 
ATOM     23  C   UNL     1     -10.246  -3.174  -0.974  0.00  0.00    +0.037 C 
ENDBRANCH   8   9
ENDBRANCH   1   8
BRANCH   1  24
ATOM     24  C   UNL     1      -2.815  -4.275  -0.242  0.00  0.00    -0.044 C 
BRANCH  24  25
ATOM     25  C   UNL     1      -2.072  -4.919   0.931  0.00  0.00    +0.124 C 
BRANCH  25  26
ATOM     26  O   UNL     1      -2.752  -4.614   2.150  0.00  0.00    -0.391 OA
ATOM     27  H   UNL     1      -3.665  -4.932   2.182  0.00  0.00    +0.210 HD
ENDBRANCH  25  26
BRANCH  25  28
ATOM     28  C   UNL     1      -2.029  -6.436   0.737  0.00  0.00    +0.189 C 
BRANCH  28  29
ATOM     29  O   UNL     1      -1.236  -7.026   1.769  0.00  0.00    -0.372 OA
BRANCH  29  30
ATOM     30  C   UNL     1      -1.131  -8.448   1.680  0.00  0.00    +0.061 C 
ATOM     31  C   UNL     1      -0.489  -8.829   0.344  0.00  0.00    +0.041 C 
ATOM     32  C   UNL     1      -0.265  -8.968   2.829  0.00  0.00    +0.041 C 
ATOM     33  C   UNL     1      -2.526  -9.070   1.771  0.00  0.00    +0.041 C 
ENDBRANCH  29  30
ENDBRANCH  28  29
ENDBRANCH  25  28
ENDBRANCH  24  25
ENDBRANCH   1  24
TORSDOF 11
