REMARK  Name = ZINC14185445
REMARK  8 active torsions:
REMARK  status: ('A' for Active; 'I' for Inactive)
REMARK    1  A    between atoms: C_1  and  C_2
REMARK    2  A    between atoms: C_2  and  C_4
REMARK    3  A    between atoms: C_2  and  N_16
REMARK    4  A    between atoms: C_7  and  C_10
REMARK    5  A    between atoms: C_17  and  C_19
REMARK    6  A    between atoms: C_19  and  N_20
REMARK    7  A    between atoms: C_23  and  C_28
REMARK    8  A    between atoms: C_28  and  C_29
REMARK                            x       y       z     vdW  Elec       q    Type
REMARK                         _______ _______ _______ _____ _____    ______ ____
ROOT
ATOM      1  C   UNL     1       5.564  -3.190  -2.478  0.00  0.00    +0.213 C 
ENDROOT
BRANCH   1   2
ATOM      2  N   UNL     1       4.792  -1.977  -2.200  0.00  0.00    -0.216 N 
ATOM      3  C   UNL     1       3.641  -1.956  -1.499  0.00  0.00    +0.244 C 
ATOM      4  O   UNL     1       3.071  -2.902  -0.999  0.00  0.00    -0.273 OA
ATOM      5  C   UNL     1       3.206  -0.504  -1.467  0.00  0.00    +0.165 C 
ATOM      6  N   UNL     1       4.262   0.190  -2.224  0.00  0.00    -0.287 N 
ATOM      7  C   UNL     1       5.141  -0.752  -2.610  0.00  0.00    +0.310 C 
ATOM      8  O   UNL     1       6.142  -0.517  -3.259  0.00  0.00    -0.252 OA
ATOM      9  H   UNL     1       4.313   1.141  -2.409  0.00  0.00    +0.151 HD
BRANCH   5  10
ATOM     10  C   UNL     1       3.150   0.009  -0.027  0.00  0.00    +0.069 C 
BRANCH  10  11
ATOM     11  C   UNL     1       2.600   1.412  -0.015  0.00  0.00    -0.020 A 
ATOM     12  C   UNL     1       3.312   2.549  -0.015  0.00  0.00    +0.087 A 
ATOM     13  N   UNL     1       2.470   3.628  -0.002  0.00  0.00    -0.360 N 
ATOM     14  H   UNL     1       2.753   4.556   0.001  0.00  0.00    +0.165 HD
ATOM     15  C   UNL     1       1.161   3.199   0.008  0.00  0.00    +0.047 A 
ATOM     16  C   UNL     1       1.185   1.793   0.000  0.00  0.00    +0.003 A 
ATOM     17  C   UNL     1      -0.013   1.076   0.008  0.00  0.00    +0.010 A 
ATOM     18  C   UNL     1      -1.204   1.745   0.017  0.00  0.00    +0.001 A 
ATOM     19  C   UNL     1      -1.233   3.133   0.031  0.00  0.00    +0.002 A 
ATOM     20  C   UNL     1      -0.062   3.860   0.024  0.00  0.00    +0.026 A 
ENDBRANCH  10  11
ENDBRANCH   5  10
ENDBRANCH   1   2
BRANCH   1  22
ATOM     21  N   UNL     1       5.667  -4.929  -4.234  0.00  0.00    -0.307 N 
ATOM     22  C   UNL     1       5.095  -3.798  -3.774  0.00  0.00    +0.231 C 
ATOM     23  O   UNL     1       4.203  -3.270  -4.404  0.00  0.00    -0.274 OA
ATOM     24  H   UNL     1       6.380  -5.351  -3.731  0.00  0.00    +0.149 HD
BRANCH  21  26
ATOM     25  C   UNL     1       5.937  -4.851  -6.664  0.00  0.00    +0.033 C 
ATOM     26  C   UNL     1       5.211  -5.520  -5.495  0.00  0.00    +0.100 C 
BRANCH  26  27
ATOM     27  C   UNL     1       5.511  -6.997  -5.495  0.00  0.00    -0.027 A 
ATOM     28  C   UNL     1       6.709  -7.456  -4.977  0.00  0.00    +0.006 A 
ATOM     29  C   UNL     1       6.987  -8.808  -4.970  0.00  0.00    +0.009 A 
ATOM     30  C   UNL     1       6.064  -9.709  -5.495  0.00  0.00    -0.018 A 
ATOM     31  C   UNL     1       4.862  -9.241  -6.021  0.00  0.00    +0.009 A 
ATOM     32  C   UNL     1       4.591  -7.887  -6.018  0.00  0.00    +0.006 A 
BRANCH  30  33
ATOM     33  C   UNL     1       6.361 -11.163  -5.496  0.00  0.00    -0.018 A 
ATOM     34  C   UNL     1       5.435 -12.065  -6.017  0.00  0.00    +0.008 A 
ATOM     35  C   UNL     1       5.718 -13.416  -6.020  0.00  0.00    +0.001 A 
ATOM     36  C   UNL     1       6.914 -13.876  -5.497  0.00  0.00    +0.000 A 
ATOM     37  C   UNL     1       7.834 -12.985  -4.974  0.00  0.00    +0.001 A 
ATOM     38  C   UNL     1       7.563 -11.632  -4.971  0.00  0.00    +0.008 A 
ENDBRANCH  30  33
ENDBRANCH  26  27
ENDBRANCH  21  26
ENDBRANCH   1  22
TORSDOF 7
