REMARK  Name = ZINC09514502
REMARK  6 active torsions:
REMARK  status: ('A' for Active; 'I' for Inactive)
REMARK    1  A    between atoms: C_8  and  C_24
REMARK    2  A    between atoms: C_11  and  C_12
REMARK    3  A    between atoms: C_11  and  N_48
REMARK    4  A    between atoms: N_14  and  C_15
REMARK    5  A    between atoms: C_15  and  C_16
REMARK    6  A    between atoms: C_16  and  C_17
REMARK                            x       y       z     vdW  Elec       q    Type
REMARK                         _______ _______ _______ _____ _____    ______ ____
ROOT
ATOM      1  C   UNL     1       1.543  -6.068   0.127  0.00  0.00    +0.000 A 
ATOM      2  C   UNL     1       2.046  -5.354   1.199  0.00  0.00    +0.000 A 
ATOM      3  C   UNL     1       1.410  -4.203   1.618  0.00  0.00    +0.002 A 
ATOM      4  C   UNL     1       0.267  -3.758   0.970  0.00  0.00    -0.061 A 
ATOM      5  C   UNL     1      -0.232  -4.468  -0.100  0.00  0.00    -0.047 A 
ATOM      6  C   UNL     1       0.407  -5.625  -0.520  0.00  0.00    +0.004 A 
ATOM      7  C   UNL     1      -1.467  -4.020  -0.840  0.00  0.00    +0.029 C 
ATOM      8  C   UNL     1      -2.241  -3.006   0.002  0.00  0.00    +0.024 C 
ATOM      9  C   UNL     1      -0.397  -2.501   1.470  0.00  0.00    -0.041 C 
ATOM     10  N   UNL     1      -1.292  -1.958   0.434  0.00  0.00    +0.396 N 
ATOM     11  H   UNL     1      -0.731  -1.661  -0.372  0.00  0.00    -0.080 HD
ENDROOT
BRANCH   8  12
ATOM     12  C   UNL     1      -3.331  -2.382  -0.831  0.00  0.00    +0.197 C 
ATOM     13  O   UNL     1      -3.083  -1.428  -1.537  0.00  0.00    -0.278 OA
ATOM     14  N   UNL     1      -4.580  -2.885  -0.791  0.00  0.00    -0.331 N 
ATOM     15  H   UNL     1      -4.778  -3.649  -0.227  0.00  0.00    +0.145 HD
ATOM     16  H   UNL     1      -5.282  -2.484  -1.328  0.00  0.00    +0.145 HD
ENDBRANCH   8  12
BRANCH  10  17
ATOM     17  C   UNL     1      -2.030  -0.791   0.964  0.00  0.00    +0.020 C 
BRANCH  17  18
ATOM     18  C   UNL     1      -1.043   0.238   1.450  0.00  0.00    +0.197 C 
ATOM     19  O   UNL     1       0.144   0.079   1.256  0.00  0.00    -0.278 OA
ATOM     20  N   UNL     1      -1.478   1.336   2.099  0.00  0.00    -0.317 N 
ATOM     21  H   UNL     1      -2.427   1.466   2.249  0.00  0.00    +0.149 HD
BRANCH  20  22
ATOM     22  C   UNL     1      -0.518   2.337   2.571  0.00  0.00    +0.109 C 
BRANCH  22  23
ATOM     23  C   UNL     1      -1.267   3.474   3.269  0.00  0.00    +0.054 C 
BRANCH  23  24
ATOM     24  C   UNL     1      -0.280   4.503   3.755  0.00  0.00    -0.046 A 
ATOM     25  C   UNL     1       0.260   4.397   5.023  0.00  0.00    +0.006 A 
ATOM     26  C   UNL     1       1.170   5.338   5.468  0.00  0.00    +0.038 A 
ATOM     27  C   UNL     1       1.532   6.392   4.647  0.00  0.00    +0.123 A 
ATOM     28  C   UNL     1       0.987   6.500   3.379  0.00  0.00    +0.038 A 
ATOM     29  C   UNL     1       0.082   5.555   2.934  0.00  0.00    +0.006 A 
ATOM     30  F   UNL     1       2.418   7.315   5.083  0.00  0.00    -0.205 F 
ENDBRANCH  23  24
ENDBRANCH  22  23
ENDBRANCH  20  22
ENDBRANCH  17  18
ENDBRANCH  10  17
TORSDOF 6
