REMARK  Name = ZINC55459542
REMARK  5 active torsions:
REMARK  status: ('A' for Active; 'I' for Inactive)
REMARK    1  A    between atoms: C_1  and  C_2
REMARK    2  A    between atoms: C_4  and  C_22
REMARK    3  A    between atoms: C_7  and  C_15
REMARK    4  A    between atoms: C_9  and  C_14
REMARK    5  A    between atoms: N_12  and  O_13
REMARK                            x       y       z     vdW  Elec       q    Type
REMARK                         _______ _______ _______ _____ _____    ______ ____
ROOT
ATOM      1  C   UNL     1       0.330   1.516   0.105  0.00  0.00    +0.016 C 
ATOM      2  C   UNL     1       0.307  -0.014   0.091  0.00  0.00    +0.055 C 
ATOM      3  C   UNL     1      -1.143  -0.510   0.067  0.00  0.00    +0.093 C 
ATOM      4  N   UNL     1      -1.805  -0.143   1.325  0.00  0.00    -0.301 NA
ATOM      5  C   UNL     1      -1.208  -0.840   2.472  0.00  0.00    +0.093 C 
ATOM      6  C   UNL     1       0.238  -0.367   2.659  0.00  0.00    +0.055 C 
ATOM      7  C   UNL     1       0.970  -0.546   1.345  0.00  0.00    +0.067 C 
ATOM      8  N   UNL     1       2.109  -1.127   1.294  0.00  0.00    -0.096 NA
ATOM      9  C   UNL     1       0.250   1.109   3.061  0.00  0.00    +0.016 C 
ATOM     10  H   UNL     1      -1.792   0.856   1.463  0.00  0.00    +0.123 HD
ENDROOT
BRANCH   5  11
ATOM     11  C   UNL     1      -2.002  -0.534   3.715  0.00  0.00    -0.030 A 
ATOM     12  C   UNL     1      -2.489   0.743   3.928  0.00  0.00    +0.006 A 
ATOM     13  C   UNL     1      -3.217   1.024   5.068  0.00  0.00    +0.020 A 
ATOM     14  C   UNL     1      -3.460   0.028   5.997  0.00  0.00    +0.041 A 
ATOM     15  C   UNL     1      -2.973  -1.250   5.784  0.00  0.00    +0.020 A 
ATOM     16  C   UNL     1      -2.249  -1.531   4.641  0.00  0.00    +0.006 A 
ATOM     17 CL   UNL     1      -4.375   0.381   7.430  0.00  0.00    -0.084 Cl
ENDBRANCH   5  11
BRANCH   3  18
ATOM     18  C   UNL     1      -1.160  -2.008  -0.092  0.00  0.00    -0.030 A 
ATOM     19  C   UNL     1      -2.276  -2.731   0.286  0.00  0.00    +0.006 A 
ATOM     20  C   UNL     1      -2.292  -4.105   0.141  0.00  0.00    +0.020 A 
ATOM     21  C   UNL     1      -1.190  -4.758  -0.384  0.00  0.00    +0.041 A 
ATOM     22  C   UNL     1      -0.073  -4.034  -0.762  0.00  0.00    +0.020 A 
ATOM     23  C   UNL     1      -0.061  -2.659  -0.621  0.00  0.00    +0.006 A 
ATOM     24 CL   UNL     1      -1.209  -6.484  -0.566  0.00  0.00    -0.084 Cl
ENDBRANCH   3  18
BRANCH   8  25
ATOM     25  O   UNL     1       2.707  -1.615   2.481  0.00  0.00    -0.409 OA
ATOM     26  H   UNL     1       3.566  -2.038   2.344  0.00  0.00    +0.328 HD
ENDBRANCH   8  25
TORSDOF 3
