REMARK  Name = ZINC09311410
REMARK  9 active torsions:
REMARK  status: ('A' for Active; 'I' for Inactive)
REMARK    1  A    between atoms: C_1  and  C_2
REMARK    2  A    between atoms: C_2  and  O_3
REMARK    3  A    between atoms: O_3  and  C_4
REMARK    4  A    between atoms: C_8  and  N_10
REMARK    5  A    between atoms: C_14  and  C_15
REMARK    6  A    between atoms: C_17  and  C_32
REMARK    7  A    between atoms: N_18  and  C_21
REMARK    8  A    between atoms: C_19  and  C_20
REMARK    9  A    between atoms: C_22  and  C_30
REMARK                            x       y       z     vdW  Elec       q    Type
REMARK                         _______ _______ _______ _____ _____    ______ ____
ROOT
ATOM      1  N   UNL     1       1.370   3.157  -2.614  0.00  0.00    -0.190 N 
ATOM      2  C   UNL     1       0.475   2.579  -1.786  0.00  0.00    +0.263 C 
ATOM      3  O   UNL     1      -0.680   2.959  -1.750  0.00  0.00    -0.269 OA
ATOM      4  C   UNL     1       0.937   1.477  -0.922  0.00  0.00    +0.100 C 
ATOM      5  C   UNL     1       0.077   0.838  -0.043  0.00  0.00    +0.028 C 
ATOM      6  C   UNL     1       2.352   1.081  -1.038  0.00  0.00    +0.257 C 
ATOM      7  O   UNL     1       2.806   0.177  -0.361  0.00  0.00    -0.270 OA
ATOM      8  N   UNL     1       3.131   1.747  -1.915  0.00  0.00    -0.235 N 
ATOM      9  C   UNL     1       2.644   2.744  -2.667  0.00  0.00    +0.320 C 
ATOM     10  O   UNL     1       3.398   3.304  -3.439  0.00  0.00    -0.251 OA
ATOM     11  H   UNL     1       4.064   1.498  -2.004  0.00  0.00    +0.159 HD
ENDROOT
BRANCH   5  12
ATOM     12  C   UNL     1      -1.222   1.356   0.178  0.00  0.00    -0.003 A 
ATOM     13  C   UNL     1      -1.593   2.766   0.372  0.00  0.00    +0.031 A 
ATOM     14  C   UNL     1      -2.923   2.788   0.546  0.00  0.00    +0.022 A 
ATOM     15  N   UNL     1      -3.409   1.510   0.477  0.00  0.00    -0.310 N 
ATOM     16  C   UNL     1      -2.407   0.639   0.251  0.00  0.00    +0.029 A 
ATOM     17  C   UNL     1      -2.548  -0.855   0.107  0.00  0.00    +0.064 C 
ATOM     18  C   UNL     1      -3.752   4.025   0.780  0.00  0.00    +0.064 C 
BRANCH  15  19
ATOM     19  C   UNL     1      -4.748   1.161   0.613  0.00  0.00    +0.103 A 
ATOM     20  C   UNL     1      -5.317   0.257   1.496  0.00  0.00    +0.086 A 
ATOM     21  C   UNL     1      -6.755   0.072   1.437  0.00  0.00    -0.018 A 
ATOM     22  C   UNL     1      -7.393   0.819   0.508  0.00  0.00    -0.004 A 
ATOM     23  S   UNL     1      -6.112   1.758  -0.273  0.00  0.00    -0.074 S 
ATOM     24  C   UNL     1      -8.863   0.839   0.219  0.00  0.00    +0.043 C 
ATOM     25  C   UNL     1      -9.502  -0.392   0.879  0.00  0.00    +0.005 C 
ATOM     26  C   UNL     1      -9.004  -0.490   2.325  0.00  0.00    +0.005 C 
ATOM     27  C   UNL     1      -7.526  -0.883   2.340  0.00  0.00    +0.037 C 
BRANCH  20  28
ATOM     28  C   UNL     1      -4.513  -0.470   2.433  0.00  0.00    +0.102 C 
ATOM     29  N   UNL     1      -3.876  -1.047   3.176  0.00  0.00    -0.191 NA
ENDBRANCH  20  28
ENDBRANCH  15  19
ENDBRANCH   5  12
BRANCH   1  34
ATOM     30  C   UNL     1       0.203   6.473  -3.710  0.00  0.00    +0.122 A 
ATOM     31  C   UNL     1       0.138   6.285  -5.083  0.00  0.00    +0.046 A 
ATOM     32  C   UNL     1       0.480   5.064  -5.633  0.00  0.00    +0.005 A 
ATOM     33  C   UNL     1       0.888   4.027  -4.816  0.00  0.00    +0.024 A 
ATOM     34  C   UNL     1       0.956   4.209  -3.441  0.00  0.00    +0.049 A 
ATOM     35  C   UNL     1       0.608   5.433  -2.888  0.00  0.00    +0.069 A 
BRANCH  30  36
ATOM     36  O   UNL     1      -0.134   7.674  -3.171  0.00  0.00    -0.492 OA
BRANCH  36  38
ATOM     37  C   UNL     1      -0.884   9.968  -3.292  0.00  0.00    +0.048 C 
ATOM     38  C   UNL     1      -0.547   8.698  -4.077  0.00  0.00    +0.225 C 
ENDBRANCH  36  38
ENDBRANCH  30  36
ENDBRANCH   1  34
TORSDOF 6
