REMARK  Name = ZINC02143062
REMARK  12 active torsions:
REMARK  status: ('A' for Active; 'I' for Inactive)
REMARK    1  A    between atoms: C_1  and  C_2
REMARK    2  A    between atoms: C_2  and  O_3
REMARK    3  A    between atoms: O_3  and  C_4
REMARK    4  A    between atoms: C_4  and  C_6
REMARK    5  A    between atoms: C_6  and  C_8
REMARK    6  A    between atoms: C_6  and  O_9
REMARK    7  A    between atoms: O_9  and  C_10
REMARK    8  A    between atoms: C_13  and  C_16
REMARK    9  A    between atoms: C_18  and  C_30
REMARK   10  A    between atoms: C_19  and  C_24
REMARK   11  A    between atoms: N_32  and  C_33
REMARK   12  A    between atoms: C_36  and  C_39
REMARK                            x       y       z     vdW  Elec       q    Type
REMARK                         _______ _______ _______ _____ _____    ______ ____
ROOT
ATOM      1  C   UNL     1       2.023   6.277  -3.389  0.00  0.00    +0.139 C 
ATOM      2  C   UNL     1       2.757   6.560  -4.684  0.00  0.00    +0.061 C 
ATOM      3  C   UNL     1       3.772   7.472  -4.651  0.00  0.00    +0.050 C 
ATOM      4  N   UNL     1       4.110   8.105  -3.479  0.00  0.00    -0.296 N 
ATOM      5  C   UNL     1       3.488   7.884  -2.313  0.00  0.00    +0.135 C 
ATOM      6  S   UNL     1       4.008   8.742  -0.926  0.00  0.00    -0.019 S 
ATOM      7  N   UNL     1       2.469   7.013  -2.194  0.00  0.00    -0.315 N 
ATOM      8  H   UNL     1       4.930   8.838  -3.466  0.00  0.00    +0.154 HD
ATOM      9  H   UNL     1       1.972   6.845  -1.228  0.00  0.00    +0.149 HD
ENDROOT
BRANCH   1  13
ATOM     10  C   UNL     1       2.369   2.098  -2.567  0.00  0.00    +0.122 A 
ATOM     11  C   UNL     1       3.423   2.952  -2.280  0.00  0.00    +0.046 A 
ATOM     12  C   UNL     1       3.311   4.302  -2.551  0.00  0.00    +0.009 A 
ATOM     13  C   UNL     1       2.145   4.803  -3.099  0.00  0.00    -0.022 A 
ATOM     14  C   UNL     1       1.090   3.955  -3.381  0.00  0.00    +0.009 A 
ATOM     15  C   UNL     1       1.199   2.604  -3.116  0.00  0.00    +0.046 A 
BRANCH  10  16
ATOM     16  O   UNL     1       2.478   0.769  -2.305  0.00  0.00    -0.478 OA
BRANCH  16  17
ATOM     17  C   UNL     1       1.346  -0.048  -2.610  0.00  0.00    +0.278 C 
ATOM     18  C   UNL     1       1.375  -0.428  -4.092  0.00  0.00    +0.064 C 
BRANCH  17  19
ATOM     19  C   UNL     1       1.388  -1.299  -1.770  0.00  0.00    +0.348 C 
ATOM     20  O   UNL     1       2.295  -1.472  -0.991  0.00  0.00    -0.247 OA
BRANCH  19  21
ATOM     21  O   UNL     1       0.418  -2.219  -1.889  0.00  0.00    -0.462 OA
BRANCH  21  23
ATOM     22  C   UNL     1      -0.662  -4.326  -1.321  0.00  0.00    +0.048 C 
ATOM     23  C   UNL     1       0.523  -3.399  -1.048  0.00  0.00    +0.229 C 
ENDBRANCH  21  23
ENDBRANCH  19  21
ENDBRANCH  17  19
ENDBRANCH  16  17
ENDBRANCH  10  16
ENDBRANCH   1  13
BRANCH   3  24
ATOM     24  C   UNL     1       4.517   7.780  -5.888  0.00  0.00    -0.003 A 
ATOM     25  C   UNL     1       4.698   9.107  -6.285  0.00  0.00    +0.010 A 
ATOM     26  C   UNL     1       5.399   9.389  -7.439  0.00  0.00    +0.001 A 
ATOM     27  C   UNL     1       5.912   8.360  -8.209  0.00  0.00    +0.000 A 
ATOM     28  C   UNL     1       5.732   7.043  -7.825  0.00  0.00    +0.001 A 
ATOM     29  C   UNL     1       5.038   6.747  -6.670  0.00  0.00    +0.010 A 
ENDBRANCH   3  24
BRANCH   2  30
ATOM     30  C   UNL     1       2.403   5.904  -5.883  0.00  0.00    +0.248 C 
ATOM     31  O   UNL     1       2.712   4.739  -6.053  0.00  0.00    -0.270 OA
ATOM     32  N   UNL     1       1.722   6.568  -6.838  0.00  0.00    -0.282 N 
ATOM     33  H   UNL     1       1.533   7.646  -6.731  0.00  0.00    +0.155 HD
BRANCH  32  34
ATOM     34  C   UNL     1       1.256   5.885  -7.966  0.00  0.00    +0.034 A 
ATOM     35  C   UNL     1       0.813   4.573  -7.852  0.00  0.00    +0.023 A 
ATOM     36  C   UNL     1       0.349   3.904  -8.967  0.00  0.00    +0.005 A 
ATOM     37  C   UNL     1       0.334   4.534 -10.198  0.00  0.00    -0.050 A 
ATOM     38  C   UNL     1       0.779   5.838 -10.316  0.00  0.00    +0.005 A 
ATOM     39  C   UNL     1       1.240   6.515  -9.204  0.00  0.00    +0.023 A 
ATOM     40  C   UNL     1      -0.168   3.798 -11.413  0.00  0.00    +0.044 C 
ENDBRANCH  32  34
ENDBRANCH   2  30
TORSDOF 9
