REMARK  Name = ZINC63362503
REMARK  8 active torsions:
REMARK  status: ('A' for Active; 'I' for Inactive)
REMARK    1  A    between atoms: C_1  and  C_2
REMARK    2  A    between atoms: C_2  and  C_4
REMARK    3  A    between atoms: C_2  and  N_12
REMARK    4  A    between atoms: C_4  and  C_5
REMARK    5  A    between atoms: C_5  and  C_6
REMARK    6  A    between atoms: C_13  and  C_15
REMARK    7  A    between atoms: C_19  and  N_21
REMARK    8  A    between atoms: C_24  and  C_40
REMARK                            x       y       z     vdW  Elec       q    Type
REMARK                         _______ _______ _______ _____ _____    ______ ____
ROOT
ATOM      1  C   UNL     1       0.761  -1.146   3.547  0.00  0.00    +0.038 A 
ATOM      2  C   UNL     1       2.126  -1.431   3.480  0.00  0.00    +0.013 A 
ATOM      3  C   UNL     1       2.796  -1.866   4.605  0.00  0.00    +0.003 A 
ATOM      4  C   UNL     1       2.120  -2.020   5.802  0.00  0.00    +0.024 A 
ATOM      5  C   UNL     1       0.762  -1.739   5.879  0.00  0.00    +0.046 A 
ATOM      6  C   UNL     1       0.081  -1.296   4.756  0.00  0.00    +0.037 A 
ENDROOT
BRANCH   5   7
ATOM      7  N   UNL     1       0.081  -1.897   7.094  0.00  0.00    -0.192 N 
ATOM      8  C   UNL     1      -1.206  -1.543   7.294  0.00  0.00    +0.253 C 
ATOM      9  O   UNL     1      -1.952  -1.014   6.499  0.00  0.00    -0.272 OA
ATOM     10  C   UNL     1      -1.522  -1.943   8.718  0.00  0.00    +0.137 C 
ATOM     11  C   UNL     1      -1.952  -0.727   9.538  0.00  0.00    +0.139 C 
ATOM     12  C   UNL     1      -0.847  -0.446  10.546  0.00  0.00    -0.034 C 
ATOM     13  C   UNL     1      -0.478   0.817  10.350  0.00  0.00    -0.001 A 
ATOM     14  C   UNL     1       0.492   1.672  11.053  0.00  0.00    +0.010 A 
ATOM     15  C   UNL     1       0.633   2.937  10.575  0.00  0.00    +0.001 A 
ATOM     16  C   UNL     1      -0.084   3.429   9.481  0.00  0.00    +0.002 A 
ATOM     17  C   UNL     1      -0.998   2.715   8.778  0.00  0.00    +0.026 A 
ATOM     18  C   UNL     1      -1.238   1.372   9.189  0.00  0.00    +0.043 A 
ATOM     19  N   UNL     1      -2.071   0.475   8.710  0.00  0.00    -0.375 N 
ATOM     20  C   UNL     1      -0.294  -1.484  11.491  0.00  0.00    +0.052 C 
ATOM     21  C   UNL     1       0.071  -2.718  10.642  0.00  0.00    +0.115 C 
ATOM     22  N   UNL     1      -0.218  -2.401   9.240  0.00  0.00    -0.268 N 
ATOM     23  C   UNL     1       0.626  -2.424   8.199  0.00  0.00    +0.316 C 
ATOM     24  O   UNL     1       1.756  -2.869   8.252  0.00  0.00    -0.252 OA
ATOM     25  C   UNL     1      -2.566  -3.060   8.764  0.00  0.00    +0.044 C 
ATOM     26  H   UNL     1      -2.659   0.581   7.945  0.00  0.00    +0.160 HD
ENDBRANCH   5   7
BRANCH   1  28
ATOM     27  N   UNL     1       0.700  -0.536   1.177  0.00  0.00    -0.309 N 
ATOM     28  C   UNL     1       0.040  -0.680   2.343  0.00  0.00    +0.244 C 
ATOM     29  O   UNL     1      -1.147  -0.428   2.405  0.00  0.00    -0.270 OA
ATOM     30  H   UNL     1       1.647  -0.738   1.127  0.00  0.00    +0.149 HD
BRANCH  27  32
ATOM     31  C   UNL     1      -0.062   1.454  -0.023  0.00  0.00    +0.028 C 
ATOM     32  C   UNL     1      -0.014  -0.075  -0.016  0.00  0.00    +0.070 C 
BRANCH  32  33
ATOM     33  C   UNL     1       0.713  -0.568  -1.269  0.00  0.00    +0.026 C 
BRANCH  33  34
ATOM     34  C   UNL     1       0.652  -2.096  -1.326  0.00  0.00    +0.037 C 
BRANCH  34  35
ATOM     35  C   UNL     1       1.369  -2.582  -2.559  0.00  0.00    -0.047 A 
ATOM     36  C   UNL     1       0.676  -2.735  -3.746  0.00  0.00    +0.003 A 
ATOM     37  C   UNL     1       1.334  -3.180  -4.877  0.00  0.00    +0.000 A 
ATOM     38  C   UNL     1       2.684  -3.472  -4.822  0.00  0.00    +0.000 A 
ATOM     39  C   UNL     1       3.377  -3.318  -3.636  0.00  0.00    +0.000 A 
ATOM     40  C   UNL     1       2.720  -2.868  -2.506  0.00  0.00    +0.003 A 
ENDBRANCH  34  35
ENDBRANCH  33  34
ENDBRANCH  32  33
ENDBRANCH  27  32
ENDBRANCH   1  28
TORSDOF 6
