REMARK  Name = ZINC04245675
REMARK  18 active torsions:
REMARK  status: ('A' for Active; 'I' for Inactive)
REMARK    1  A    between atoms: C_1  and  C_2
REMARK    2  A    between atoms: C_3  and  O_29
REMARK    3  A    between atoms: C_11  and  N_14
REMARK    4  A    between atoms: C_12  and  O_13
REMARK    5  A    between atoms: C_15  and  C_17
REMARK    6  A    between atoms: C_20  and  O_28
REMARK    7  A    between atoms: C_21  and  C_23
REMARK    8  A    between atoms: C_23  and  C_24
REMARK    9  A    between atoms: C_25  and  C_26
REMARK   10  A    between atoms: C_25  and  C_27
REMARK   11  A    between atoms: O_29  and  C_30
REMARK   12  A    between atoms: C_32  and  O_48
REMARK   13  A    between atoms: C_34  and  O_44
REMARK   14  A    between atoms: C_36  and  O_42
REMARK   15  A    between atoms: C_38  and  C_40
REMARK   16  A    between atoms: C_38  and  C_41
REMARK   17  A    between atoms: O_42  and  C_43
REMARK   18  A    between atoms: O_44  and  C_45
REMARK                            x       y       z     vdW  Elec       q    Type
REMARK                         _______ _______ _______ _____ _____    ______ ____
ROOT
ATOM      1  C   UNL     1       3.948 -12.173  -2.367  0.00  0.00    +0.051 C 
ATOM      2  C   UNL     1       3.308 -11.740  -3.660  0.00  0.00    +0.034 A 
ATOM      3  C   UNL     1       3.380 -12.555  -4.778  0.00  0.00    +0.130 A 
ATOM      4  C   UNL     1       2.792 -12.163  -5.978  0.00  0.00    +0.047 A 
ATOM      5  C   UNL     1       2.137 -10.968  -6.069  0.00  0.00    +0.019 A 
ATOM      6  C   UNL     1       2.056 -10.134  -4.950  0.00  0.00    +0.061 A 
ATOM      7  C   UNL     1       2.647 -10.523  -3.736  0.00  0.00    +0.149 A 
ATOM      8  O   UNL     1       2.568  -9.716  -2.656  0.00  0.00    -0.420 OA
ATOM      9  C   UNL     1       1.939  -8.531  -2.702  0.00  0.00    +0.362 A 
ATOM     10  O   UNL     1       1.902  -7.839  -1.699  0.00  0.00    -0.243 OA
ATOM     11  C   UNL     1       1.316  -8.068  -3.877  0.00  0.00    +0.162 A 
ATOM     12  C   UNL     1       1.357  -8.843  -5.020  0.00  0.00    +0.156 A 
ENDROOT
BRANCH  11  13
ATOM     13  N   UNL     1       0.661  -6.825  -3.888  0.00  0.00    -0.273 N 
ATOM     14  C   UNL     1       1.283  -5.731  -3.405  0.00  0.00    +0.249 C 
ATOM     15  O   UNL     1       2.365  -5.838  -2.860  0.00  0.00    -0.270 OA
ATOM     16  H   UNL     1      -0.239  -6.754  -4.244  0.00  0.00    +0.155 HD
BRANCH  14  17
ATOM     17  C   UNL     1       0.651  -4.404  -3.536  0.00  0.00    +0.038 A 
ATOM     18  C   UNL     1      -0.593  -4.279  -4.162  0.00  0.00    +0.016 A 
ATOM     19  C   UNL     1      -1.180  -3.040  -4.282  0.00  0.00    +0.046 A 
ATOM     20  C   UNL     1      -0.539  -1.914  -3.779  0.00  0.00    +0.120 A 
ATOM     21  C   UNL     1       0.700  -2.033  -3.161  0.00  0.00    -0.002 A 
ATOM     22  C   UNL     1       1.294  -3.269  -3.036  0.00  0.00    +0.020 A 
BRANCH  20  23
ATOM     23  O   UNL     1      -1.123  -0.694  -3.895  0.00  0.00    -0.506 OA
ATOM     24  H   UNL     1      -0.892  -0.224  -4.707  0.00  0.00    +0.292 HD
ENDBRANCH  20  23
BRANCH  21  25
ATOM     25  C   UNL     1       1.393  -0.808  -2.621  0.00  0.00    +0.066 C 
BRANCH  25  26
ATOM     26  C   UNL     1       2.074  -0.077  -3.749  0.00  0.00    -0.023 C 
ATOM     27  C   UNL     1       3.345   0.225  -3.661  0.00  0.00    -0.079 C 
ATOM     28  C   UNL     1       4.091   0.707  -4.878  0.00  0.00    +0.038 C 
ATOM     29  C   UNL     1       4.060   0.096  -2.341  0.00  0.00    +0.038 C 
ENDBRANCH  25  26
ENDBRANCH  21  25
ENDBRANCH  14  17
ENDBRANCH  11  13
BRANCH  12  30
ATOM     30  O   UNL     1       0.773  -8.426  -6.168  0.00  0.00    -0.504 OA
ATOM     31  H   UNL     1       1.356  -7.911  -6.742  0.00  0.00    +0.292 HD
ENDBRANCH  12  30
BRANCH   3  32
ATOM     32  O   UNL     1       4.029 -13.745  -4.703  0.00  0.00    -0.460 OA
BRANCH  32  33
ATOM     33  C   UNL     1       4.067 -14.540  -5.891  0.00  0.00    +0.340 C 
ATOM     34  C   UNL     1       4.939 -15.775  -5.651  0.00  0.00    +0.226 C 
ATOM     35  C   UNL     1       4.926 -16.651  -6.908  0.00  0.00    +0.244 C 
ATOM     36  C   UNL     1       3.478 -17.018  -7.246  0.00  0.00    +0.192 C 
ATOM     37  C   UNL     1       2.662 -15.735  -7.424  0.00  0.00    +0.098 C 
ATOM     38  O   UNL     1       2.742 -14.952  -6.231  0.00  0.00    -0.331 OA
ATOM     39  C   UNL     1       3.224 -14.932  -8.599  0.00  0.00    +0.044 C 
ATOM     40  C   UNL     1       1.201 -16.093  -7.703  0.00  0.00    +0.044 C 
BRANCH  36  41
ATOM     41  O   UNL     1       2.921 -17.794  -6.183  0.00  0.00    -0.373 OA
ATOM     42  C   UNL     1       3.108 -19.203  -6.332  0.00  0.00    +0.194 C 
ENDBRANCH  36  41
BRANCH  34  43
ATOM     43  O   UNL     1       6.278 -15.366  -5.367  0.00  0.00    -0.382 OA
ATOM     44  H   UNL     1       6.361 -14.803  -4.585  0.00  0.00    +0.210 HD
ENDBRANCH  34  43
BRANCH  35  45
ATOM     45  O   UNL     1       5.690 -17.861  -6.664  0.00  0.00    -0.442 OA
BRANCH  45  46
ATOM     46  C   UNL     1       7.004 -17.823  -6.953  0.00  0.00    +0.398 C 
ATOM     47  O   UNL     1       7.500 -16.806  -7.397  0.00  0.00    -0.227 OA
ATOM     48  N   UNL     1       7.771 -18.913  -6.750  0.00  0.00    -0.295 N 
ATOM     49  H   UNL     1       7.375 -19.725  -6.395  0.00  0.00    +0.148 HD
ATOM     50  H   UNL     1       8.718 -18.886  -6.958  0.00  0.00    +0.148 HD
ENDBRANCH  45  46
ENDBRANCH  35  45
ENDBRANCH  32  33
ENDBRANCH   3  32
TORSDOF 12
