REMARK  Name = ZINC59922872
REMARK  8 active torsions:
REMARK  status: ('A' for Active; 'I' for Inactive)
REMARK    1  A    between atoms: C_1  and  C_2
REMARK    2  A    between atoms: C_2  and  C_3
REMARK    3  A    between atoms: C_2  and  C_4
REMARK    4  A    between atoms: C_4  and  C_5
REMARK    5  A    between atoms: C_5  and  C_35
REMARK    6  A    between atoms: C_10  and  C_13
REMARK    7  A    between atoms: C_18  and  O_19
REMARK    8  A    between atoms: N_22  and  C_25
REMARK                            x       y       z     vdW  Elec       q    Type
REMARK                         _______ _______ _______ _____ _____    ______ ____
ROOT
ATOM      1  C   UNL     1       2.439  -0.321  -1.496  0.00  0.00    +0.048 C 
ATOM      2  C   UNL     1       3.553  -0.645  -2.513  0.00  0.00    +0.086 C 
ATOM      3  C   UNL     1       4.822  -0.882  -1.652  0.00  0.00    +0.077 C 
ATOM      4  C   UNL     1       4.360  -0.663  -0.197  0.00  0.00    -0.023 C 
ATOM      5  N   UNL     1       2.895  -0.944  -0.227  0.00  0.00    +0.396 N 
ATOM      6  C   UNL     1       5.129  -2.346  -1.877  0.00  0.00    +0.229 C 
ATOM      7  O   UNL     1       6.055  -2.952  -1.382  0.00  0.00    -0.275 OA
ATOM      8  N   UNL     1       4.218  -2.868  -2.707  0.00  0.00    -0.209 N 
ATOM      9  C   UNL     1       3.279  -1.995  -3.138  0.00  0.00    +0.229 C 
ATOM     10  O   UNL     1       2.365  -2.244  -3.895  0.00  0.00    -0.275 OA
ATOM     11  H   UNL     1       2.441  -0.509   0.563  0.00  0.00    -0.083 HD
ATOM     12  H   UNL     1       2.716  -1.937  -0.236  0.00  0.00    -0.083 HD
ENDROOT
BRANCH   8  13
ATOM     13  C   UNL     1       4.238  -4.209  -3.106  0.00  0.00    +0.052 A 
ATOM     14  C   UNL     1       3.559  -5.160  -2.377  0.00  0.00    +0.024 A 
ATOM     15  C   UNL     1       3.572  -6.497  -2.765  0.00  0.00    +0.002 A 
ATOM     16  C   UNL     1       4.254  -6.901  -3.873  0.00  0.00    +0.008 A 
ATOM     17  C   UNL     1       4.960  -5.961  -4.643  0.00  0.00    -0.016 A 
ATOM     18  C   UNL     1       4.949  -4.597  -4.261  0.00  0.00    +0.004 A 
ATOM     19  C   UNL     1       5.650  -3.659  -5.035  0.00  0.00    +0.010 A 
ATOM     20  C   UNL     1       6.325  -4.070  -6.144  0.00  0.00    +0.001 A 
ATOM     21  C   UNL     1       6.332  -5.410  -6.524  0.00  0.00    +0.001 A 
ATOM     22  C   UNL     1       5.673  -6.349  -5.791  0.00  0.00    +0.008 A 
ENDBRANCH   8  13
BRANCH   4  23
ATOM     23  C   UNL     1       5.049  -1.636   0.725  0.00  0.00    -0.019 A 
ATOM     24  C   UNL     1       4.383  -2.765   1.161  0.00  0.00    +0.005 A 
ATOM     25  C   UNL     1       5.014  -3.658   2.007  0.00  0.00    +0.000 A 
ATOM     26  C   UNL     1       6.313  -3.424   2.419  0.00  0.00    +0.004 A 
ATOM     27  C   UNL     1       6.984  -2.297   1.985  0.00  0.00    +0.045 A 
ATOM     28  C   UNL     1       6.354  -1.402   1.132  0.00  0.00    +0.118 A 
BRANCH  28  29
ATOM     29  O   UNL     1       7.014  -0.295   0.699  0.00  0.00    -0.507 OA
ATOM     30  H   UNL     1       6.906   0.476   1.273  0.00  0.00    +0.292 HD
ENDBRANCH  28  29
ENDBRANCH   4  23
BRANCH   1  31
ATOM     31  C   UNL     1       2.296   1.170  -1.327  0.00  0.00    +0.346 C 
ATOM     32  O   UNL     1       2.611   1.697  -0.275  0.00  0.00    -0.248 OA
ATOM     33  O   UNL     1       1.865   1.848  -2.244  0.00  0.00    -0.248 OA
ENDBRANCH   1  31
BRANCH   1  34
ATOM     34  C   UNL     1       1.112  -0.936  -1.944  0.00  0.00    +0.002 C 
BRANCH  34  36
ATOM     35  C   UNL     1      -0.258   0.613  -0.542  0.00  0.00    +0.007 C 
ATOM     36  C   UNL     1       0.099  -0.852  -0.801  0.00  0.00    -0.018 C 
ATOM     37  C   UNL     1      -1.165  -1.626  -1.181  0.00  0.00    +0.007 C 
ENDBRANCH  34  36
ENDBRANCH   1  34
TORSDOF 6
