REMARK  Name = ZINC36755274
REMARK  3 active torsions:
REMARK  status: ('A' for Active; 'I' for Inactive)
REMARK    1  A    between atoms: C_1  and  C_2
REMARK    2  A    between atoms: C_2  and  C_3
REMARK    3  A    between atoms: C_9  and  C_11
REMARK                            x       y       z     vdW  Elec       q    Type
REMARK                         _______ _______ _______ _____ _____    ______ ____
ROOT
ATOM      1  C   UNL     1      -0.166  -1.158  -4.722  0.00  0.00    +0.022 A 
ATOM      2  C   UNL     1      -1.523  -0.821  -4.726  0.00  0.00    +0.061 A 
ATOM      3  C   UNL     1      -2.252  -0.937  -5.893  0.00  0.00    +0.164 A 
ATOM      4  C   UNL     1      -1.640  -1.387  -7.058  0.00  0.00    +0.176 A 
ATOM      5  C   UNL     1      -0.293  -1.723  -7.057  0.00  0.00    +0.064 A 
ATOM      6  C   UNL     1       0.445  -1.604  -5.897  0.00  0.00    +0.030 A 
ATOM      7 BR   UNL     1       0.531  -2.335  -8.645  0.00  0.00    -0.046 Br
ATOM      8  O   UNL     1      -2.373  -1.497  -8.203  0.00  0.00    -0.487 OA
ATOM      9  C   UNL     1      -3.375  -2.516  -8.209  0.00  0.00    +0.232 C 
ATOM     10  C   UNL     1      -4.660  -2.014  -7.570  0.00  0.00    +0.082 C 
ATOM     11  C   UNL     1      -4.486  -1.697  -6.093  0.00  0.00    +0.232 C 
ATOM     12  O   UNL     1      -3.577  -0.611  -5.910  0.00  0.00    -0.488 OA
ENDROOT
BRANCH   1  19
ATOM     13  C   UNL     1       0.707  -0.490  -1.238  0.00  0.00    +0.048 A 
ATOM     14  C   UNL     1       2.035  -0.802  -1.188  0.00  0.00    +0.093 A 
ATOM     15  C   UNL     1       2.672  -1.254  -2.359  0.00  0.00    +0.252 A 
ATOM     16  O   UNL     1       3.858  -1.542  -2.351  0.00  0.00    -0.268 OA
ATOM     17  N   UNL     1       1.946  -1.363  -3.492  0.00  0.00    -0.307 N 
ATOM     18  H   UNL     1       2.364  -1.673  -4.311  0.00  0.00    +0.170 HD
ATOM     19  C   UNL     1       0.622  -1.037  -3.481  0.00  0.00    +0.141 A 
ATOM     20  N   UNL     1       0.033  -0.620  -2.378  0.00  0.00    -0.234 NA
BRANCH  13  22
ATOM     21  C   UNL     1      -0.019   1.526   0.010  0.00  0.00    +0.010 C 
ATOM     22  C   UNL     1       0.002  -0.004   0.002  0.00  0.00    +0.052 C 
ENDBRANCH  13  22
ENDBRANCH   1  19
TORSDOF 2
