REMARK  Name = ZINC39686168
REMARK  11 active torsions:
REMARK  status: ('A' for Active; 'I' for Inactive)
REMARK    1  A    between atoms: C_1  and  C_2
REMARK    2  A    between atoms: C_2  and  C_3
REMARK    3  A    between atoms: C_3  and  C_4
REMARK    4  A    between atoms: C_4  and  C_6
REMARK    5  A    between atoms: C_4  and  C_7
REMARK    6  A    between atoms: C_11  and  C_20
REMARK    7  A    between atoms: N_22  and  C_23
REMARK    8  A    between atoms: C_29  and  C_31
REMARK    9  A    between atoms: C_31  and  C_32
REMARK   10  A    between atoms: C_32  and  C_33
REMARK   11  A    between atoms: C_32  and  C_34
REMARK                            x       y       z     vdW  Elec       q    Type
REMARK                         _______ _______ _______ _____ _____    ______ ____
ROOT
ATOM      1  C   UNL     1       1.787  -2.429  -2.193  0.00  0.00    +0.218 C 
ATOM      2  O   UNL     1       2.468  -1.696  -2.878  0.00  0.00    -0.275 OA
ATOM      3  N   UNL     1       1.735  -3.749  -2.463  0.00  0.00    -0.300 N 
ATOM      4  C   UNL     1       0.881  -4.775  -1.821  0.00  0.00    +0.121 C 
ATOM      5  C   UNL     1       0.441  -5.698  -2.979  0.00  0.00    +0.100 C 
ATOM      6  C   UNL     1       1.521  -5.515  -4.058  0.00  0.00    -0.004 C 
ATOM      7  C   UNL     1       2.515  -4.500  -3.476  0.00  0.00    +0.115 C 
ATOM      8  C   UNL     1       0.901  -4.963  -5.338  0.00  0.00    -0.010 C 
ATOM      9  C   UNL     1       1.984  -4.844  -6.414  0.00  0.00    -0.082 C 
ATOM     10  N   UNL     1       2.576  -6.164  -6.663  0.00  0.00    +0.379 N 
ATOM     11  C   UNL     1       3.251  -6.647  -5.453  0.00  0.00    -0.082 C 
ATOM     12  C   UNL     1       2.221  -6.842  -4.336  0.00  0.00    -0.010 C 
ATOM     13  H   UNL     1       1.849  -6.813  -6.924  0.00  0.00    -0.086 HD
ATOM     14  H   UNL     1       3.246  -6.094  -7.415  0.00  0.00    -0.086 HD
ENDROOT
BRANCH   5  15
ATOM     15  C   UNL     1      -0.907  -5.275  -3.505  0.00  0.00    +0.218 C 
ATOM     16  O   UNL     1      -1.272  -4.125  -3.382  0.00  0.00    -0.275 OA
ATOM     17  N   UNL     1      -1.706  -6.174  -4.112  0.00  0.00    -0.312 N 
ATOM     18  H   UNL     1      -1.414  -7.094  -4.211  0.00  0.00    +0.149 HD
BRANCH  17  19
ATOM     19  C   UNL     1      -3.016  -5.762  -4.623  0.00  0.00    +0.076 C 
ATOM     20  C   UNL     1      -2.854  -5.175  -6.027  0.00  0.00    +0.041 C 
ATOM     21  C   UNL     1      -4.220  -4.714  -6.544  0.00  0.00    +0.109 C 
ATOM     22  N   UNL     1      -5.160  -5.841  -6.466  0.00  0.00    -0.301 N 
ATOM     23  C   UNL     1      -5.324  -6.536  -5.182  0.00  0.00    +0.109 C 
ATOM     24  C   UNL     1      -3.945  -6.977  -4.680  0.00  0.00    +0.041 C 
ATOM     25  C   UNL     1      -5.859  -6.229  -7.552  0.00  0.00    +0.216 C 
ATOM     26  O   UNL     1      -5.714  -5.646  -8.606  0.00  0.00    -0.276 OA
BRANCH  25  27
ATOM     27  C   UNL     1      -6.819  -7.386  -7.455  0.00  0.00    +0.099 C 
BRANCH  27  28
ATOM     28  C   UNL     1      -7.476  -7.618  -8.817  0.00  0.00    -0.008 C 
ATOM     29  C   UNL     1      -8.356  -8.868  -8.753  0.00  0.00    +0.008 C 
ATOM     30  C   UNL     1      -8.338  -6.406  -9.180  0.00  0.00    +0.008 C 
ENDBRANCH  27  28
ENDBRANCH  25  27
ENDBRANCH  17  19
ENDBRANCH   5  15
BRANCH   1  31
ATOM     31  C   UNL     1       0.999  -1.865  -1.039  0.00  0.00    +0.072 C 
ATOM     32  C   UNL     1       0.508  -0.461  -1.395  0.00  0.00    +0.017 C 
BRANCH  31  33
ATOM     33  C   UNL     1       1.891  -1.795   0.202  0.00  0.00    +0.012 C 
BRANCH  33  35
ATOM     34  C   UNL     1       1.951  -1.271   2.644  0.00  0.00    +0.004 C 
ATOM     35  C   UNL     1       1.059  -1.341   1.403  0.00  0.00    -0.003 C 
ENDBRANCH  33  35
ENDBRANCH  31  33
ENDBRANCH   1  31
TORSDOF 7
