REMARK  Name = ZINC28918453
REMARK  7 active torsions:
REMARK  status: ('A' for Active; 'I' for Inactive)
REMARK    1  A    between atoms: C_3  and  N_11
REMARK    2  A    between atoms: C_4  and  N_8
REMARK    3  A    between atoms: C_12  and  C_14
REMARK    4  A    between atoms: C_14  and  O_15
REMARK    5  A    between atoms: O_15  and  C_16
REMARK    6  A    between atoms: C_16  and  C_18
REMARK    7  A    between atoms: C_18  and  C_19
REMARK                            x       y       z     vdW  Elec       q    Type
REMARK                         _______ _______ _______ _____ _____    ______ ____
ROOT
ATOM      1  O   UNL     1       2.396   1.053  -0.019  0.00  0.00    -0.455 OA
ENDROOT
BRANCH   1   2
ATOM      2  C   UNL     1       3.629   1.583  -0.038  0.00  0.00    +0.312 C 
ATOM      3  O   UNL     1       3.771   2.783  -0.049  0.00  0.00    -0.250 OA
BRANCH   2   4
ATOM      4  C   UNL     1       4.837   0.681  -0.048  0.00  0.00    +0.159 C 
BRANCH   4   5
ATOM      5  C   UNL     1       6.089   1.519  -0.070  0.00  0.00    +0.009 A 
ATOM      6  C   UNL     1       6.799   1.877  -1.148  0.00  0.00    +0.200 A 
ATOM      7  O   UNL     1       7.852   2.628  -0.781  0.00  0.00    -0.463 OA
ATOM      8  C   UNL     1       7.885   2.789   0.557  0.00  0.00    +0.135 A 
ATOM      9  C   UNL     1       6.780   2.102   1.087  0.00  0.00    +0.024 A 
ATOM     10  C   UNL     1       6.557   2.095   2.462  0.00  0.00    +0.015 A 
ATOM     11  C   UNL     1       7.424   2.763   3.302  0.00  0.00    -0.043 A 
ATOM     12  C   UNL     1       8.516   3.442   2.780  0.00  0.00    -0.041 A 
ATOM     13  C   UNL     1       8.746   3.455   1.418  0.00  0.00    +0.050 A 
ATOM     14  C   UNL     1       9.300   4.084   3.906  0.00  0.00    +0.036 C 
ATOM     15  C   UNL     1       8.829   3.366   5.189  0.00  0.00    +0.009 C 
ATOM     16  C   UNL     1       7.406   2.905   4.809  0.00  0.00    +0.036 C 
ENDBRANCH   4   5
ENDBRANCH   2   4
ENDBRANCH   1   2
BRANCH   1  17
ATOM     17  C   UNL     1       1.280   1.981  -0.011  0.00  0.00    +0.328 C 
BRANCH  17  19
ATOM     18  N   UNL     1      -1.191   1.868   0.016  0.00  0.00    -0.281 N 
ATOM     19  C   UNL     1      -0.015   1.210   0.011  0.00  0.00    +0.255 C 
ATOM     20  O   UNL     1       0.002  -0.003   0.019  0.00  0.00    -0.272 OA
ATOM     21  H   UNL     1      -1.208   2.964   0.100  0.00  0.00    +0.155 HD
BRANCH  18  24
ATOM     22  C   UNL     1      -3.597  -0.791  -0.799  0.00  0.00    +0.022 A 
ATOM     23  C   UNL     1      -2.411  -0.090  -0.700  0.00  0.00    +0.027 A 
ATOM     24  C   UNL     1      -2.392   1.155  -0.087  0.00  0.00    +0.064 A 
ATOM     25  C   UNL     1      -3.565   1.691   0.429  0.00  0.00    +0.149 A 
ATOM     26  C   UNL     1      -4.749   0.989   0.322  0.00  0.00    +0.054 A 
ATOM     27  C   UNL     1      -4.765  -0.253  -0.289  0.00  0.00    +0.043 A 
ATOM     28 CL   UNL     1      -6.254  -1.137  -0.415  0.00  0.00    -0.083 Cl
BRANCH  25  29
ATOM     29  N   UNL     1      -3.546   3.017   1.088  0.00  0.00    +0.058 N 
ATOM     30  O   UNL     1      -4.555   3.446   1.619  0.00  0.00    -0.126 OA
ATOM     31  O   UNL     1      -2.523   3.677   1.099  0.00  0.00    -0.126 OA
ENDBRANCH  25  29
ENDBRANCH  18  24
ENDBRANCH  17  19
ENDBRANCH   1  17
TORSDOF 7
