REMARK  Name = ZINC67253532
REMARK  9 active torsions:
REMARK  status: ('A' for Active; 'I' for Inactive)
REMARK    1  A    between atoms: C_1  and  C_2
REMARK    2  A    between atoms: C_2  and  C_3
REMARK    3  A    between atoms: C_8  and  N_9
REMARK    4  A    between atoms: N_12  and  C_13
REMARK    5  A    between atoms: C_13  and  C_15
REMARK    6  A    between atoms: C_13  and  C_16
REMARK    7  A    between atoms: C_20  and  S_22
REMARK    8  A    between atoms: S_22  and  N_25
REMARK    9  A    between atoms: N_25  and  C_26
REMARK                            x       y       z     vdW  Elec       q    Type
REMARK                         _______ _______ _______ _____ _____    ______ ____
ROOT
ATOM      1  N   UNL     1      -1.309  -0.339   2.505  0.00  0.00    -0.269 N 
ATOM      2  C   UNL     1      -1.990  -0.578   3.643  0.00  0.00    +0.304 C 
ATOM      3  O   UNL     1      -1.404  -0.981   4.629  0.00  0.00    -0.252 OA
ATOM      4  N   UNL     1      -3.321  -0.371   3.689  0.00  0.00    -0.293 N 
ATOM      5  H   UNL     1      -1.765   0.044   1.739  0.00  0.00    +0.156 HD
ATOM      6  H   UNL     1      -3.789  -0.050   2.902  0.00  0.00    +0.151 HD
ENDROOT
BRANCH   1  12
ATOM      7  C   UNL     1       0.600  -1.101   1.237  0.00  0.00    -0.026 A 
ATOM      8  C   UNL     1       1.947  -1.394   1.163  0.00  0.00    +0.005 A 
ATOM      9  C   UNL     1       2.753  -1.237   2.276  0.00  0.00    +0.000 A 
ATOM     10  C   UNL     1       2.212  -0.786   3.466  0.00  0.00    +0.002 A 
ATOM     11  C   UNL     1       0.865  -0.491   3.546  0.00  0.00    +0.023 A 
ATOM     12  C   UNL     1       0.055  -0.642   2.429  0.00  0.00    +0.038 A 
BRANCH   7  14
ATOM     13  C   UNL     1      -0.394   0.062  -0.715  0.00  0.00    +0.009 C 
ATOM     14  C   UNL     1      -0.277  -1.273   0.023  0.00  0.00    +0.033 C 
ENDBRANCH   7  14
ENDBRANCH   1  12
BRANCH   4  15
ATOM     15  C   UNL     1      -4.061  -0.631   4.926  0.00  0.00    +0.102 C 
ATOM     16  C   UNL     1      -3.987   0.598   5.833  0.00  0.00    +0.033 C 
BRANCH  15  17
ATOM     17  C   UNL     1      -5.502  -0.927   4.597  0.00  0.00    -0.026 A 
ATOM     18  C   UNL     1      -6.146  -0.207   3.607  0.00  0.00    +0.005 A 
ATOM     19  C   UNL     1      -7.468  -0.478   3.306  0.00  0.00    +0.002 A 
ATOM     20  C   UNL     1      -8.145  -1.469   3.993  0.00  0.00    +0.028 A 
ATOM     21  C   UNL     1      -7.500  -2.188   4.981  0.00  0.00    +0.106 A 
ATOM     22  C   UNL     1      -6.177  -1.920   5.280  0.00  0.00    +0.034 A 
BRANCH  21  23
ATOM     23  S   UNL     1      -8.363  -3.450   5.857  0.00  0.00    +0.058 S 
ATOM     24  O   UNL     1      -7.701  -3.604   7.105  0.00  0.00    -0.153 OA
ATOM     25  O   UNL     1      -9.746  -3.137   5.763  0.00  0.00    -0.153 OA
BRANCH  23  26
ATOM     26  N   UNL     1      -8.140  -4.864   5.025  0.00  0.00    -0.193 NA
ATOM     27  C   UNL     1      -6.800  -5.445   4.914  0.00  0.00    +0.127 C 
ATOM     28  H   UNL     1      -8.897  -5.308   4.611  0.00  0.00    +0.148 HD
ENDBRANCH  23  26
ENDBRANCH  21  23
ENDBRANCH  15  17
ENDBRANCH   4  15
TORSDOF 6
