REMARK  Name = ZINC02350053
REMARK  9 active torsions:
REMARK  status: ('A' for Active; 'I' for Inactive)
REMARK    1  A    between atoms: C_9  and  O_32
REMARK    2  A    between atoms: C_10  and  C_11
REMARK    3  A    between atoms: N_12  and  N_13
REMARK    4  A    between atoms: C_14  and  C_16
REMARK    5  A    between atoms: C_16  and  S_17
REMARK    6  A    between atoms: S_17  and  C_18
REMARK    7  A    between atoms: C_21  and  S_23
REMARK    8  A    between atoms: S_23  and  C_24
REMARK    9  A    between atoms: C_24  and  C_25
REMARK                            x       y       z     vdW  Elec       q    Type
REMARK                         _______ _______ _______ _____ _____    ______ ____
ROOT
ATOM      1  N   UNL     1       1.139   2.192   0.003  0.00  0.00    -0.206 N 
ATOM      2  C   UNL     1      -0.018   1.503   0.010  0.00  0.00    +0.242 C 
ATOM      3  O   UNL     1      -1.077   2.095   0.018  0.00  0.00    -0.273 OA
ATOM      4  H   UNL     1       1.986   1.719  -0.008  0.00  0.00    +0.177 HD
ENDROOT
BRANCH   1   6
ATOM      5  C   UNL     1       2.237   4.258   0.004  0.00  0.00    +0.142 C 
ATOM      6  N   UNL     1       1.121   3.593   0.011  0.00  0.00    -0.188 NA
BRANCH   5  16
ATOM      7  C   UNL     1       5.790   7.996  -0.011  0.00  0.00    +0.001 A 
ATOM      8  C   UNL     1       5.849   6.604  -0.019  0.00  0.00    +0.001 A 
ATOM      9  C   UNL     1       4.710   5.855  -0.012  0.00  0.00    +0.009 A 
ATOM     10  C   UNL     1       3.463   6.492   0.004  0.00  0.00    -0.006 A 
ATOM     11  C   UNL     1       3.400   7.907   0.012  0.00  0.00    -0.017 A 
ATOM     12  C   UNL     1       4.594   8.647   0.004  0.00  0.00    +0.008 A 
ATOM     13  C   UNL     1       2.147   8.544   0.027  0.00  0.00    +0.012 A 
ATOM     14  C   UNL     1       0.997   7.818   0.033  0.00  0.00    +0.046 A 
ATOM     15  C   UNL     1       1.008   6.424   0.021  0.00  0.00    +0.126 A 
ATOM     16  C   UNL     1       2.217   5.728   0.012  0.00  0.00    +0.044 A 
BRANCH  15  17
ATOM     17  O   UNL     1      -0.164   5.740   0.022  0.00  0.00    -0.506 OA
ATOM     18  H   UNL     1      -0.500   5.537   0.906  0.00  0.00    +0.292 HD
ENDBRANCH  15  17
ENDBRANCH   5  16
ENDBRANCH   1   6
BRANCH   2  19
ATOM     19  C   UNL     1       0.002  -0.004   0.002  0.00  0.00    +0.173 C 
BRANCH  19  20
ATOM     20  S   UNL     1      -1.700  -0.632   0.015  0.00  0.00    -0.088 S 
BRANCH  20  21
ATOM     21  C   UNL     1      -1.508  -2.383   0.004  0.00  0.00    +0.160 A 
ATOM     22  N   UNL     1      -0.403  -3.103  -0.010  0.00  0.00    -0.134 NA
ATOM     23  N   UNL     1      -0.480  -4.477  -0.017  0.00  0.00    -0.134 NA
ATOM     24  C   UNL     1      -1.660  -5.067  -0.009  0.00  0.00    +0.160 A 
ATOM     25  S   UNL     1      -2.758  -3.659   0.016  0.00  0.00    -0.033 S 
BRANCH  24  26
ATOM     26  S   UNL     1      -2.048  -6.786  -0.013  0.00  0.00    -0.092 S 
BRANCH  26  27
ATOM     27  C   UNL     1      -0.428  -7.602  -0.033  0.00  0.00    +0.113 C 
BRANCH  27  28
ATOM     28  C   UNL     1      -0.618  -9.097  -0.038  0.00  0.00    -0.019 A 
ATOM     29  C   UNL     1      -0.688  -9.789   1.156  0.00  0.00    +0.006 A 
ATOM     30  C   UNL     1      -0.867 -11.160   1.151  0.00  0.00    +0.000 A 
ATOM     31  C   UNL     1      -0.966 -11.840  -0.048  0.00  0.00    +0.001 A 
ATOM     32  C   UNL     1      -0.891 -11.150  -1.243  0.00  0.00    +0.020 A 
ATOM     33  C   UNL     1      -0.717  -9.777  -1.239  0.00  0.00    +0.045 A 
ATOM     34 CL   UNL     1      -0.622  -8.909  -2.739  0.00  0.00    -0.083 Cl
ENDBRANCH  27  28
ENDBRANCH  26  27
ENDBRANCH  24  26
ENDBRANCH  20  21
ENDBRANCH  19  20
ENDBRANCH   2  19
TORSDOF 9
