REMARK  Name = ZINC05741607
REMARK  7 active torsions:
REMARK  status: ('A' for Active; 'I' for Inactive)
REMARK    1  A    between atoms: C_1  and  C_2
REMARK    2  A    between atoms: N_12  and  C_13
REMARK    3  A    between atoms: C_16  and  N_19
REMARK    4  A    between atoms: N_19  and  C_20
REMARK    5  A    between atoms: C_22  and  O_32
REMARK    6  A    between atoms: C_24  and  O_31
REMARK    7  A    between atoms: C_26  and  O_30
REMARK                            x       y       z     vdW  Elec       q    Type
REMARK                         _______ _______ _______ _____ _____    ______ ____
ROOT
ATOM      1  C   UNL     1       0.139   0.157  -0.561  0.00  0.00    +0.051 A 
ATOM      2  C   UNL     1       0.076   1.532  -0.376  0.00  0.00    +0.028 A 
ATOM      3  C   UNL     1       1.218   2.238  -0.054  0.00  0.00    +0.025 A 
ATOM      4  C   UNL     1       2.430   1.574   0.084  0.00  0.00    +0.029 A 
ATOM      5  C   UNL     1       2.492   0.198  -0.101  0.00  0.00    +0.025 A 
ATOM      6  C   UNL     1       1.350  -0.507  -0.422  0.00  0.00    +0.028 A 
ENDROOT
BRANCH   1  18
ATOM      7  C   UNL     1      -0.014  -0.940  -3.102  0.00  0.00    +0.086 C 
ATOM      8  C   UNL     1      -1.144  -1.117  -2.121  0.00  0.00    +0.114 A 
ATOM      9  N   UNL     1      -2.183  -1.800  -2.495  0.00  0.00    -0.233 NA
ATOM     10  C   UNL     1      -3.240  -1.996  -1.668  0.00  0.00    +0.078 A 
ATOM     11  C   UNL     1      -4.361  -2.725  -2.073  0.00  0.00    +0.029 A 
ATOM     12  C   UNL     1      -5.412  -2.900  -1.202  0.00  0.00    +0.017 A 
ATOM     13  C   UNL     1      -5.373  -2.360   0.078  0.00  0.00    +0.019 A 
ATOM     14  C   UNL     1      -4.278  -1.637   0.500  0.00  0.00    +0.030 A 
ATOM     15  C   UNL     1      -3.204  -1.448  -0.367  0.00  0.00    +0.066 A 
ATOM     16  C   UNL     1      -2.010  -0.686   0.028  0.00  0.00    +0.266 A 
ATOM     17  O   UNL     1      -1.916  -0.188   1.135  0.00  0.00    -0.267 OA
ATOM     18  N   UNL     1      -1.021  -0.560  -0.887  0.00  0.00    -0.265 N 
ATOM     19 BR   UNL     1      -6.835  -2.618   1.250  0.00  0.00    -0.050 Br
ENDBRANCH   1  18
BRANCH   4  20
ATOM     20  N   UNL     1       3.586   2.289   0.409  0.00  0.00    -0.317 N 
ATOM     21  H   UNL     1       3.532   3.238   0.601  0.00  0.00    +0.149 HD
BRANCH  20  22
ATOM     22  C   UNL     1       4.881   1.604   0.460  0.00  0.00    +0.235 C 
ATOM     23  C   UNL     1       5.756   2.247   1.539  0.00  0.00    +0.192 C 
ATOM     24  C   UNL     1       7.128   1.566   1.545  0.00  0.00    +0.178 C 
ATOM     25  C   UNL     1       7.748   1.680   0.149  0.00  0.00    +0.171 C 
ATOM     26  C   UNL     1       6.796   1.060  -0.877  0.00  0.00    +0.196 C 
ATOM     27  O   UNL     1       5.530   1.718  -0.808  0.00  0.00    -0.354 OA
BRANCH  25  28
ATOM     28  O   UNL     1       7.960   3.058  -0.168  0.00  0.00    -0.387 OA
ATOM     29  H   UNL     1       8.347   3.205  -1.042  0.00  0.00    +0.210 HD
ENDBRANCH  25  28
BRANCH  24  30
ATOM     30  O   UNL     1       7.977   2.206   2.500  0.00  0.00    -0.386 OA
ATOM     31  H   UNL     1       8.866   1.828   2.551  0.00  0.00    +0.210 HD
ENDBRANCH  24  30
BRANCH  23  32
ATOM     32  O   UNL     1       5.136   2.083   2.816  0.00  0.00    -0.385 OA
ATOM     33  H   UNL     1       4.260   2.486   2.883  0.00  0.00    +0.210 HD
ENDBRANCH  23  32
ENDBRANCH  20  22
ENDBRANCH   4  20
TORSDOF 6
