REMARK  Name = ZINC40382860
REMARK  6 active torsions:
REMARK  status: ('A' for Active; 'I' for Inactive)
REMARK    1  A    between atoms: C_1  and  C_2
REMARK    2  A    between atoms: C_2  and  C_3
REMARK    3  A    between atoms: C_8  and  N_9
REMARK    4  A    between atoms: C_10  and  C_12
REMARK    5  A    between atoms: C_27  and  C_35
REMARK    6  A    between atoms: C_32  and  C_34
REMARK                            x       y       z     vdW  Elec       q    Type
REMARK                         _______ _______ _______ _____ _____    ______ ____
ROOT
ATOM      1  C   UNL     1       4.955  -0.198   1.192  0.00  0.00    +0.122 C 
ATOM      2  C   UNL     1       4.807   1.268   1.603  0.00  0.00    +0.114 C 
ATOM      3  C   UNL     1       5.592   2.140   0.659  0.00  0.00    +0.219 C 
ATOM      4  O   UNL     1       5.151   3.223   0.335  0.00  0.00    -0.275 OA
ATOM      5  N   UNL     1       6.777   1.732   0.173  0.00  0.00    -0.270 N 
ATOM      6  C   UNL     1       7.255   0.461   0.441  0.00  0.00    +0.138 A 
ATOM      7  C   UNL     1       6.407  -0.507   0.948  0.00  0.00    +0.069 A 
ATOM      8  C   UNL     1       6.918  -1.778   1.230  0.00  0.00    +0.258 A 
ATOM      9  O   UNL     1       6.199  -2.651   1.689  0.00  0.00    -0.267 OA
ATOM     10  N   UNL     1       8.224  -2.020   0.984  0.00  0.00    -0.295 N 
ATOM     11  H   UNL     1       8.602  -2.890   1.188  0.00  0.00    +0.172 HD
ATOM     12  C   UNL     1       9.009  -1.044   0.452  0.00  0.00    +0.200 A 
ATOM     13  N   UNL     1       8.532   0.153   0.188  0.00  0.00    -0.200 NA
ATOM     14  N   UNL     1      10.325  -1.315   0.185  0.00  0.00    -0.295 N 
ATOM     15  C   UNL     1      11.343  -1.189   1.236  0.00  0.00    +0.073 C 
ATOM     16  C   UNL     1      12.462  -0.272   0.732  0.00  0.00    +0.022 C 
ATOM     17  C   UNL     1      12.995  -0.809  -0.598  0.00  0.00    +0.004 C 
ATOM     18  C   UNL     1      11.870  -0.815  -1.636  0.00  0.00    +0.022 C 
ATOM     19  C   UNL     1      10.744  -1.743  -1.157  0.00  0.00    +0.073 C 
ATOM     20  C   UNL     1       9.557  -1.651  -2.118  0.00  0.00    +0.028 C 
ATOM     21  C   UNL     1      10.711  -0.588   2.493  0.00  0.00    +0.028 C 
ATOM     22  H   UNL     1       7.303   2.336  -0.373  0.00  0.00    +0.156 HD
ENDROOT
BRANCH   1  24
ATOM     23  N   UNL     1       2.838  -0.237  -0.088  0.00  0.00    -0.285 N 
ATOM     24  C   UNL     1       4.169  -0.447  -0.070  0.00  0.00    +0.225 C 
ATOM     25  O   UNL     1       4.735  -0.838  -1.069  0.00  0.00    -0.275 OA
ATOM     26  H   UNL     1       2.396   0.137   0.691  0.00  0.00    +0.155 HD
BRANCH  23  32
ATOM     27  C   UNL     1       0.800  -1.042  -1.102  0.00  0.00    -0.026 A 
ATOM     28  C   UNL     1       0.066  -1.351  -2.231  0.00  0.00    +0.005 A 
ATOM     29  C   UNL     1       0.622  -1.183  -3.486  0.00  0.00    +0.000 A 
ATOM     30  C   UNL     1       1.913  -0.705  -3.615  0.00  0.00    +0.002 A 
ATOM     31  C   UNL     1       2.652  -0.393  -2.491  0.00  0.00    +0.023 A 
ATOM     32  C   UNL     1       2.095  -0.556  -1.229  0.00  0.00    +0.037 A 
BRANCH  27  34
ATOM     33  C   UNL     1      -0.414   0.098   0.736  0.00  0.00    +0.009 C 
ATOM     34  C   UNL     1       0.194  -1.225   0.265  0.00  0.00    +0.033 C 
ENDBRANCH  27  34
ENDBRANCH  23  32
ENDBRANCH   1  24
TORSDOF 3
