REMARK  Name = ZINC44325752
REMARK  11 active torsions:
REMARK  status: ('A' for Active; 'I' for Inactive)
REMARK    1  A    between atoms: C_1  and  C_2
REMARK    2  A    between atoms: C_7  and  N_8
REMARK    3  A    between atoms: C_9  and  C_38
REMARK    4  A    between atoms: C_10  and  C_14
REMARK    5  A    between atoms: C_11  and  C_13
REMARK    6  A    between atoms: C_14  and  CA_15
REMARK    7  A    between atoms: CA_15  and  C_17
REMARK    8  A    between atoms: CA_15  and  N_20
REMARK    9  A    between atoms: C_21  and  O_23
REMARK   10  A    between atoms: O_23  and  C_24
REMARK   11  A    between atoms: C_24  and  C_25
REMARK                            x       y       z     vdW  Elec       q    Type
REMARK                         _______ _______ _______ _____ _____    ______ ____
ROOT
ATOM      1  CA  UNL     1       1.528   0.731   6.525  0.00  0.00    +0.193 C 
ENDROOT
BRANCH   1   2
ATOM      2  N   UNL     1       2.377  -0.382   6.093  0.00  0.00    -0.267 N 
ATOM      3  C   UNL     1       3.714  -0.226   6.030  0.00  0.00    +0.401 C 
ATOM      4  O   UNL     1       4.215   0.840   6.332  0.00  0.00    -0.226 OA
ATOM      5  H   UNL     1       1.976  -1.232   5.853  0.00  0.00    +0.153 HD
BRANCH   3   6
ATOM      6  O   UNL     1       4.494  -1.249   5.634  0.00  0.00    -0.449 OA
BRANCH   6   7
ATOM      7  C   UNL     1       5.902  -1.012   5.591  0.00  0.00    +0.246 C 
BRANCH   7   8
ATOM      8  C   UNL     1       6.618  -2.280   5.121  0.00  0.00    +0.088 C 
ATOM      9  C   UNL     1       6.296  -2.552   3.672  0.00  0.00    -0.029 A 
ATOM     10  C   UNL     1       5.108  -2.802   3.019  0.00  0.00    +0.005 A 
ATOM     11  C   UNL     1       5.101  -3.022   1.653  0.00  0.00    +0.000 A 
ATOM     12  C   UNL     1       6.286  -2.992   0.940  0.00  0.00    +0.001 A 
ATOM     13  C   UNL     1       7.479  -2.742   1.585  0.00  0.00    +0.009 A 
ATOM     14  C   UNL     1       7.494  -2.519   2.963  0.00  0.00    -0.014 A 
ATOM     15  C   UNL     1       8.612  -2.233   3.895  0.00  0.00    -0.014 A 
ATOM     16  C   UNL     1       8.114  -2.087   5.187  0.00  0.00    -0.029 A 
ATOM     17  C   UNL     1       8.966  -1.815   6.235  0.00  0.00    +0.005 A 
ATOM     18  C   UNL     1      10.325  -1.686   6.007  0.00  0.00    +0.000 A 
ATOM     19  C   UNL     1      10.830  -1.829   4.728  0.00  0.00    +0.001 A 
ATOM     20  C   UNL     1       9.984  -2.102   3.673  0.00  0.00    +0.009 A 
ENDBRANCH   7   8
ENDBRANCH   6   7
ENDBRANCH   3   6
ENDBRANCH   1   2
BRANCH   1  21
ATOM     21  C   UNL     1       1.451   0.751   8.030  0.00  0.00    +0.376 C 
ATOM     22  O   UNL     1       1.543  -0.290   8.658  0.00  0.00    -0.244 OA
ATOM     23  OXT UNL     1       1.298   1.807   8.618  0.00  0.00    -0.244 OA
ENDBRANCH   1  21
BRANCH   1  24
ATOM     24  C   UNL     1       0.123   0.556   5.945  0.00  0.00    +0.072 C 
BRANCH  24  27
ATOM     25  N   UNL     1       0.366   0.142   2.328  0.00  0.00    -0.236 N 
ATOM     26  C   UNL     1       0.378  -0.366   3.581  0.00  0.00    +0.045 A 
ATOM     27  C   UNL     1       0.183   0.660   4.442  0.00  0.00    -0.001 A 
ATOM     28  C   UNL     1       0.048   1.833   3.692  0.00  0.00    +0.064 A 
ATOM     29  N   UNL     1       0.163   1.524   2.425  0.00  0.00    -0.171 NA
ATOM     30  C   UNL     1      -0.183   3.215   4.247  0.00  0.00    +0.068 C 
ATOM     31  C   UNL     1       0.572  -1.813   3.952  0.00  0.00    +0.066 C 
BRANCH  25  38
ATOM     32  C   UNL     1      -1.478   0.585   0.205  0.00  0.00    +0.046 C 
ATOM     33  C   UNL     1      -0.344  -0.400   0.082  0.00  0.00    -0.025 A 
ATOM     34  C   UNL     1      -0.173  -1.114  -1.088  0.00  0.00    +0.005 A 
ATOM     35  C   UNL     1       0.867  -2.018  -1.202  0.00  0.00    +0.000 A 
ATOM     36  C   UNL     1       1.739  -2.210  -0.146  0.00  0.00    +0.002 A 
ATOM     37  C   UNL     1       1.573  -1.499   1.026  0.00  0.00    +0.028 A 
ATOM     38  C   UNL     1       0.533  -0.586   1.141  0.00  0.00    +0.069 A 
ENDBRANCH  25  38
ENDBRANCH  24  27
ENDBRANCH   1  24
TORSDOF 8
