REMARK  Name = ZINC36664751
REMARK  14 active torsions:
REMARK  status: ('A' for Active; 'I' for Inactive)
REMARK    1  A    between atoms: C_1  and  C_2
REMARK    2  A    between atoms: C_2  and  N_3
REMARK    3  A    between atoms: N_12  and  C_13
REMARK    4  A    between atoms: C_13  and  C_15
REMARK    5  A    between atoms: C_18  and  S_21
REMARK    6  A    between atoms: S_21  and  N_24
REMARK    7  A    between atoms: N_24  and  C_25
REMARK    8  A    between atoms: N_24  and  C_29
REMARK    9  A    between atoms: C_25  and  C_26
REMARK   10  A    between atoms: C_26  and  C_27
REMARK   11  A    between atoms: C_26  and  C_28
REMARK   12  A    between atoms: C_29  and  C_30
REMARK   13  A    between atoms: C_30  and  C_31
REMARK   14  A    between atoms: C_30  and  C_32
REMARK                            x       y       z     vdW  Elec       q    Type
REMARK                         _______ _______ _______ _____ _____    ______ ____
ROOT
ATOM      1  C   UNL     1       5.065  -2.575   1.177  0.00  0.00    +0.039 A 
ATOM      2  C   UNL     1       4.546  -1.856   2.254  0.00  0.00    +0.015 A 
ATOM      3  C   UNL     1       5.399  -1.207   3.122  0.00  0.00    +0.029 A 
ATOM      4  C   UNL     1       6.768  -1.268   2.926  0.00  0.00    +0.106 A 
ATOM      5  C   UNL     1       7.288  -1.979   1.859  0.00  0.00    +0.029 A 
ATOM      6  C   UNL     1       6.445  -2.638   0.988  0.00  0.00    +0.015 A 
ENDROOT
BRANCH   4   7
ATOM      7  S   UNL     1       7.851  -0.436   4.038  0.00  0.00    +0.061 S 
ATOM      8  O   UNL     1       9.056  -0.193   3.326  0.00  0.00    -0.153 OA
ATOM      9  O   UNL     1       7.096   0.609   4.636  0.00  0.00    -0.153 OA
BRANCH   7  10
ATOM     10  N   UNL     1       8.224  -1.503   5.249  0.00  0.00    -0.176 NA
BRANCH  10  11
ATOM     11  C   UNL     1       9.387  -2.383   5.117  0.00  0.00    +0.112 C 
BRANCH  11  12
ATOM     12  C   UNL     1      10.518  -1.872   6.013  0.00  0.00    -0.001 C 
ATOM     13  C   UNL     1      11.687  -2.858   5.971  0.00  0.00    +0.008 C 
ATOM     14  C   UNL     1      10.986  -0.504   5.512  0.00  0.00    +0.008 C 
ENDBRANCH  11  12
ENDBRANCH  10  11
BRANCH  10  15
ATOM     15  C   UNL     1       7.390  -1.566   6.452  0.00  0.00    +0.112 C 
BRANCH  15  16
ATOM     16  C   UNL     1       6.313  -2.638   6.270  0.00  0.00    -0.001 C 
ATOM     17  C   UNL     1       6.979  -4.006   6.104  0.00  0.00    +0.008 C 
ATOM     18  C   UNL     1       5.402  -2.660   7.499  0.00  0.00    +0.008 C 
ENDBRANCH  15  16
ENDBRANCH  10  15
ENDBRANCH   7  10
ENDBRANCH   4   7
BRANCH   1  19
ATOM     19  C   UNL     1       4.154  -3.275   0.242  0.00  0.00    +0.269 C 
ATOM     20  O   UNL     1       4.610  -3.907  -0.695  0.00  0.00    -0.268 OA
BRANCH  19  30
ATOM     21  N   UNL     1       0.658  -3.885  -0.378  0.00  0.00    -0.319 N 
ATOM     22  C   UNL     1      -0.033  -4.591  -1.348  0.00  0.00    +0.093 A 
ATOM     23  C   UNL     1      -1.417  -4.762  -1.503  0.00  0.00    +0.151 A 
ATOM     24  C   UNL     1      -1.919  -5.510  -2.545  0.00  0.00    +0.078 A 
ATOM     25  C   UNL     1      -1.076  -6.113  -3.466  0.00  0.00    +0.127 A 
ATOM     26  C   UNL     1       0.294  -5.958  -3.334  0.00  0.00    +0.055 A 
ATOM     27  C   UNL     1       0.796  -5.211  -2.294  0.00  0.00    +0.044 A 
ATOM     28  S   UNL     1       2.426  -4.763  -1.757  0.00  0.00    -0.052 S 
ATOM     29  C   UNL     1       2.014  -3.841  -0.414  0.00  0.00    +0.167 A 
ATOM     30  N   UNL     1       2.831  -3.214   0.425  0.00  0.00    -0.152 NA
ATOM     31  F   UNL     1      -1.586  -6.843  -4.482  0.00  0.00    -0.205 F 
ATOM     32  F   UNL     1      -2.265  -4.188  -0.622  0.00  0.00    -0.203 F 
BRANCH  21  34
ATOM     33  C   UNL     1      -0.387  -1.756   0.222  0.00  0.00    +0.027 C 
ATOM     34  C   UNL     1      -0.073  -3.182   0.679  0.00  0.00    +0.121 C 
ENDBRANCH  21  34
ENDBRANCH  19  30
ENDBRANCH   1  19
TORSDOF 9
