REMARK  Name = ZINC18580853
REMARK  10 active torsions:
REMARK  status: ('A' for Active; 'I' for Inactive)
REMARK    1  A    between atoms: C_1  and  C_2
REMARK    2  A    between atoms: C_2  and  C_3
REMARK    3  A    between atoms: C_3  and  C_5
REMARK    4  A    between atoms: C_3  and  C_6
REMARK    5  A    between atoms: C_6  and  C_7
REMARK    6  A    between atoms: C_8  and  C_35
REMARK    7  A    between atoms: C_16  and  S_18
REMARK    8  A    between atoms: S_18  and  C_19
REMARK    9  A    between atoms: C_19  and  C_21
REMARK   10  A    between atoms: C_19  and  C_22
REMARK                            x       y       z     vdW  Elec       q    Type
REMARK                         _______ _______ _______ _____ _____    ______ ____
ROOT
ATOM      1  C   UNL     1       3.758  -0.468  -0.036  0.00  0.00    -0.023 A 
ATOM      2  C   UNL     1       4.779   0.402  -0.041  0.00  0.00    -0.007 A 
ATOM      3  S   UNL     1       3.970   1.990  -0.025  0.00  0.00    -0.073 S 
ATOM      4  C   UNL     1       2.283   1.440  -0.012  0.00  0.00    +0.117 A 
ATOM      5  C   UNL     1       2.396   0.037  -0.021  0.00  0.00    +0.075 A 
ATOM      6  C   UNL     1       1.162  -0.686  -0.013  0.00  0.00    +0.261 A 
ATOM      7  O   UNL     1       1.161  -1.905  -0.020  0.00  0.00    -0.267 OA
ATOM      8  N   UNL     1       0.002  -0.004   0.002  0.00  0.00    -0.301 N 
ATOM      9  H   UNL     1      -0.837  -0.491   0.008  0.00  0.00    +0.171 HD
ATOM     10  C   UNL     1      -0.016   1.361   0.009  0.00  0.00    +0.171 A 
ATOM     11  N   UNL     1       1.105   2.052   0.003  0.00  0.00    -0.216 NA
ATOM     12  C   UNL     1       6.257   0.107  -0.056  0.00  0.00    +0.052 C 
ENDROOT
BRANCH   1  13
ATOM     13  C   UNL     1       4.021  -1.952  -0.046  0.00  0.00    +0.040 C 
BRANCH  13  14
ATOM     14  C   UNL     1       4.096  -2.447  -1.492  0.00  0.00    -0.010 C 
ATOM     15  C   UNL     1       5.306  -1.817  -2.184  0.00  0.00    +0.008 C 
BRANCH  14  17
ATOM     16  C   UNL     1       4.188  -4.477  -2.945  0.00  0.00    +0.004 C 
ATOM     17  C   UNL     1       4.238  -3.970  -1.503  0.00  0.00    +0.000 C 
ENDBRANCH  14  17
ENDBRANCH  13  14
ENDBRANCH   1  13
BRANCH  10  18
ATOM     18  S   UNL     1      -1.561   2.209   0.021  0.00  0.00    -0.075 S 
BRANCH  18  19
ATOM     19  C   UNL     1      -0.978   3.923   0.028  0.00  0.00    +0.137 C 
ATOM     20  C   UNL     1      -0.243   4.216  -1.281  0.00  0.00    +0.029 C 
BRANCH  19  21
ATOM     21  C   UNL     1      -2.156   4.853   0.162  0.00  0.00    +0.233 C 
ATOM     22  O   UNL     1      -3.271   4.464  -0.114  0.00  0.00    -0.274 OA
ATOM     23  N   UNL     1      -1.970   6.118   0.590  0.00  0.00    -0.260 N 
ATOM     24  C   UNL     1      -0.628   6.614   0.931  0.00  0.00    +0.209 C 
ATOM     25  C   UNL     1      -0.715   7.440   2.189  0.00  0.00    +0.235 C 
ATOM     26  O   UNL     1       0.243   7.504   2.930  0.00  0.00    -0.274 OA
ATOM     27  N   UNL     1      -1.843   8.107   2.500  0.00  0.00    -0.283 N 
ATOM     28  C   UNL     1      -2.978   8.009   1.688  0.00  0.00    +0.055 A 
ATOM     29  C   UNL     1      -3.050   7.005   0.718  0.00  0.00    +0.058 A 
ATOM     30  C   UNL     1      -4.165   6.894  -0.092  0.00  0.00    +0.025 A 
ATOM     31  C   UNL     1      -5.212   7.788   0.055  0.00  0.00    +0.002 A 
ATOM     32  C   UNL     1      -5.144   8.788   1.007  0.00  0.00    +0.002 A 
ATOM     33  C   UNL     1      -4.031   8.898   1.833  0.00  0.00    +0.025 A 
ATOM     34  H   UNL     1      -1.868   8.660   3.296  0.00  0.00    +0.155 HD
ENDBRANCH  19  21
ENDBRANCH  18  19
ENDBRANCH  10  18
TORSDOF 6
