REMARK  Name = ZINC05628455
REMARK  5 active torsions:
REMARK  status: ('A' for Active; 'I' for Inactive)
REMARK    1  A    between atoms: C_1  and  C_2
REMARK    2  A    between atoms: C_15  and  C_17
REMARK    3  A    between atoms: C_17  and  C_19
REMARK    4  A    between atoms: C_17  and  S_20
REMARK    5  A    between atoms: S_20  and  C_21
REMARK                            x       y       z     vdW  Elec       q    Type
REMARK                         _______ _______ _______ _____ _____    ______ ____
ROOT
ATOM      1  C   UNL     1      -0.019   1.526   0.010  0.00  0.00    +0.008 C 
ATOM      2  C   UNL     1       0.002  -0.004   0.002  0.00  0.00    -0.009 C 
ATOM      3  C   UNL     1       0.726  -0.501  -1.253  0.00  0.00    +0.008 C 
ATOM      4  C   UNL     1       0.536  -2.011  -1.397  0.00  0.00    +0.037 C 
ATOM      5  C   UNL     1       0.949  -2.688  -0.093  0.00  0.00    -0.023 A 
ATOM      6  C   UNL     1       1.031  -1.976   1.055  0.00  0.00    -0.004 A 
ATOM      7  S   UNL     1       1.537  -3.145   2.292  0.00  0.00    -0.073 S 
ATOM      8  C   UNL     1       1.637  -4.581   1.270  0.00  0.00    +0.116 A 
ATOM      9  C   UNL     1       1.271  -4.101  -0.007  0.00  0.00    +0.075 A 
ATOM     10  C   UNL     1       1.257  -5.054  -1.081  0.00  0.00    +0.260 A 
ATOM     11  O   UNL     1       0.955  -4.742  -2.220  0.00  0.00    -0.267 OA
ATOM     12  N   UNL     1       1.599  -6.321  -0.747  0.00  0.00    -0.309 N 
ATOM     13  H   UNL     1       1.603  -6.997  -1.443  0.00  0.00    +0.170 HD
ATOM     14  C   UNL     1       1.938  -6.688   0.512  0.00  0.00    +0.124 A 
ATOM     15  N   UNL     1       1.962  -5.845   1.522  0.00  0.00    -0.225 NA
ATOM     16  C   UNL     1       0.751  -0.516   1.241  0.00  0.00    +0.046 C 
ENDROOT
BRANCH  14  17
ATOM     17  C   UNL     1       2.301  -8.127   0.768  0.00  0.00    +0.117 C 
ATOM     18  C   UNL     1       1.067  -8.886   1.259  0.00  0.00    +0.027 C 
BRANCH  17  19
ATOM     19  S   UNL     1       3.602  -8.207   2.031  0.00  0.00    -0.077 S 
BRANCH  19  20
ATOM     20  C   UNL     1       4.016  -9.918   2.109  0.00  0.00    +0.168 A 
ATOM     21  N   UNL     1       4.957 -10.461   2.937  0.00  0.00    -0.333 N 
ATOM     22  H   UNL     1       5.507  -9.981   3.576  0.00  0.00    +0.168 HD
ATOM     23  C   UNL     1       4.979 -11.825   2.694  0.00  0.00    +0.067 A 
ATOM     24  C   UNL     1       5.711 -12.882   3.214  0.00  0.00    +0.028 A 
ATOM     25  C   UNL     1       5.494 -14.162   2.749  0.00  0.00    +0.002 A 
ATOM     26  C   UNL     1       4.547 -14.400   1.764  0.00  0.00    +0.002 A 
ATOM     27  C   UNL     1       3.811 -13.363   1.236  0.00  0.00    +0.030 A 
ATOM     28  C   UNL     1       4.019 -12.060   1.696  0.00  0.00    +0.090 A 
ATOM     29  N   UNL     1       3.463 -10.860   1.385  0.00  0.00    -0.222 NA
ENDBRANCH  19  20
ENDBRANCH  17  19
ENDBRANCH  14  17
TORSDOF 3
