REMARK  Name = ZINC14474326
REMARK  4 active torsions:
REMARK  status: ('A' for Active; 'I' for Inactive)
REMARK    1  A    between atoms: C_1  and  C_2
REMARK    2  A    between atoms: C_8  and  C_10
REMARK    3  A    between atoms: C_17  and  C_26
REMARK    4  A    between atoms: C_31  and  O_32
REMARK                            x       y       z     vdW  Elec       q    Type
REMARK                         _______ _______ _______ _____ _____    ______ ____
ROOT
ATOM      1  C   UNL     1       2.844   3.469  -0.366  0.00  0.00    +0.058 A 
ATOM      2  C   UNL     1       3.135   4.678  -0.996  0.00  0.00    +0.015 A 
ATOM      3  C   UNL     1       2.118   5.449  -1.515  0.00  0.00    +0.001 A 
ATOM      4  C   UNL     1       0.805   5.023  -1.403  0.00  0.00    +0.006 A 
ATOM      5  C   UNL     1       0.498   3.835  -0.777  0.00  0.00    -0.019 A 
ATOM      6  C   UNL     1       1.510   3.026  -0.253  0.00  0.00    +0.044 A 
ATOM      7  N   UNL     1       1.291   1.808   0.369  0.00  0.00    -0.336 N 
ATOM      8  C   UNL     1      -0.111   1.409   0.572  0.00  0.00    +0.108 C 
ATOM      9  C   UNL     1      -0.875   1.823  -0.669  0.00  0.00    +0.029 C 
ATOM     10  C   UNL     1      -0.901   3.382  -0.613  0.00  0.00    +0.049 C 
ATOM     11  C   UNL     1      -1.974   3.733  -1.575  0.00  0.00    -0.023 C 
ATOM     12  C   UNL     1      -2.849   2.734  -1.615  0.00  0.00    -0.030 C 
ATOM     13  C   UNL     1      -2.392   1.603  -0.690  0.00  0.00    +0.033 C 
ATOM     14  H   UNL     1       1.815   1.073  -0.081  0.00  0.00    +0.147 HD
ENDROOT
BRANCH   1  22
ATOM     15  C   UNL     1       6.591  -0.464  -3.417  0.00  0.00    +0.007 C 
ATOM     16  C   UNL     1       6.412   0.721  -2.466  0.00  0.00    -0.011 C 
ATOM     17  C   UNL     1       6.164   0.203  -1.048  0.00  0.00    +0.022 C 
ATOM     18  C   UNL     1       6.020   1.391  -0.092  0.00  0.00    +0.108 C 
ATOM     19  N   UNL     1       4.969   2.283  -0.601  0.00  0.00    -0.297 N 
ATOM     20  C   UNL     1       5.060   2.763  -1.987  0.00  0.00    +0.108 C 
ATOM     21  C   UNL     1       5.218   1.564  -2.920  0.00  0.00    +0.022 C 
ATOM     22  C   UNL     1       3.938   2.649   0.186  0.00  0.00    +0.248 C 
ATOM     23  O   UNL     1       3.910   2.303   1.351  0.00  0.00    -0.270 OA
ENDBRANCH   1  22
BRANCH   8  24
ATOM     24  C   UNL     1      -0.675   2.108   1.782  0.00  0.00    +0.014 A 
ATOM     25  C   UNL     1      -0.115   3.293   2.219  0.00  0.00    +0.009 A 
ATOM     26  C   UNL     1      -0.635   3.938   3.326  0.00  0.00    +0.001 A 
ATOM     27  C   UNL     1      -1.710   3.393   4.005  0.00  0.00    +0.004 A 
ATOM     28  C   UNL     1      -2.270   2.206   3.575  0.00  0.00    +0.046 A 
ATOM     29  C   UNL     1      -1.753   1.560   2.461  0.00  0.00    +0.122 A 
BRANCH  29  30
ATOM     30  O   UNL     1      -2.302   0.391   2.036  0.00  0.00    -0.506 OA
ATOM     31  H   UNL     1      -1.905  -0.397   2.432  0.00  0.00    +0.292 HD
ENDBRANCH  29  30
ENDBRANCH   8  24
TORSDOF 3
