REMARK  Name = ZINC22976785
REMARK  5 active torsions:
REMARK  status: ('A' for Active; 'I' for Inactive)
REMARK    1  A    between atoms: C_16  and  C_18
REMARK    2  A    between atoms: C_18  and  O_19
REMARK    3  A    between atoms: O_19  and  C_20
REMARK    4  A    between atoms: C_20  and  C_22
REMARK    5  A    between atoms: C_27  and  N_28
REMARK                            x       y       z     vdW  Elec       q    Type
REMARK                         _______ _______ _______ _____ _____    ______ ____
ROOT
ATOM      1  C   UNL     1      -0.611  -0.441  -1.800  0.00  0.00    +0.000 A 
ATOM      2  C   UNL     1      -1.927  -0.810  -1.586  0.00  0.00    +0.002 A 
ATOM      3  C   UNL     1      -2.865   0.168  -1.334  0.00  0.00    +0.024 A 
ATOM      4  C   UNL     1      -2.494   1.508  -1.282  0.00  0.00    +0.045 A 
ATOM      5  C   UNL     1      -1.174   1.887  -1.466  0.00  0.00    -0.025 A 
ATOM      6  C   UNL     1      -0.242   0.883  -1.741  0.00  0.00    +0.005 A 
ATOM      7  C   UNL     1      -0.592   3.278  -1.362  0.00  0.00    +0.042 C 
ATOM      8  C   UNL     1      -1.619   4.333  -0.991  0.00  0.00    +0.042 C 
ATOM      9  C   UNL     1      -2.696   4.444  -2.040  0.00  0.00    -0.025 A 
ATOM     10  C   UNL     1      -2.736   5.463  -2.964  0.00  0.00    +0.005 A 
ATOM     11  C   UNL     1      -3.793   5.508  -3.861  0.00  0.00    +0.000 A 
ATOM     12  C   UNL     1      -4.785   4.544  -3.824  0.00  0.00    +0.002 A 
ATOM     13  C   UNL     1      -4.728   3.514  -2.899  0.00  0.00    +0.024 A 
ATOM     14  C   UNL     1      -3.663   3.474  -2.016  0.00  0.00    +0.045 A 
ATOM     15  N   UNL     1      -3.500   2.459  -1.063  0.00  0.00    -0.237 N 
ATOM     16  C   UNL     1      -4.286   2.400   0.031  0.00  0.00    +0.262 C 
ATOM     17  O   UNL     1      -4.129   1.514   0.843  0.00  0.00    -0.271 OA
ENDROOT
BRANCH  16  18
ATOM     18  C   UNL     1      -5.361   3.436   0.243  0.00  0.00    +0.328 C 
BRANCH  18  19
ATOM     19  O   UNL     1      -6.064   3.156   1.482  0.00  0.00    -0.452 OA
BRANCH  19  20
ATOM     20  C   UNL     1      -7.063   3.995   1.822  0.00  0.00    +0.341 C 
ATOM     21  O   UNL     1      -7.338   4.934   1.102  0.00  0.00    -0.245 OA
BRANCH  20  22
ATOM     22  C   UNL     1      -7.820   3.773   3.064  0.00  0.00    +0.080 A 
ATOM     23  C   UNL     1      -7.428   2.769   3.957  0.00  0.00    +0.019 A 
ATOM     24  C   UNL     1      -8.139   2.566   5.117  0.00  0.00    +0.039 A 
ATOM     25  C   UNL     1      -9.247   3.353   5.408  0.00  0.00    +0.125 A 
ATOM     26  C   UNL     1      -9.646   4.349   4.536  0.00  0.00    +0.061 A 
ATOM     27  C   UNL     1      -8.936   4.571   3.364  0.00  0.00    +0.041 A 
ATOM     28  F   UNL     1      -9.938   3.144   6.550  0.00  0.00    -0.205 F 
BRANCH  27  29
ATOM     29  N   UNL     1      -9.331   5.574   2.488  0.00  0.00    -0.357 N 
ATOM     30  H   UNL     1     -10.206   6.198   2.725  0.00  0.00    +0.142 HD
ATOM     31  H   UNL     1      -8.770   5.745   1.558  0.00  0.00    +0.142 HD
ENDBRANCH  27  29
ENDBRANCH  20  22
ENDBRANCH  19  20
ENDBRANCH  18  19
ENDBRANCH  16  18
TORSDOF 5
