REMARK  Name = ZINC40367059
REMARK  5 active torsions:
REMARK  status: ('A' for Active; 'I' for Inactive)
REMARK    1  A    between atoms: C_1  and  C_2
REMARK    2  A    between atoms: N_8  and  S_9
REMARK    3  A    between atoms: S_9  and  N_12
REMARK    4  A    between atoms: N_12  and  C_13
REMARK    5  A    between atoms: C_13  and  C_21
REMARK                            x       y       z     vdW  Elec       q    Type
REMARK                         _______ _______ _______ _____ _____    ______ ____
ROOT
ATOM      1  N   UNL     1       0.390   1.160   3.597  0.00  0.00    -0.160 NA
ATOM      2  H   UNL     1       0.206   2.112   3.600  0.00  0.00    +0.151 HD
ENDROOT
BRANCH   1   3
ATOM      3  C   UNL     1       0.004   0.323   4.769  0.00  0.00    +0.127 C 
ATOM      4  C   UNL     1      -0.880  -0.792   4.219  0.00  0.00    +0.039 C 
ATOM      5  C   UNL     1      -1.411  -1.747   5.299  0.00  0.00    +0.003 C 
ATOM      6  C   UNL     1      -2.564  -1.026   6.029  0.00  0.00    +0.000 C 
ATOM      7  C   UNL     1      -2.191  -0.863   7.521  0.00  0.00    +0.000 C 
ATOM      8  C   UNL     1      -0.714  -0.450   7.634  0.00  0.00    +0.000 C 
ATOM      9  C   UNL     1      -0.523   0.998   7.194  0.00  0.00    +0.003 C 
ATOM     10  C   UNL     1      -0.751   1.233   5.718  0.00  0.00    +0.039 C 
BRANCH   3  11
ATOM     11  C   UNL     1       1.257  -0.195   5.323  0.00  0.00    +0.086 C 
ATOM     12  N   UNL     1       2.229  -0.596   5.753  0.00  0.00    -0.195 NA
ENDBRANCH   3  11
ENDBRANCH   1   3
BRANCH   1  13
ATOM     13  S   UNL     1       1.134   0.464   2.292  0.00  0.00    +0.099 S 
ATOM     14  O   UNL     1       1.529   1.526   1.435  0.00  0.00    -0.141 OA
ATOM     15  O   UNL     1       0.288  -0.592   1.857  0.00  0.00    -0.141 OA
BRANCH  13  22
ATOM     16  C   UNL     1       3.426   2.037   2.828  0.00  0.00    +0.026 C 
ATOM     17  C   UNL     1       3.691   0.577   3.202  0.00  0.00    +0.078 C 
ATOM     18  C   UNL     1       4.915   0.066   2.436  0.00  0.00    +0.020 C 
ATOM     19  C   UNL     1       5.093  -1.430   2.707  0.00  0.00    +0.003 C 
ATOM     20  C   UNL     1       3.860  -2.190   2.211  0.00  0.00    +0.017 C 
ATOM     21  C   UNL     1       2.624  -1.704   2.975  0.00  0.00    +0.111 C 
ATOM     22  N   UNL     1       2.527  -0.243   2.842  0.00  0.00    -0.164 NA
ENDBRANCH  13  22
ENDBRANCH   1  13
TORSDOF 4
