REMARK  Name = ZINC03330678
REMARK  13 active torsions:
REMARK  status: ('A' for Active; 'I' for Inactive)
REMARK    1  A    between atoms: C_1  and  C_2
REMARK    2  A    between atoms: C_5  and  N_8
REMARK    3  A    between atoms: C_12  and  C_13
REMARK    4  A    between atoms: C_16  and  C_19
REMARK    5  A    between atoms: C_19  and  C_20
REMARK    6  A    between atoms: C_19  and  C_21
REMARK    7  A    between atoms: C_23  and  S_24
REMARK    8  A    between atoms: S_24  and  C_25
REMARK    9  A    between atoms: C_25  and  C_26
REMARK   10  A    between atoms: C_26  and  C_28
REMARK   11  A    between atoms: C_29  and  N_38
REMARK   12  A    between atoms: N_30  and  C_37
REMARK   13  A    between atoms: N_33  and  C_36
REMARK                            x       y       z     vdW  Elec       q    Type
REMARK                         _______ _______ _______ _____ _____    ______ ____
ROOT
ATOM      1  N   UNL     1       0.284  -3.839  -0.887  0.00  0.00    -0.214 N 
ATOM      2  C   UNL     1       0.189  -4.495  -2.064  0.00  0.00    +0.275 C 
ATOM      3  O   UNL     1       0.056  -4.007  -3.171  0.00  0.00    -0.268 OA
ATOM      4  C   UNL     1       0.281  -5.929  -1.724  0.00  0.00    +0.129 C 
ATOM      5  C   UNL     1       0.234  -6.984  -2.589  0.00  0.00    +0.041 C 
ATOM      6  N   UNL     1       0.423  -5.984  -0.367  0.00  0.00    -0.220 NA
ATOM      7  C   UNL     1       0.430  -4.768   0.115  0.00  0.00    +0.169 C 
ENDROOT
BRANCH   1  12
ATOM      8  C   UNL     1       0.134   1.793  -0.201  0.00  0.00    +0.044 C 
ATOM      9  C   UNL     1       0.174   0.297  -0.383  0.00  0.00    -0.050 A 
ATOM     10  C   UNL     1       1.262  -0.425   0.072  0.00  0.00    +0.005 A 
ATOM     11  C   UNL     1       1.301  -1.795  -0.093  0.00  0.00    +0.024 A 
ATOM     12  C   UNL     1       0.247  -2.448  -0.717  0.00  0.00    +0.044 A 
ATOM     13  C   UNL     1      -0.844  -1.721  -1.174  0.00  0.00    +0.024 A 
ATOM     14  C   UNL     1      -0.880  -0.351  -1.001  0.00  0.00    +0.005 A 
ENDBRANCH   1  12
BRANCH   5  15
ATOM     15  C   UNL     1       0.189  -8.356  -2.071  0.00  0.00    -0.023 A 
ATOM     16  C   UNL     1       0.053  -8.586  -0.696  0.00  0.00    +0.008 A 
ATOM     17  C   UNL     1       0.012  -9.878  -0.218  0.00  0.00    +0.004 A 
ATOM     18  C   UNL     1       0.104 -10.947  -1.093  0.00  0.00    -0.045 A 
ATOM     19  C   UNL     1       0.238 -10.729  -2.454  0.00  0.00    +0.004 A 
ATOM     20  C   UNL     1       0.275  -9.444  -2.949  0.00  0.00    +0.008 A 
BRANCH  18  21
ATOM     21  C   UNL     1       0.058 -12.356  -0.561  0.00  0.00    +0.013 C 
ATOM     22  C   UNL     1      -1.133 -13.095  -1.176  0.00  0.00    +0.012 C 
ATOM     23  C   UNL     1       1.353 -13.083  -0.928  0.00  0.00    +0.012 C 
ENDBRANCH  18  21
ENDBRANCH   5  15
BRANCH   7  24
ATOM     24  S   UNL     1       0.598  -4.373   1.824  0.00  0.00    -0.082 S 
BRANCH  24  25
ATOM     25  C   UNL     1       0.751  -5.989   2.635  0.00  0.00    +0.157 C 
BRANCH  25  26
ATOM     26  C   UNL     1       0.903  -5.793   4.121  0.00  0.00    +0.182 C 
ATOM     27  O   UNL     1       0.908  -4.672   4.588  0.00  0.00    -0.291 OA
BRANCH  26  28
ATOM     28  C   UNL     1       1.040  -6.912   4.970  0.00  0.00    +0.120 A 
ATOM     29  C   UNL     1       1.307  -6.754   6.341  0.00  0.00    +0.116 A 
ATOM     30  N   UNL     1       1.430  -7.867   7.122  0.00  0.00    -0.284 N 
ATOM     31  C   UNL     1       1.302  -9.100   6.606  0.00  0.00    +0.333 A 
ATOM     32  O   UNL     1       1.421 -10.059   7.344  0.00  0.00    -0.246 OA
ATOM     33  N   UNL     1       1.047  -9.312   5.305  0.00  0.00    -0.263 N 
ATOM     34  C   UNL     1       0.901  -8.279   4.451  0.00  0.00    +0.269 A 
ATOM     35  O   UNL     1       0.665  -8.475   3.273  0.00  0.00    -0.267 OA
ATOM     36  C   UNL     1       0.919 -10.685   4.809  0.00  0.00    +0.157 C 
ATOM     37  C   UNL     1       1.709  -7.713   8.553  0.00  0.00    +0.155 C 
BRANCH  29  38
ATOM     38  N   UNL     1       1.441  -5.513   6.881  0.00  0.00    -0.344 N 
ATOM     39  H   UNL     1       1.270  -4.727   6.338  0.00  0.00    +0.144 HD
ATOM     40  H   UNL     1       1.707  -5.413   7.808  0.00  0.00    +0.144 HD
ENDBRANCH  29  38
ENDBRANCH  26  28
ENDBRANCH  25  26
ENDBRANCH  24  25
ENDBRANCH   7  24
TORSDOF 8
