REMARK  Name = ZINC39762001
REMARK  15 active torsions:
REMARK  status: ('A' for Active; 'I' for Inactive)
REMARK    1  A    between atoms: C_1  and  C_2
REMARK    2  A    between atoms: C_5  and  N_8
REMARK    3  A    between atoms: C_9  and  C_11
REMARK    4  A    between atoms: C_11  and  C_13
REMARK    5  A    between atoms: C_11  and  S_14
REMARK    6  A    between atoms: S_14  and  C_15
REMARK    7  A    between atoms: C_18  and  CA_24
REMARK    8  A    between atoms: N_19  and  C_20
REMARK    9  A    between atoms: C_20  and  C_21
REMARK   10  A    between atoms: C_21  and  C_22
REMARK   11  A    between atoms: C_21  and  C_23
REMARK   12  A    between atoms: CA_24  and  C_26
REMARK   13  A    between atoms: CA_24  and  N_28
REMARK   14  A    between atoms: C_26  and  O_27
REMARK   15  A    between atoms: C_29  and  C_31
REMARK                            x       y       z     vdW  Elec       q    Type
REMARK                         _______ _______ _______ _____ _____    ______ ____
ROOT
ATOM      1  C   UNL     1       1.168  -7.977   2.575  0.00  0.00    +0.192 A 
ATOM      2  N   UNL     1       0.989  -8.487   1.379  0.00  0.00    -0.122 NA
ATOM      3  N   UNL     1       1.222  -9.751   1.404  0.00  0.00    -0.131 NA
ATOM      4  C   UNL     1       1.560 -10.120   2.607  0.00  0.00    +0.157 A 
ATOM      5  N   UNL     1       1.543  -9.002   3.395  0.00  0.00    -0.304 N 
ENDROOT
BRANCH   1   6
ATOM      6  S   UNL     1       0.969  -6.287   3.034  0.00  0.00    -0.074 S 
BRANCH   6   7
ATOM      7  C   UNL     1       0.465  -5.471   1.495  0.00  0.00    +0.137 C 
ATOM      8  C   UNL     1      -0.903  -6.002   1.060  0.00  0.00    +0.029 C 
BRANCH   7  10
ATOM      9  N   UNL     1       0.420  -3.139   0.671  0.00  0.00    -0.285 N 
ATOM     10  C   UNL     1       0.377  -3.983   1.721  0.00  0.00    +0.230 C 
ATOM     11  O   UNL     1       0.267  -3.546   2.847  0.00  0.00    -0.274 OA
ATOM     12  H   UNL     1       0.432  -3.489  -0.233  0.00  0.00    +0.155 HD
BRANCH   9  17
ATOM     13  C   UNL     1       0.535   2.466   1.542  0.00  0.00    +0.044 C 
ATOM     14  C   UNL     1       0.504   0.977   1.311  0.00  0.00    -0.050 A 
ATOM     15  C   UNL     1       1.122   0.126   2.210  0.00  0.00    +0.005 A 
ATOM     16  C   UNL     1       1.095  -1.239   2.000  0.00  0.00    +0.023 A 
ATOM     17  C   UNL     1       0.448  -1.757   0.886  0.00  0.00    +0.033 A 
ATOM     18  C   UNL     1      -0.171  -0.900  -0.014  0.00  0.00    +0.023 A 
ATOM     19  C   UNL     1      -0.146   0.464   0.204  0.00  0.00    +0.005 A 
ENDBRANCH   9  17
ENDBRANCH   7  10
ENDBRANCH   6   7
ENDBRANCH   1   6
BRANCH   5  20
ATOM     20  C   UNL     1       1.860  -8.922   4.824  0.00  0.00    +0.128 C 
BRANCH  20  21
ATOM     21  C   UNL     1       3.372  -8.779   5.004  0.00  0.00    +0.003 C 
ATOM     22  C   UNL     1       3.828  -7.433   4.437  0.00  0.00    +0.009 C 
ATOM     23  C   UNL     1       3.717  -8.848   6.493  0.00  0.00    +0.009 C 
ENDBRANCH  20  21
ENDBRANCH   5  20
BRANCH   4  24
ATOM     24  CA  UNL     1       1.910 -11.518   3.047  0.00  0.00    +0.167 C 
BRANCH  24  25
ATOM     25  N   UNL     1       2.861 -12.104   2.100  0.00  0.00    -0.299 N 
ATOM     26  C   UNL     1       3.691 -13.088   2.500  0.00  0.00    +0.245 C 
ATOM     27  O   UNL     1       3.651 -13.488   3.647  0.00  0.00    -0.270 OA
ATOM     28  H   UNL     1       2.892 -11.785   1.184  0.00  0.00    +0.150 HD
BRANCH  26  29
ATOM     29  C   UNL     1       4.650 -13.679   1.544  0.00  0.00    +0.037 A 
ATOM     30  C   UNL     1       4.702 -13.218   0.227  0.00  0.00    +0.014 A 
ATOM     31  C   UNL     1       5.599 -13.774  -0.660  0.00  0.00    +0.021 A 
ATOM     32  C   UNL     1       6.448 -14.788  -0.248  0.00  0.00    +0.041 A 
ATOM     33  C   UNL     1       6.401 -15.250   1.057  0.00  0.00    +0.021 A 
ATOM     34  C   UNL     1       5.512 -14.698   1.955  0.00  0.00    +0.014 A 
ATOM     35 CL   UNL     1       7.574 -15.483  -1.371  0.00  0.00    -0.084 Cl
ENDBRANCH  26  29
ENDBRANCH  24  25
BRANCH  24  36
ATOM     36  C   UNL     1       0.641 -12.371   3.091  0.00  0.00    +0.186 C 
BRANCH  36  37
ATOM     37  O   UNL     1      -0.009 -12.325   1.819  0.00  0.00    -0.393 OA
ATOM     38  H   UNL     1      -0.822 -12.845   1.774  0.00  0.00    +0.209 HD
ENDBRANCH  36  37
ENDBRANCH  24  36
ENDBRANCH   4  24
TORSDOF 11
