REMARK  Name = ZINC45245377
REMARK  3 active torsions:
REMARK  status: ('A' for Active; 'I' for Inactive)
REMARK    1  A    between atoms: C_3  and  C_28
REMARK    2  A    between atoms: C_5  and  C_7
REMARK    3  A    between atoms: C_7  and  C_17
REMARK                            x       y       z     vdW  Elec       q    Type
REMARK                         _______ _______ _______ _____ _____    ______ ____
ROOT
ATOM      1  C   UNL     1       1.219  -2.192  -0.022  0.00  0.00    +0.168 C 
ATOM      2  C   UNL     1       0.377  -2.986   0.941  0.00  0.00    +0.114 C 
ATOM      3  N   UNL     1      -0.897  -3.138   0.999  0.00  0.00    -0.373 N 
ATOM      4  C   UNL     1      -1.474  -3.961   2.070  0.00  0.00    +0.115 C 
ATOM      5  C   UNL     1      -0.504  -5.076   2.465  0.00  0.00    +0.040 C 
ATOM      6  C   UNL     1       0.839  -4.467   2.895  0.00  0.00    +0.116 C 
ATOM      7  N   UNL     1       1.277  -3.572   1.813  0.00  0.00    -0.261 N 
ATOM      8  C   UNL     1       2.549  -3.193   1.489  0.00  0.00    +0.182 C 
ATOM      9  N   UNL     1       2.597  -2.409   0.454  0.00  0.00    -0.232 NA
ATOM     10  N   UNL     1       3.662  -3.598   2.186  0.00  0.00    -0.331 N 
ATOM     11  H   UNL     1       3.567  -4.185   2.953  0.00  0.00    +0.145 HD
ATOM     12  H   UNL     1       4.543  -3.298   1.911  0.00  0.00    +0.145 HD
ATOM     13  H   UNL     1      -1.473  -2.714   0.343  0.00  0.00    +0.161 HD
ENDROOT
BRANCH   1  14
ATOM     14  C   UNL     1       1.056  -2.712  -1.426  0.00  0.00    -0.005 A 
ATOM     15  C   UNL     1      -0.209  -2.858  -1.965  0.00  0.00    +0.010 A 
ATOM     16  C   UNL     1      -0.364  -3.335  -3.253  0.00  0.00    +0.050 A 
ATOM     17  C   UNL     1       0.749  -3.669  -4.008  0.00  0.00    +0.173 A 
ATOM     18  C   UNL     1       2.023  -3.522  -3.465  0.00  0.00    +0.173 A 
ATOM     19  C   UNL     1       2.171  -3.038  -2.175  0.00  0.00    +0.056 A 
ATOM     20  O   UNL     1       2.942  -3.914  -4.396  0.00  0.00    -0.395 OA
ATOM     21  C   UNL     1       2.204  -4.685  -5.362  0.00  0.00    +0.589 C 
ATOM     22  O   UNL     1       0.869  -4.152  -5.279  0.00  0.00    -0.395 OA
ATOM     23  F   UNL     1       2.215  -6.042  -5.021  0.00  0.00    -0.125 F 
ATOM     24  F   UNL     1       2.729  -4.496  -6.645  0.00  0.00    -0.125 F 
ENDBRANCH   1  14
BRANCH   1  29
ATOM     25  C   UNL     1       1.524   1.557   0.342  0.00  0.00    +0.001 A 
ATOM     26  C   UNL     1       0.217   1.965   0.168  0.00  0.00    +0.008 A 
ATOM     27  C   UNL     1      -0.779   1.020  -0.071  0.00  0.00    -0.013 A 
ATOM     28  C   UNL     1      -0.449  -0.332  -0.132  0.00  0.00    +0.015 A 
ATOM     29  C   UNL     1       0.861  -0.729   0.044  0.00  0.00    -0.008 A 
ATOM     30  C   UNL     1       1.846   0.213   0.281  0.00  0.00    +0.007 A 
BRANCH  27  31
ATOM     31  C   UNL     1      -2.186   1.453  -0.259  0.00  0.00    +0.036 A 
ATOM     32  C   UNL     1      -2.788   2.325   0.651  0.00  0.00    +0.014 A 
ATOM     33  C   UNL     1      -4.103   2.699   0.431  0.00  0.00    +0.020 A 
ATOM     34  C   UNL     1      -4.773   2.203  -0.671  0.00  0.00    +0.114 A 
ATOM     35  N   UNL     1      -4.180   1.380  -1.515  0.00  0.00    -0.227 NA
ATOM     36  C   UNL     1      -2.928   1.000  -1.352  0.00  0.00    +0.221 A 
ATOM     37  F   UNL     1      -2.360   0.161  -2.246  0.00  0.00    -0.183 F 
ENDBRANCH  27  31
ENDBRANCH   1  29
TORSDOF 3
