REMARK  Name = ZINC15044243
REMARK  8 active torsions:
REMARK  status: ('A' for Active; 'I' for Inactive)
REMARK    1  A    between atoms: C_4  and  O_29
REMARK    2  A    between atoms: C_5  and  N_7
REMARK    3  A    between atoms: C_8  and  C_10
REMARK    4  A    between atoms: C_15  and  C_16
REMARK    5  A    between atoms: C_15  and  N_53
REMARK    6  A    between atoms: N_18  and  C_19
REMARK    7  A    between atoms: C_24  and  S_25
REMARK    8  A    between atoms: S_25  and  C_26
REMARK                            x       y       z     vdW  Elec       q    Type
REMARK                         _______ _______ _______ _____ _____    ______ ____
ROOT
ATOM      1  C   UNL     1      -8.375  -2.166  -1.369  0.00  0.00    +0.072 C 
ATOM      2  C   UNL     1      -8.410  -1.337  -0.082  0.00  0.00    -0.006 C 
ATOM      3  C   UNL     1      -7.308  -0.277  -0.133  0.00  0.00    -0.077 C 
ATOM      4  C   UNL     1      -5.928  -1.696  -1.531  0.00  0.00    -0.077 C 
ATOM      5  C   UNL     1      -6.989  -2.799  -1.521  0.00  0.00    -0.006 C 
ATOM      6  N   UNL     1      -5.998  -0.951  -0.256  0.00  0.00    +0.385 N 
ATOM      7  H   UNL     1      -5.891  -1.613   0.522  0.00  0.00    -0.081 HD
ENDROOT
BRANCH   1   9
ATOM      8  N   UNL     1      -9.570  -4.108  -2.328  0.00  0.00    -0.282 N 
ATOM      9  C   UNL     1      -9.419  -3.250  -1.299  0.00  0.00    +0.220 C 
ATOM     10  O   UNL     1     -10.123  -3.352  -0.316  0.00  0.00    -0.275 OA
ATOM     11  H   UNL     1      -8.956  -4.079  -3.078  0.00  0.00    +0.155 HD
BRANCH   8  16
ATOM     12  C   UNL     1     -12.791  -5.713  -1.561  0.00  0.00    +0.002 A 
ATOM     13  C   UNL     1     -12.683  -6.885  -2.287  0.00  0.00    +0.004 A 
ATOM     14  C   UNL     1     -11.544  -7.140  -3.028  0.00  0.00    +0.047 A 
ATOM     15  C   UNL     1     -10.509  -6.219  -3.050  0.00  0.00    +0.138 A 
ATOM     16  C   UNL     1     -10.616  -5.041  -2.314  0.00  0.00    +0.075 A 
ATOM     17  C   UNL     1     -11.761  -4.791  -1.573  0.00  0.00    +0.027 A 
BRANCH  15  18
ATOM     18  O   UNL     1      -9.392  -6.466  -3.783  0.00  0.00    -0.505 OA
ATOM     19  H   UNL     1      -8.700  -6.939  -3.299  0.00  0.00    +0.292 HD
ENDBRANCH  15  18
ENDBRANCH   8  16
ENDBRANCH   1   9
BRANCH   6  20
ATOM     20  C   UNL     1      -4.910   0.045  -0.193  0.00  0.00    +0.019 C 
BRANCH  20  21
ATOM     21  C   UNL     1      -3.592  -0.680  -0.099  0.00  0.00    +0.201 C 
ATOM     22  O   UNL     1      -3.566  -1.893  -0.103  0.00  0.00    -0.278 OA
ATOM     23  N   UNL     1      -2.443   0.018  -0.010  0.00  0.00    -0.286 N 
ATOM     24  H   UNL     1      -2.467   0.985   0.063  0.00  0.00    +0.155 HD
BRANCH  23  25
ATOM     25  C   UNL     1      -1.213  -0.653  -0.023  0.00  0.00    +0.047 A 
ATOM     26  C   UNL     1      -1.093  -1.899   0.573  0.00  0.00    +0.024 A 
ATOM     27  C   UNL     1       0.121  -2.559   0.558  0.00  0.00    +0.002 A 
ATOM     28  C   UNL     1       1.220  -1.980  -0.050  0.00  0.00    +0.001 A 
ATOM     29  C   UNL     1       1.110  -0.741  -0.652  0.00  0.00    +0.017 A 
ATOM     30  C   UNL     1      -0.104  -0.069  -0.637  0.00  0.00    +0.034 A 
BRANCH  30  31
ATOM     31  S   UNL     1      -0.246   1.515  -1.397  0.00  0.00    -0.054 S 
BRANCH  31  32
ATOM     32  C   UNL     1       1.417   1.844  -2.041  0.00  0.00    +0.404 C 
ATOM     33  F   UNL     1       2.334   1.847  -0.984  0.00  0.00    -0.197 F 
ATOM     34  F   UNL     1       1.767   0.848  -2.959  0.00  0.00    -0.197 F 
ENDBRANCH  31  32
ENDBRANCH  30  31
ENDBRANCH  23  25
ENDBRANCH  20  21
ENDBRANCH   6  20
TORSDOF 8
