REMARK  Name = ZINC14457155
REMARK  10 active torsions:
REMARK  status: ('A' for Active; 'I' for Inactive)
REMARK    1  A    between atoms: C_1  and  C_2
REMARK    2  A    between atoms: C_2  and  O_3
REMARK    3  A    between atoms: O_3  and  C_4
REMARK    4  A    between atoms: C_7  and  N_10
REMARK    5  A    between atoms: N_10  and  S_11
REMARK    6  A    between atoms: S_11  and  C_14
REMARK    7  A    between atoms: C_27  and  C_30
REMARK    8  A    between atoms: C_33  and  O_37
REMARK    9  A    between atoms: C_34  and  O_36
REMARK   10  A    between atoms: O_37  and  C_38
REMARK                            x       y       z     vdW  Elec       q    Type
REMARK                         _______ _______ _______ _____ _____    ______ ____
ROOT
ATOM      1  C   UNL     1      -1.290   2.591  -3.296  0.00  0.00    +0.109 A 
ATOM      2  C   UNL     1      -2.660   2.562  -3.108  0.00  0.00    +0.030 A 
ATOM      3  C   UNL     1      -3.179   1.933  -2.025  0.00  0.00    +0.025 A 
ATOM      4  C   UNL     1      -2.352   1.381  -1.055  0.00  0.00    +0.031 A 
ATOM      5  C   UNL     1      -0.973   1.429  -1.226  0.00  0.00    -0.018 A 
ATOM      6  C   UNL     1      -0.451   2.024  -2.355  0.00  0.00    +0.034 A 
ATOM      7  C   UNL     1      -0.121   0.793  -0.198  0.00  0.00    +0.049 C 
ATOM      8  C   UNL     1       1.278   1.228   0.043  0.00  0.00    -0.023 C 
ATOM      9  C   UNL     1       1.560   1.057   1.329  0.00  0.00    -0.030 C 
ATOM     10  C   UNL     1       0.332   0.515   2.065  0.00  0.00    +0.033 C 
ATOM     11  C   UNL     1      -0.811   1.028   1.179  0.00  0.00    +0.029 C 
ATOM     12  C   UNL     1      -2.082   0.199   1.141  0.00  0.00    +0.105 C 
ATOM     13  N   UNL     1      -2.923   0.807   0.087  0.00  0.00    -0.336 N 
ATOM     14  H   UNL     1      -3.888   0.808   0.189  0.00  0.00    +0.147 HD
ENDROOT
BRANCH  12  15
ATOM     15  C   UNL     1      -1.760  -1.231   0.790  0.00  0.00    -0.023 A 
ATOM     16  C   UNL     1      -1.450  -2.134   1.790  0.00  0.00    +0.009 A 
ATOM     17  C   UNL     1      -1.155  -3.446   1.473  0.00  0.00    +0.050 A 
ATOM     18  C   UNL     1      -1.170  -3.860   0.151  0.00  0.00    +0.161 A 
ATOM     19  C   UNL     1      -1.482  -2.952  -0.856  0.00  0.00    +0.159 A 
ATOM     20  C   UNL     1      -1.783  -1.639  -0.531  0.00  0.00    +0.054 A 
BRANCH  19  21
ATOM     21  O   UNL     1      -1.499  -3.353  -2.155  0.00  0.00    -0.503 OA
ATOM     22  H   UNL     1      -2.358  -3.679  -2.455  0.00  0.00    +0.292 HD
ENDBRANCH  19  21
BRANCH  18  23
ATOM     23  O   UNL     1      -0.880  -5.152  -0.163  0.00  0.00    -0.491 OA
ATOM     24  C   UNL     1      -0.569  -6.028   0.922  0.00  0.00    +0.277 C 
ENDBRANCH  18  23
ENDBRANCH  12  15
BRANCH   1  25
ATOM     25  S   UNL     1      -0.615   3.349  -4.736  0.00  0.00    +0.072 S 
ATOM     26  O   UNL     1      -1.536   4.355  -5.135  0.00  0.00    -0.150 OA
ATOM     27  O   UNL     1       0.746   3.635  -4.444  0.00  0.00    -0.150 OA
BRANCH  25  28
ATOM     28  N   UNL     1      -0.612   2.208  -5.935  0.00  0.00    -0.216 N 
ATOM     29  H   UNL     1       0.229   1.891  -6.302  0.00  0.00    +0.174 HD
BRANCH  28  33
ATOM     30  C   UNL     1      -4.216   0.692  -7.380  0.00  0.00    +0.121 A 
ATOM     31  C   UNL     1      -3.804   1.966  -7.744  0.00  0.00    +0.047 A 
ATOM     32  C   UNL     1      -2.610   2.468  -7.265  0.00  0.00    +0.028 A 
ATOM     33  C   UNL     1      -1.822   1.699  -6.420  0.00  0.00    +0.048 A 
ATOM     34  C   UNL     1      -2.232   0.422  -6.061  0.00  0.00    +0.028 A 
ATOM     35  C   UNL     1      -3.429  -0.078  -6.536  0.00  0.00    +0.047 A 
BRANCH  30  36
ATOM     36  O   UNL     1      -5.391   0.197  -7.852  0.00  0.00    -0.492 OA
BRANCH  36  38
ATOM     37  C   UNL     1      -7.096  -1.503  -8.064  0.00  0.00    +0.048 C 
ATOM     38  C   UNL     1      -5.754  -1.121  -7.437  0.00  0.00    +0.225 C 
ENDBRANCH  36  38
ENDBRANCH  30  36
ENDBRANCH  28  33
ENDBRANCH  25  28
ENDBRANCH   1  25
TORSDOF 8
