REMARK  Name = ZINC39657735
REMARK  9 active torsions:
REMARK  status: ('A' for Active; 'I' for Inactive)
REMARK    1  A    between atoms: C_1  and  N_2
REMARK    2  A    between atoms: C_6  and  C_7
REMARK    3  A    between atoms: C_11  and  C_20
REMARK    4  A    between atoms: N_22  and  C_23
REMARK    5  A    between atoms: C_23  and  C_24
REMARK    6  A    between atoms: C_29  and  S_30
REMARK    7  A    between atoms: S_30  and  C_31
REMARK    8  A    between atoms: C_36  and  C_37
REMARK    9  A    between atoms: C_37  and  O_38
REMARK                            x       y       z     vdW  Elec       q    Type
REMARK                         _______ _______ _______ _____ _____    ______ ____
ROOT
ATOM      1  C   UNL     1      -1.314   5.004   2.837  0.00  0.00    +0.218 C 
ATOM      2  O   UNL     1      -0.660   5.902   3.323  0.00  0.00    -0.275 OA
ATOM      3  N   UNL     1      -1.845   5.146   1.606  0.00  0.00    -0.311 N 
ATOM      4  H   UNL     1      -2.368   4.428   1.218  0.00  0.00    +0.149 HD
ENDROOT
BRANCH   1   9
ATOM      5  C   UNL     1      -0.308   1.762   6.392  0.00  0.00    +0.263 C 
ATOM      6  O   UNL     1      -0.906   1.359   7.372  0.00  0.00    -0.268 OA
ATOM      7  N   UNL     1      -0.789   2.808   5.693  0.00  0.00    -0.295 N 
ATOM      8  C   UNL     1      -0.270   3.368   4.423  0.00  0.00    +0.121 C 
ATOM      9  C   UNL     1      -1.533   3.728   3.609  0.00  0.00    +0.100 C 
ATOM     10  C   UNL     1      -2.637   3.921   4.663  0.00  0.00    -0.004 C 
ATOM     11  C   UNL     1      -1.962   3.656   6.017  0.00  0.00    +0.115 C 
ATOM     12  C   UNL     1      -3.764   2.917   4.438  0.00  0.00    -0.010 C 
ATOM     13  C   UNL     1      -4.874   3.165   5.462  0.00  0.00    -0.082 C 
ATOM     14  N   UNL     1      -5.377   4.537   5.318  0.00  0.00    +0.379 N 
ATOM     15  C   UNL     1      -4.310   5.497   5.628  0.00  0.00    -0.082 C 
ATOM     16  C   UNL     1      -3.176   5.347   4.610  0.00  0.00    -0.010 C 
ATOM     17  H   UNL     1      -5.693   4.681   4.371  0.00  0.00    -0.086 HD
ATOM     18  H   UNL     1      -6.149   4.679   5.952  0.00  0.00    -0.086 HD
BRANCH   5  24
ATOM     19  C   UNL     1       0.815  -0.908   7.492  0.00  0.00    +0.149 C 
ATOM     20  N   UNL     1       1.438  -0.077   6.460  0.00  0.00    -0.346 N 
ATOM     21  C   UNL     1       2.601  -0.351   5.820  0.00  0.00    +0.086 A 
ATOM     22  C   UNL     1       2.858   0.641   4.935  0.00  0.00    +0.020 A 
ATOM     23  C   UNL     1       1.819   1.573   5.020  0.00  0.00    +0.032 A 
ATOM     24  C   UNL     1       0.937   1.109   5.972  0.00  0.00    +0.104 A 
ENDBRANCH   5  24
ENDBRANCH   1   9
BRANCH   3  25
ATOM     25  C   UNL     1      -1.631   6.386   0.856  0.00  0.00    +0.140 C 
BRANCH  25  26
ATOM     26  C   UNL     1      -2.324   6.290  -0.479  0.00  0.00    -0.017 A 
ATOM     27  C   UNL     1      -1.599   5.977  -1.613  0.00  0.00    +0.006 A 
ATOM     28  C   UNL     1      -2.234   5.889  -2.838  0.00  0.00    +0.000 A 
ATOM     29  C   UNL     1      -3.595   6.114  -2.934  0.00  0.00    +0.001 A 
ATOM     30  C   UNL     1      -4.326   6.428  -1.805  0.00  0.00    +0.015 A 
ATOM     31  C   UNL     1      -3.692   6.511  -0.571  0.00  0.00    +0.017 A 
BRANCH  31  32
ATOM     32  S   UNL     1      -4.622   6.904   0.874  0.00  0.00    -0.089 S 
BRANCH  32  33
ATOM     33  C   UNL     1      -6.253   7.185   0.268  0.00  0.00    +0.018 A 
ATOM     34  C   UNL     1      -7.173   6.144   0.237  0.00  0.00    +0.015 A 
ATOM     35  C   UNL     1      -8.450   6.367  -0.238  0.00  0.00    +0.001 A 
ATOM     36  C   UNL     1      -8.813   7.626  -0.683  0.00  0.00    +0.000 A 
ATOM     37  C   UNL     1      -7.900   8.664  -0.654  0.00  0.00    +0.007 A 
ATOM     38  C   UNL     1      -6.623   8.449  -0.174  0.00  0.00    -0.008 A 
BRANCH  38  39
ATOM     39  C   UNL     1      -5.631   9.582  -0.136  0.00  0.00    +0.192 C 
BRANCH  39  40
ATOM     40  O   UNL     1      -6.246  10.771  -0.639  0.00  0.00    -0.390 OA
ATOM     41  H   UNL     1      -5.664  11.543  -0.644  0.00  0.00    +0.210 HD
ENDBRANCH  39  40
ENDBRANCH  38  39
ENDBRANCH  32  33
ENDBRANCH  31  32
ENDBRANCH  25  26
ENDBRANCH   3  25
TORSDOF 8
