REMARK  Name = ZINC09452576
REMARK  7 active torsions:
REMARK  status: ('A' for Active; 'I' for Inactive)
REMARK    1  A    between atoms: C_1  and  C_2
REMARK    2  A    between atoms: C_12  and  C_15
REMARK    3  A    between atoms: C_18  and  S_20
REMARK    4  A    between atoms: S_20  and  N_23
REMARK    5  A    between atoms: N_23  and  C_24
REMARK    6  A    between atoms: C_24  and  C_26
REMARK    7  A    between atoms: C_24  and  C_27
REMARK                            x       y       z     vdW  Elec       q    Type
REMARK                         _______ _______ _______ _____ _____    ______ ____
ROOT
ATOM      1  C   UNL     1      -6.133   1.212   0.041  0.00  0.00    +0.176 A 
ATOM      2  C   UNL     1      -7.140   0.340  -0.248  0.00  0.00    +0.055 A 
ATOM      3  C   UNL     1      -8.346   1.054  -0.112  0.00  0.00    +0.071 A 
ATOM      4  C   UNL     1      -8.022   2.314   0.240  0.00  0.00    +0.258 A 
ATOM      5  O   UNL     1      -6.685   2.406   0.332  0.00  0.00    -0.433 OA
ENDROOT
BRANCH   1  17
ATOM      6  C   UNL     1      -2.549   5.382   0.054  0.00  0.00    +0.068 C 
ATOM      7  C   UNL     1      -2.517   3.876   0.045  0.00  0.00    +0.067 A 
ATOM      8  C   UNL     1      -1.232   3.177   0.030  0.00  0.00    +0.008 A 
ATOM      9  C   UNL     1      -0.019   3.870   0.022  0.00  0.00    +0.010 A 
ATOM     10  C   UNL     1       1.158   3.175   0.008  0.00  0.00    +0.001 A 
ATOM     11  C   UNL     1       1.167   1.787   0.001  0.00  0.00    +0.001 A 
ATOM     12  C   UNL     1      -0.013   1.076   0.008  0.00  0.00    +0.012 A 
ATOM     13  C   UNL     1      -1.226   1.762   0.017  0.00  0.00    +0.030 A 
ATOM     14  C   UNL     1      -2.515   1.067   0.021  0.00  0.00    +0.186 A 
ATOM     15  N   UNL     1      -2.868  -0.203   0.017  0.00  0.00    -0.127 NA
ATOM     16  N   UNL     1      -4.151  -0.299   0.023  0.00  0.00    -0.124 NA
ATOM     17  C   UNL     1      -4.695   0.904   0.032  0.00  0.00    +0.220 A 
ATOM     18  N   UNL     1      -3.669   1.813   0.030  0.00  0.00    -0.189 N 
ATOM     19  N   UNL     1      -3.630   3.206   0.037  0.00  0.00    -0.168 NA
ENDBRANCH   1  17
BRANCH   4  20
ATOM     20  S   UNL     1      -9.164   3.624   0.532  0.00  0.00    +0.092 S 
ATOM     21  O   UNL     1      -8.454   4.837   0.320  0.00  0.00    -0.150 OA
ATOM     22  O   UNL     1     -10.347   3.299  -0.186  0.00  0.00    -0.150 OA
BRANCH  20  23
ATOM     23  N   UNL     1      -9.559   3.582   2.139  0.00  0.00    -0.180 NA
ATOM     24  H   UNL     1     -10.467   3.378   2.410  0.00  0.00    +0.149 HD
BRANCH  23  25
ATOM     25  C   UNL     1      -8.535   3.851   3.152  0.00  0.00    +0.103 C 
ATOM     26  C   UNL     1      -8.590   5.326   3.553  0.00  0.00    +0.031 C 
BRANCH  25  27
ATOM     27  C   UNL     1      -8.789   2.991   4.364  0.00  0.00    -0.029 A 
ATOM     28  C   UNL     1     -10.082   2.792   4.811  0.00  0.00    +0.005 A 
ATOM     29  C   UNL     1     -10.315   2.000   5.920  0.00  0.00    +0.000 A 
ATOM     30  C   UNL     1      -9.255   1.415   6.587  0.00  0.00    +0.000 A 
ATOM     31  C   UNL     1      -7.962   1.619   6.143  0.00  0.00    +0.000 A 
ATOM     32  C   UNL     1      -7.729   2.407   5.032  0.00  0.00    +0.005 A 
ENDBRANCH  25  27
ENDBRANCH  23  25
ENDBRANCH  20  23
ENDBRANCH   4  20
TORSDOF 5
