REMARK  Name = ZINC32912315
REMARK  4 active torsions:
REMARK  status: ('A' for Active; 'I' for Inactive)
REMARK    1  A    between atoms: C_4  and  S_7
REMARK    2  A    between atoms: S_7  and  N_10
REMARK    3  A    between atoms: N_10  and  C_11
REMARK    4  A    between atoms: C_14  and  C_17
REMARK                            x       y       z     vdW  Elec       q    Type
REMARK                         _______ _______ _______ _____ _____    ______ ____
ROOT
ATOM      1  C   UNL     1      -4.981   0.865  -0.280  0.00  0.00    +0.048 A 
ATOM      2  C   UNL     1      -4.895  -0.514  -0.112  0.00  0.00    +0.025 A 
ATOM      3  C   UNL     1      -3.668  -1.122  -0.035  0.00  0.00    +0.015 A 
ATOM      4  C   UNL     1      -2.502  -0.355  -0.126  0.00  0.00    +0.041 A 
ATOM      5  C   UNL     1      -2.592   1.031  -0.288  0.00  0.00    +0.015 A 
ATOM      6  C   UNL     1      -3.822   1.632  -0.371  0.00  0.00    +0.025 A 
ENDROOT
BRANCH   4   7
ATOM      7  C   UNL     1      -1.182  -1.005  -0.044  0.00  0.00    +0.279 C 
ATOM      8  O   UNL     1      -0.173  -0.328  -0.001  0.00  0.00    -0.265 OA
ATOM      9  N   UNL     1      -1.093  -2.349  -0.017  0.00  0.00    -0.194 N 
ATOM     10  C   UNL     1       0.078  -3.073  -0.038  0.00  0.00    +0.080 A 
ATOM     11  C   UNL     1       1.424  -2.724  -0.087  0.00  0.00    +0.028 A 
ATOM     12  C   UNL     1       2.386  -3.710  -0.095  0.00  0.00    +0.002 A 
ATOM     13  C   UNL     1       2.025  -5.050  -0.055  0.00  0.00    +0.001 A 
ATOM     14  C   UNL     1       0.710  -5.415  -0.007  0.00  0.00    +0.013 A 
ATOM     15  C   UNL     1      -0.283  -4.432   0.003  0.00  0.00    +0.042 A 
ATOM     16  C   UNL     1      -1.748  -4.467   0.049  0.00  0.00    +0.146 A 
ATOM     17  N   UNL     1      -2.177  -3.233   0.036  0.00  0.00    -0.148 NA
ATOM     18  N   UNL     1      -2.542  -5.611   0.099  0.00  0.00    -0.341 N 
ATOM     19  H   UNL     1      -3.637  -5.520   0.131  0.00  0.00    +0.144 HD
ATOM     20  H   UNL     1      -2.072  -6.606   0.106  0.00  0.00    +0.144 HD
ENDBRANCH   4   7
BRANCH   1  21
ATOM     21  N   UNL     1      -6.226   1.478  -0.357  0.00  0.00    -0.216 N 
ATOM     22  H   UNL     1      -6.605   1.834  -1.327  0.00  0.00    +0.174 HD
BRANCH  21  23
ATOM     23  S   UNL     1      -7.139   1.674   1.010  0.00  0.00    +0.072 S 
ATOM     24  O   UNL     1      -8.303   2.391   0.622  0.00  0.00    -0.150 OA
ATOM     25  O   UNL     1      -7.203   0.402   1.641  0.00  0.00    -0.150 OA
BRANCH  23  29
ATOM     26  C   UNL     1      -4.818   4.386   3.794  0.00  0.00    +0.000 A 
ATOM     27  C   UNL     1      -5.773   4.918   2.948  0.00  0.00    +0.002 A 
ATOM     28  C   UNL     1      -6.482   4.090   2.098  0.00  0.00    +0.029 A 
ATOM     29  C   UNL     1      -6.236   2.729   2.094  0.00  0.00    +0.108 A 
ATOM     30  C   UNL     1      -5.284   2.197   2.943  0.00  0.00    +0.029 A 
ATOM     31  C   UNL     1      -4.572   3.025   3.790  0.00  0.00    +0.002 A 
ENDBRANCH  23  29
ENDBRANCH  21  23
ENDBRANCH   1  21
TORSDOF 4
