REMARK  Name = ZINC00959845
REMARK  3 active torsions:
REMARK  status: ('A' for Active; 'I' for Inactive)
REMARK    1  A    between atoms: C_1  and  S_2
REMARK    2  A    between atoms: S_2  and  C_3
REMARK    3  A    between atoms: C_14  and  C_16
REMARK                            x       y       z     vdW  Elec       q    Type
REMARK                         _______ _______ _______ _____ _____    ______ ____
ROOT
ATOM      1  C   UNL     1       0.002  -0.004   0.002  0.00  0.00    +0.171 A 
ATOM      2  N   UNL     1      -0.016   1.358   0.009  0.00  0.00    -0.302 N 
ATOM      3  H   UNL     1      -0.864   1.831   0.016  0.00  0.00    +0.171 HD
ATOM      4  C   UNL     1       1.142   2.051   0.002  0.00  0.00    +0.258 A 
ATOM      5  O   UNL     1       1.136   3.272   0.009  0.00  0.00    -0.267 OA
ATOM      6  C   UNL     1       2.350   1.345  -0.014  0.00  0.00    +0.069 A 
ATOM      7  C   UNL     1       2.313  -0.039  -0.019  0.00  0.00    +0.135 A 
ATOM      8  N   UNL     1       1.136  -0.674  -0.012  0.00  0.00    -0.208 NA
ATOM      9  N   UNL     1       3.495  -0.754  -0.031  0.00  0.00    -0.302 N 
ATOM     10  C   UNL     1       4.670  -0.166   0.350  0.00  0.00    +0.017 C 
ATOM     11  C   UNL     1       4.796   1.177   0.381  0.00  0.00    +0.024 C 
ATOM     12  C   UNL     1       3.658   2.078  -0.027  0.00  0.00    +0.092 C 
ATOM     13  C   UNL     1       5.998   1.782   0.790  0.00  0.00    +0.162 C 
ATOM     14  O   UNL     1       6.080   2.995   0.800  0.00  0.00    -0.292 OA
ATOM     15  C   UNL     1       7.182   0.960   1.215  0.00  0.00    +0.080 C 
ATOM     16  C   UNL     1       6.685  -0.372   1.788  0.00  0.00    +0.014 C 
ATOM     17  C   UNL     1       5.824  -1.063   0.729  0.00  0.00    +0.051 C 
ATOM     18  H   UNL     1       3.491  -1.683  -0.311  0.00  0.00    +0.153 HD
ENDROOT
BRANCH  12  19
ATOM     19  C   UNL     1       3.916   2.602  -1.416  0.00  0.00    -0.035 A 
ATOM     20  C   UNL     1       4.053   1.721  -2.472  0.00  0.00    +0.005 A 
ATOM     21  C   UNL     1       4.285   2.201  -3.748  0.00  0.00    +0.015 A 
ATOM     22  C   UNL     1       4.391   3.563  -3.965  0.00  0.00    +0.018 A 
ATOM     23  C   UNL     1       4.260   4.444  -2.907  0.00  0.00    +0.015 A 
ATOM     24  C   UNL     1       4.022   3.963  -1.633  0.00  0.00    +0.005 A 
ATOM     25 BR   UNL     1       4.716   4.220  -5.708  0.00  0.00    -0.050 Br
ENDBRANCH  12  19
BRANCH   1  27
ATOM     26  C   UNL     1      -0.900  -2.587  -0.004  0.00  0.00    +0.093 C 
ATOM     27  S   UNL     1      -1.522  -0.888   0.011  0.00  0.00    -0.091 S 
ENDBRANCH   1  27
TORSDOF 2
