REMARK  Name = ZINC64392065
REMARK  6 active torsions:
REMARK  status: ('A' for Active; 'I' for Inactive)
REMARK    1  A    between atoms: C_1  and  C_2
REMARK    2  A    between atoms: C_5  and  C_9
REMARK    3  A    between atoms: C_7  and  C_8
REMARK    4  A    between atoms: C_11  and  C_15
REMARK    5  A    between atoms: N_25  and  C_28
REMARK    6  A    between atoms: C_28  and  C_29
REMARK                            x       y       z     vdW  Elec       q    Type
REMARK                         _______ _______ _______ _____ _____    ______ ____
ROOT
ATOM      1  C   UNL     1      -1.573  -7.104  -0.458  0.00  0.00    +0.006 A 
ATOM      2  C   UNL     1      -2.679  -6.396  -0.014  0.00  0.00    +0.009 A 
ATOM      3  C   UNL     1      -3.896  -7.026   0.140  0.00  0.00    +0.016 A 
ATOM      4  C   UNL     1      -4.008  -8.383  -0.154  0.00  0.00    +0.063 A 
ATOM      5  C   UNL     1      -2.886  -9.101  -0.603  0.00  0.00    +0.056 A 
ATOM      6  C   UNL     1      -1.672  -8.448  -0.757  0.00  0.00    +0.034 A 
ATOM      7  N   UNL     1      -3.027 -10.451  -0.888  0.00  0.00    -0.307 N 
ATOM      8  H   UNL     1      -2.261 -10.959  -1.199  0.00  0.00    +0.170 HD
ATOM      9  C   UNL     1      -4.214 -11.062  -0.738  0.00  0.00    +0.330 A 
ATOM     10  O   UNL     1      -4.295 -12.247  -0.998  0.00  0.00    -0.246 OA
ATOM     11  N   UNL     1      -5.314 -10.421  -0.312  0.00  0.00    -0.256 N 
ATOM     12  C   UNL     1      -5.284  -9.106  -0.007  0.00  0.00    +0.265 A 
ATOM     13  O   UNL     1      -6.285  -8.532   0.377  0.00  0.00    -0.267 OA
ENDROOT
BRANCH   1  16
ATOM     14  C   UNL     1       0.059  -4.253  -0.021  0.00  0.00    +0.134 C 
ATOM     15  N   UNL     1      -0.467  -4.986  -0.954  0.00  0.00    -0.339 N 
ATOM     16  C   UNL     1      -0.251  -6.399  -0.620  0.00  0.00    +0.274 C 
ATOM     17  O   UNL     1       0.467  -6.393   0.624  0.00  0.00    -0.243 OA
ATOM     18  N   UNL     1       0.642  -5.024   0.954  0.00  0.00    -0.247 N 
ATOM     19  H   UNL     1       1.097  -4.688   1.741  0.00  0.00    +0.196 HD
ATOM     20  H   UNL     1      -0.928  -4.655  -1.740  0.00  0.00    +0.164 HD
BRANCH  14  25
ATOM     21  C   UNL     1      -0.018   1.503   0.010  0.00  0.00    +0.044 C 
ATOM     22  C   UNL     1       0.002  -0.004   0.002  0.00  0.00    -0.047 A 
ATOM     23  C   UNL     1       0.006  -0.686  -1.202  0.00  0.00    +0.004 A 
ATOM     24  C   UNL     1       0.024  -2.066  -1.216  0.00  0.00    +0.012 A 
ATOM     25  C   UNL     1       0.040  -2.773  -0.013  0.00  0.00    +0.017 A 
ATOM     26  C   UNL     1       0.036  -2.079   1.196  0.00  0.00    +0.015 A 
ATOM     27  C   UNL     1       0.023  -0.699   1.198  0.00  0.00    -0.047 A 
ATOM     28  C   UNL     1       0.025   0.052   2.504  0.00  0.00    +0.044 C 
ENDBRANCH  14  25
ENDBRANCH   1  16
BRANCH  11  29
ATOM     29  C   UNL     1      -6.570 -11.163  -0.175  0.00  0.00    +0.168 C 
BRANCH  29  30
ATOM     30  C   UNL     1      -6.666 -11.736   1.215  0.00  0.00    +0.008 A 
ATOM     31  C   UNL     1      -6.350 -13.062   1.440  0.00  0.00    +0.008 A 
ATOM     32  C   UNL     1      -6.438 -13.588   2.715  0.00  0.00    +0.000 A 
ATOM     33  C   UNL     1      -6.843 -12.787   3.768  0.00  0.00    +0.003 A 
ATOM     34  C   UNL     1      -7.159 -11.461   3.546  0.00  0.00    +0.039 A 
ATOM     35  C   UNL     1      -7.066 -10.932   2.269  0.00  0.00    +0.128 A 
ATOM     36  F   UNL     1      -7.370  -9.634   2.052  0.00  0.00    -0.205 F 
ENDBRANCH  29  30
ENDBRANCH  11  29
TORSDOF 4
