REMARK  Name = ZINC64890538
REMARK  10 active torsions:
REMARK  status: ('A' for Active; 'I' for Inactive)
REMARK    1  A    between atoms: C_1  and  C_2
REMARK    2  A    between atoms: C_5  and  S_8
REMARK    3  A    between atoms: S_8  and  N_11
REMARK    4  A    between atoms: N_11  and  C_12
REMARK    5  A    between atoms: C_12  and  C_14
REMARK    6  A    between atoms: C_12  and  C_34
REMARK    7  A    between atoms: C_17  and  C_20
REMARK    8  A    between atoms: N_32  and  C_33
REMARK    9  A    between atoms: C_34  and  C_35
REMARK   10  A    between atoms: C_34  and  C_36
REMARK                            x       y       z     vdW  Elec       q    Type
REMARK                         _______ _______ _______ _____ _____    ______ ____
ROOT
ATOM      1  C   UNL     1       3.669  -5.793   0.948  0.00  0.00    +0.262 C 
ATOM      2  N   UNL     1       3.074  -7.119   1.151  0.00  0.00    -0.341 N 
ATOM      3  C   UNL     1       3.313  -7.848   0.104  0.00  0.00    +0.134 C 
ATOM      4  N   UNL     1       4.032  -7.152  -0.837  0.00  0.00    -0.247 N 
ATOM      5  O   UNL     1       4.284  -5.842  -0.348  0.00  0.00    -0.246 OA
ATOM      6  H   UNL     1       4.321  -7.499  -1.695  0.00  0.00    +0.196 HD
ATOM      7  H   UNL     1       2.584  -7.405   1.939  0.00  0.00    +0.164 HD
ENDROOT
BRANCH   3   8
ATOM      8  C   UNL     1       2.868  -9.249  -0.056  0.00  0.00    +0.019 A 
ATOM      9  C   UNL     1       1.690  -9.684   0.559  0.00  0.00    +0.013 A 
ATOM     10  C   UNL     1       1.274 -10.987   0.411  0.00  0.00    +0.028 A 
ATOM     11  C   UNL     1       2.024 -11.880  -0.351  0.00  0.00    +0.068 A 
ATOM     12  C   UNL     1       3.202 -11.452  -0.968  0.00  0.00    +0.067 A 
ATOM     13  C   UNL     1       3.619 -10.136  -0.824  0.00  0.00    +0.039 A 
ATOM     14  N   UNL     1       3.962 -12.333  -1.733  0.00  0.00    -0.316 N 
ATOM     15  H   UNL     1       4.779 -12.027  -2.157  0.00  0.00    +0.169 HD
ATOM     16  C   UNL     1       3.564 -13.613  -1.885  0.00  0.00    +0.314 A 
ATOM     17  O   UNL     1       4.223 -14.386  -2.550  0.00  0.00    -0.262 OA
ATOM     18  C   UNL     1       2.305 -14.068  -1.226  0.00  0.00    +0.316 A 
ATOM     19  O   UNL     1       1.929 -15.216  -1.350  0.00  0.00    -0.262 OA
ATOM     20  N   UNL     1       1.590 -13.193  -0.491  0.00  0.00    -0.305 N 
ATOM     21  C   UNL     1       0.353 -13.627   0.162  0.00  0.00    +0.153 C 
ENDBRANCH   3   8
BRANCH   1  22
ATOM     22  C   UNL     1       2.583  -4.715   0.978  0.00  0.00    +0.131 C 
BRANCH  22  23
ATOM     23  C   UNL     1       3.218  -3.345   0.734  0.00  0.00    +0.006 C 
ATOM     24  C   UNL     1       2.119  -2.284   0.636  0.00  0.00    +0.009 C 
ATOM     25  C   UNL     1       4.155  -3.003   1.894  0.00  0.00    +0.009 C 
ENDBRANCH  22  23
BRANCH  22  26
ATOM     26  N   UNL     1       1.594  -4.989  -0.067  0.00  0.00    -0.182 NA
ATOM     27  H   UNL     1       1.847  -4.929  -1.002  0.00  0.00    +0.148 HD
BRANCH  26  28
ATOM     28  S   UNL     1       0.044  -5.400   0.346  0.00  0.00    +0.059 S 
ATOM     29  O   UNL     1       0.143  -6.450   1.298  0.00  0.00    -0.153 OA
ATOM     30  O   UNL     1      -0.677  -5.540  -0.870  0.00  0.00    -0.153 OA
BRANCH  28  35
ATOM     31  C   UNL     1      -2.349  -0.673   3.233  0.00  0.00    +0.044 C 
ATOM     32  C   UNL     1      -1.751  -1.854   2.512  0.00  0.00    -0.050 A 
ATOM     33  C   UNL     1      -1.798  -1.917   1.132  0.00  0.00    +0.005 A 
ATOM     34  C   UNL     1      -1.249  -3.000   0.471  0.00  0.00    +0.029 A 
ATOM     35  C   UNL     1      -0.654  -4.019   1.189  0.00  0.00    +0.105 A 
ATOM     36  C   UNL     1      -0.606  -3.956   2.569  0.00  0.00    +0.029 A 
ATOM     37  C   UNL     1      -1.151  -2.871   3.231  0.00  0.00    +0.005 A 
ENDBRANCH  28  35
ENDBRANCH  26  28
ENDBRANCH  22  26
ENDBRANCH   1  22
TORSDOF 6
