REMARK  Name = ZINC38656092
REMARK  7 active torsions:
REMARK  status: ('A' for Active; 'I' for Inactive)
REMARK    1  A    between atoms: C_6  and  C_7
REMARK    2  A    between atoms: C_7  and  C_8
REMARK    3  A    between atoms: C_8  and  O_10
REMARK    4  A    between atoms: O_10  and  C_11
REMARK    5  A    between atoms: C_18  and  N_32
REMARK    6  A    between atoms: C_19  and  C_30
REMARK    7  A    between atoms: C_20  and  C_22
REMARK                            x       y       z     vdW  Elec       q    Type
REMARK                         _______ _______ _______ _____ _____    ______ ____
ROOT
ATOM      1  C   UNL     1      -3.336  -1.919  -2.905  0.00  0.00    +0.135 A 
ATOM      2  C   UNL     1      -2.587  -1.511  -4.000  0.00  0.00    +0.047 A 
ATOM      3  C   UNL     1      -3.056  -1.736  -5.279  0.00  0.00    +0.012 A 
ATOM      4  C   UNL     1      -4.272  -2.367  -5.475  0.00  0.00    +0.008 A 
ATOM      5  C   UNL     1      -5.024  -2.776  -4.385  0.00  0.00    +0.138 A 
ATOM      6  C   UNL     1      -4.550  -2.556  -3.097  0.00  0.00    +0.093 A 
ATOM      7  O   UNL     1      -6.217  -3.396  -4.556  0.00  0.00    -0.441 OA
ATOM      8  C   UNL     1      -6.868  -3.286  -5.726  0.00  0.00    +0.199 C 
ATOM      9  C   UNL     1      -6.236  -2.913  -6.865  0.00  0.00    +0.098 C 
ATOM     10  C   UNL     1      -4.766  -2.603  -6.877  0.00  0.00    +0.098 C 
ENDROOT
BRANCH  10  11
ATOM     11  C   UNL     1      -4.016  -3.762  -7.482  0.00  0.00    -0.033 A 
ATOM     12  C   UNL     1      -4.082  -5.011  -6.893  0.00  0.00    +0.006 A 
ATOM     13  C   UNL     1      -3.395  -6.074  -7.447  0.00  0.00    +0.022 A 
ATOM     14  C   UNL     1      -2.640  -5.889  -8.591  0.00  0.00    +0.059 A 
ATOM     15  C   UNL     1      -2.574  -4.639  -9.182  0.00  0.00    +0.060 A 
ATOM     16  C   UNL     1      -3.267  -3.576  -8.629  0.00  0.00    +0.026 A 
ATOM     17 CL   UNL     1      -1.627  -4.405 -10.618  0.00  0.00    -0.082 Cl
ATOM     18 CL   UNL     1      -1.776  -7.225  -9.287  0.00  0.00    -0.082 Cl
ENDBRANCH  10  11
BRANCH   8  19
ATOM     19  N   UNL     1      -8.212  -3.560  -5.769  0.00  0.00    -0.328 N 
ATOM     20  H   UNL     1      -8.678  -3.828  -4.963  0.00  0.00    +0.145 HD
ATOM     21  H   UNL     1      -8.696  -3.485  -6.607  0.00  0.00    +0.145 HD
ENDBRANCH   8  19
BRANCH   9  22
ATOM     22  C   UNL     1      -6.985  -2.813  -8.082  0.00  0.00    +0.101 C 
ATOM     23  N   UNL     1      -7.578  -2.734  -9.047  0.00  0.00    -0.191 NA
ENDBRANCH   9  22
BRANCH   1  24
ATOM     24  O   UNL     1      -2.875  -1.698  -1.645  0.00  0.00    -0.425 OA
BRANCH  24  25
ATOM     25  C   UNL     1      -2.981  -0.457  -1.143  0.00  0.00    +0.317 C 
ATOM     26  O   UNL     1      -3.392   0.442  -1.838  0.00  0.00    -0.250 OA
BRANCH  25  27
ATOM     27  C   UNL     1      -2.588  -0.186   0.286  0.00  0.00    +0.156 C 
BRANCH  27  33
ATOM     28  C   UNL     1      -4.018   1.704   1.093  0.00  0.00    +0.005 A 
ATOM     29  C   UNL     1      -4.213   3.042   1.379  0.00  0.00    +0.020 A 
ATOM     30  C   UNL     1      -3.191   3.950   1.169  0.00  0.00    +0.041 A 
ATOM     31  C   UNL     1      -1.974   3.518   0.674  0.00  0.00    +0.020 A 
ATOM     32  C   UNL     1      -1.779   2.180   0.388  0.00  0.00    +0.005 A 
ATOM     33  C   UNL     1      -2.801   1.273   0.598  0.00  0.00    -0.037 A 
ATOM     34 CL   UNL     1      -3.436   5.631   1.528  0.00  0.00    -0.084 Cl
ENDBRANCH  27  33
ENDBRANCH  25  27
ENDBRANCH  24  25
ENDBRANCH   1  24
TORSDOF 7
