REMARK  Name = ZINC02108069
REMARK  11 active torsions:
REMARK  status: ('A' for Active; 'I' for Inactive)
REMARK    1  A    between atoms: C_1  and  C_2
REMARK    2  A    between atoms: C_2  and  C_3
REMARK    3  A    between atoms: C_3  and  C_4
REMARK    4  A    between atoms: C_4  and  C_5
REMARK    5  A    between atoms: C_5  and  C_6
REMARK    6  A    between atoms: C_6  and  N_7
REMARK    7  A    between atoms: C_10  and  C_17
REMARK    8  A    between atoms: C_11  and  O_16
REMARK    9  A    between atoms: C_24  and  O_25
REMARK   10  A    between atoms: O_25  and  C_26
REMARK   11  A    between atoms: C_32  and  N_60
REMARK                            x       y       z     vdW  Elec       q    Type
REMARK                         _______ _______ _______ _____ _____    ______ ____
ROOT
ATOM      1  N   UNL     1      -3.287   3.943  -1.125  0.00  0.00    -0.288 N 
ATOM      2  C   UNL     1      -2.690   3.324  -0.088  0.00  0.00    +0.260 A 
ATOM      3  O   UNL     1      -2.073   3.970   0.741  0.00  0.00    -0.267 OA
ATOM      4  C   UNL     1      -2.784   1.925   0.031  0.00  0.00    +0.067 A 
ATOM      5  C   UNL     1      -3.475   1.225  -0.913  0.00  0.00    +0.199 A 
ATOM      6  N   UNL     1      -4.072   1.897  -1.949  0.00  0.00    -0.306 N 
ATOM      7  H   UNL     1      -4.568   1.403  -2.620  0.00  0.00    +0.171 HD
ATOM      8  C   UNL     1      -3.970   3.235  -2.043  0.00  0.00    +0.163 A 
ATOM      9  S   UNL     1      -4.719   4.048  -3.349  0.00  0.00    -0.013 S 
ENDROOT
BRANCH   4  10
ATOM     10  C   UNL     1      -2.124   1.210   1.182  0.00  0.00    +0.007 C 
ATOM     11  C   UNL     1      -2.797   1.613   2.468  0.00  0.00    -0.008 A 
ATOM     12  C   UNL     1      -2.077   1.885   3.612  0.00  0.00    -0.040 A 
ATOM     13  C   UNL     1      -2.737   2.241   4.779  0.00  0.00    +0.053 A 
ATOM     14  C   UNL     1      -4.119   2.328   4.806  0.00  0.00    +0.170 A 
ATOM     15  C   UNL     1      -4.849   2.058   3.653  0.00  0.00    +0.208 A 
ATOM     16  C   UNL     1      -4.186   1.701   2.488  0.00  0.00    +0.167 A 
ATOM     17  O   UNL     1      -6.178   2.211   3.932  0.00  0.00    -0.449 OA
ATOM     18  C   UNL     1      -6.276   2.179   5.368  0.00  0.00    +0.467 C 
ATOM     19  O   UNL     1      -4.988   2.651   5.808  0.00  0.00    -0.452 OA
ATOM     20  C   UNL     1      -0.572   1.809   3.636  0.00  0.00    +0.017 C 
ATOM     21  C   UNL     1      -0.071   1.014   2.430  0.00  0.00    -0.073 C 
ATOM     22  C   UNL     1      -0.013   1.086   0.008  0.00  0.00    -0.095 C 
ATOM     23  N   UNL     1      -0.700   1.583   1.221  0.00  0.00    +0.386 N 
ATOM     24  H   UNL     1      -0.622   2.607   1.253  0.00  0.00    -0.081 HD
BRANCH  16  25
ATOM     25  O   UNL     1      -4.896   1.436   1.359  0.00  0.00    -0.491 OA
ATOM     26  C   UNL     1      -5.309   0.084   1.154  0.00  0.00    +0.277 C 
ENDBRANCH  16  25
ENDBRANCH   4  10
BRANCH   5  27
ATOM     27  O   UNL     1      -3.575  -0.118  -0.825  0.00  0.00    -0.493 OA
ATOM     28  H   UNL     1      -4.085  -0.522  -1.541  0.00  0.00    +0.294 HD
ENDBRANCH   5  27
BRANCH   1  29
ATOM     29  C   UNL     1      -3.193   5.400  -1.253  0.00  0.00    +0.127 C 
BRANCH  29  30
ATOM     30  C   UNL     1      -1.956   5.760  -2.079  0.00  0.00    +0.022 C 
BRANCH  30  31
ATOM     31  C   UNL     1      -1.857   7.281  -2.214  0.00  0.00    +0.002 C 
BRANCH  31  32
ATOM     32  C   UNL     1      -0.621   7.641  -3.040  0.00  0.00    -0.000 C 
BRANCH  32  34
ATOM     33  C   UNL     1       0.714   9.521  -4.000  0.00  0.00    +0.004 C 
ATOM     34  C   UNL     1      -0.522   9.162  -3.174  0.00  0.00    -0.003 C 
ENDBRANCH  32  34
ENDBRANCH  31  32
ENDBRANCH  30  31
ENDBRANCH  29  30
ENDBRANCH   1  29
TORSDOF 8
