REMARK  Name = ZINC05260517
REMARK  14 active torsions:
REMARK  status: ('A' for Active; 'I' for Inactive)
REMARK    1  A    between atoms: C_3  and  O_10
REMARK    2  A    between atoms: C_6  and  N_7
REMARK    3  A    between atoms: O_10  and  C_11
REMARK    4  A    between atoms: C_13  and  O_42
REMARK    5  A    between atoms: C_15  and  O_41
REMARK    6  A    between atoms: C_17  and  O_40
REMARK    7  A    between atoms: C_19  and  C_22
REMARK    8  A    between atoms: C_22  and  O_23
REMARK    9  A    between atoms: O_23  and  C_24
REMARK   10  A    between atoms: C_26  and  O_39
REMARK   11  A    between atoms: C_28  and  O_38
REMARK   12  A    between atoms: C_30  and  O_37
REMARK   13  A    between atoms: C_32  and  C_35
REMARK   14  A    between atoms: C_35  and  O_36
REMARK                            x       y       z     vdW  Elec       q    Type
REMARK                         _______ _______ _______ _____ _____    ______ ____
ROOT
ATOM      1  C   UNL     1       4.259  -4.054   5.014  0.00  0.00    +0.339 C 
ATOM      2  C   UNL     1       4.452  -5.568   5.136  0.00  0.00    +0.214 C 
ATOM      3  C   UNL     1       3.082  -6.252   5.125  0.00  0.00    +0.180 C 
ATOM      4  C   UNL     1       2.338  -5.862   3.844  0.00  0.00    +0.177 C 
ATOM      5  C   UNL     1       2.227  -4.337   3.772  0.00  0.00    +0.179 C 
ATOM      6  O   UNL     1       3.534  -3.763   3.817  0.00  0.00    -0.331 OA
ENDROOT
BRANCH   4   7
ATOM      7  O   UNL     1       3.060  -6.343   2.708  0.00  0.00    -0.386 OA
ATOM      8  H   UNL     1       3.169  -7.303   2.689  0.00  0.00    +0.210 HD
ENDBRANCH   4   7
BRANCH   3   9
ATOM      9  O   UNL     1       3.255  -7.670   5.167  0.00  0.00    -0.386 OA
ATOM     10  H   UNL     1       3.725  -7.986   5.951  0.00  0.00    +0.210 HD
ENDBRANCH   3   9
BRANCH   2  11
ATOM     11  O   UNL     1       5.231  -6.040   4.035  0.00  0.00    -0.383 OA
ATOM     12  H   UNL     1       6.112  -5.644   3.978  0.00  0.00    +0.210 HD
ENDBRANCH   2  11
BRANCH   1  13
ATOM     13  O   UNL     1       3.526  -3.575   6.143  0.00  0.00    -0.461 OA
BRANCH  13  16
ATOM     14  C   UNL     1       2.485  -0.328   7.413  0.00  0.00    +0.036 A 
ATOM     15  C   UNL     1       2.655  -1.696   7.314  0.00  0.00    +0.048 A 
ATOM     16  C   UNL     1       3.357  -2.230   6.243  0.00  0.00    +0.124 A 
ATOM     17  C   UNL     1       3.889  -1.389   5.277  0.00  0.00    +0.048 A 
ATOM     18  C   UNL     1       3.712  -0.023   5.378  0.00  0.00    +0.036 A 
ATOM     19  C   UNL     1       3.012   0.507   6.446  0.00  0.00    +0.126 A 
BRANCH  19  20
ATOM     20  N   UNL     1       2.828   1.972   6.555  0.00  0.00    +0.056 N 
ATOM     21  O   UNL     1       2.211   2.440   7.496  0.00  0.00    -0.126 OA
ATOM     22  O   UNL     1       3.292   2.709   5.704  0.00  0.00    -0.126 OA
ENDBRANCH  19  20
ENDBRANCH  13  16
ENDBRANCH   1  13
BRANCH   5  23
ATOM     23  C   UNL     1       1.538  -3.937   2.466  0.00  0.00    +0.197 C 
BRANCH  23  24
ATOM     24  O   UNL     1       1.331  -2.524   2.450  0.00  0.00    -0.346 OA
BRANCH  24  25
ATOM     25  C   UNL     1       0.690  -2.043   1.266  0.00  0.00    +0.282 C 
ATOM     26  C   UNL     1       0.743  -0.513   1.242  0.00  0.00    +0.201 C 
ATOM     27  C   UNL     1       0.002  -0.004   0.002  0.00  0.00    +0.179 C 
ATOM     28  C   UNL     1      -1.434  -0.536   0.024  0.00  0.00    +0.177 C 
ATOM     29  C   UNL     1      -1.403  -2.065   0.095  0.00  0.00    +0.178 C 
ATOM     30  O   UNL     1      -0.673  -2.472   1.254  0.00  0.00    -0.341 OA
BRANCH  28  31
ATOM     31  O   UNL     1      -2.118  -0.019   1.168  0.00  0.00    -0.386 OA
ATOM     32  H   UNL     1      -2.171   0.946   1.191  0.00  0.00    +0.210 HD
ENDBRANCH  28  31
BRANCH  27  33
ATOM     33  O   UNL     1      -0.017   1.425   0.010  0.00  0.00    -0.386 OA
ATOM     34  H   UNL     1       0.861   1.830   0.004  0.00  0.00    +0.210 HD
ENDBRANCH  27  33
BRANCH  26  35
ATOM     35  O   UNL     1       0.117   0.004   2.418  0.00  0.00    -0.384 OA
ATOM     36  H   UNL     1       0.535  -0.278   3.243  0.00  0.00    +0.210 HD
ENDBRANCH  26  35
BRANCH  29  37
ATOM     37  C   UNL     1      -2.833  -2.602   0.178  0.00  0.00    +0.190 C 
BRANCH  37  38
ATOM     38  O   UNL     1      -2.809  -4.030   0.128  0.00  0.00    -0.392 OA
ATOM     39  H   UNL     1      -3.684  -4.439   0.176  0.00  0.00    +0.210 HD
ENDBRANCH  37  38
ENDBRANCH  29  37
ENDBRANCH  24  25
ENDBRANCH  23  24
ENDBRANCH   5  23
TORSDOF 14
