REMARK  Name = ZINC09221325
REMARK  8 active torsions:
REMARK  status: ('A' for Active; 'I' for Inactive)
REMARK    1  A    between atoms: C_1  and  C_2
REMARK    2  A    between atoms: C_2  and  O_3
REMARK    3  A    between atoms: O_3  and  C_4
REMARK    4  A    between atoms: C_7  and  O_31
REMARK    5  A    between atoms: C_8  and  C_10
REMARK    6  A    between atoms: N_21  and  C_22
REMARK    7  A    between atoms: C_22  and  C_24
REMARK    8  A    between atoms: C_22  and  C_25
REMARK                            x       y       z     vdW  Elec       q    Type
REMARK                         _______ _______ _______ _____ _____    ______ ____
ROOT
ATOM      1  C   UNL     1       0.863   4.907  -1.564  0.00  0.00    +0.197 C 
ATOM      2  N   UNL     1       0.982   3.445  -1.575  0.00  0.00    -0.321 N 
ATOM      3  C   UNL     1      -0.178   2.680  -1.641  0.00  0.00    +0.041 A 
ATOM      4  C   UNL     1      -0.190   1.422  -2.220  0.00  0.00    +0.024 A 
ATOM      5  C   UNL     1      -1.361   0.690  -2.241  0.00  0.00    +0.002 A 
ATOM      6  C   UNL     1      -2.525   1.206  -1.692  0.00  0.00    +0.001 A 
ATOM      7  C   UNL     1      -2.530   2.457  -1.111  0.00  0.00    +0.015 A 
ATOM      8  C   UNL     1      -1.357   3.208  -1.087  0.00  0.00    +0.058 A 
ATOM      9  C   UNL     1      -1.317   4.561  -0.503  0.00  0.00    +0.251 C 
ATOM     10  O   UNL     1      -2.268   4.986   0.124  0.00  0.00    -0.270 OA
ATOM     11  N   UNL     1      -0.218   5.323  -0.670  0.00  0.00    -0.268 N 
ATOM     12  H   UNL     1       1.853   3.019  -1.536  0.00  0.00    +0.148 HD
ENDROOT
BRANCH   1  17
ATOM     13  C   UNL     1       0.444   4.978  -5.319  0.00  0.00    +0.121 A 
ATOM     14  C   UNL     1       0.029   6.285  -5.527  0.00  0.00    +0.049 A 
ATOM     15  C   UNL     1      -0.117   7.143  -4.455  0.00  0.00    +0.049 A 
ATOM     16  C   UNL     1       0.153   6.697  -3.169  0.00  0.00    +0.124 A 
ATOM     17  C   UNL     1       0.569   5.391  -2.961  0.00  0.00    +0.036 A 
ATOM     18  C   UNL     1       0.719   4.534  -4.034  0.00  0.00    +0.056 A 
BRANCH  16  19
ATOM     19  O   UNL     1       0.010   7.542  -2.113  0.00  0.00    -0.506 OA
ATOM     20  H   UNL     1       0.561   8.335  -2.166  0.00  0.00    +0.292 HD
ENDBRANCH  16  19
BRANCH  13  21
ATOM     21  O   UNL     1       0.587   4.133  -6.375  0.00  0.00    -0.492 OA
BRANCH  21  23
ATOM     22  C   UNL     1       0.508   3.571  -8.724  0.00  0.00    +0.048 C 
ATOM     23  C   UNL     1       0.292   4.659  -7.671  0.00  0.00    +0.225 C 
ENDBRANCH  21  23
ENDBRANCH  13  21
ENDBRANCH   1  17
BRANCH  11  24
ATOM     24  C   UNL     1      -0.103   6.590   0.057  0.00  0.00    +0.106 C 
ATOM     25  C   UNL     1      -1.389   7.399  -0.124  0.00  0.00    +0.033 C 
BRANCH  24  26
ATOM     26  C   UNL     1       0.112   6.310   1.522  0.00  0.00    -0.027 A 
ATOM     27  C   UNL     1      -0.314   5.113   2.068  0.00  0.00    +0.005 A 
ATOM     28  C   UNL     1      -0.112   4.855   3.410  0.00  0.00    +0.000 A 
ATOM     29  C   UNL     1       0.507   5.798   4.210  0.00  0.00    +0.000 A 
ATOM     30  C   UNL     1       0.929   6.996   3.666  0.00  0.00    +0.000 A 
ATOM     31  C   UNL     1       0.731   7.253   2.322  0.00  0.00    +0.005 A 
ENDBRANCH  24  26
ENDBRANCH  11  24
TORSDOF 6
