REMARK  Name = ZINC36295824
REMARK  5 active torsions:
REMARK  status: ('A' for Active; 'I' for Inactive)
REMARK    1  A    between atoms: C_1  and  C_2
REMARK    2  A    between atoms: C_5  and  S_9
REMARK    3  A    between atoms: S_9  and  N_12
REMARK    4  A    between atoms: N_12  and  C_13
REMARK    5  A    between atoms: C_17  and  N_19
REMARK                            x       y       z     vdW  Elec       q    Type
REMARK                         _______ _______ _______ _____ _____    ______ ____
ROOT
ATOM      1  S   UNL     1       0.062  -4.531  -0.025  0.00  0.00    +0.093 S 
ATOM      2  O   UNL     1      -0.953  -4.956   0.873  0.00  0.00    -0.148 OA
ATOM      3  O   UNL     1       0.088  -4.928  -1.389  0.00  0.00    -0.148 OA
ENDROOT
BRANCH   1   8
ATOM      4  C   UNL     1      -0.018   1.503   0.010  0.00  0.00    +0.044 C 
ATOM      5  C   UNL     1       0.002  -0.004   0.002  0.00  0.00    -0.049 A 
ATOM      6  C   UNL     1       0.006  -0.689  -1.199  0.00  0.00    +0.005 A 
ATOM      7  C   UNL     1       0.025  -2.071  -1.207  0.00  0.00    +0.030 A 
ATOM      8  C   UNL     1       0.040  -2.769  -0.015  0.00  0.00    +0.124 A 
ATOM      9  C   UNL     1       0.036  -2.085   1.187  0.00  0.00    +0.045 A 
ATOM     10  C   UNL     1       0.023  -0.701   1.195  0.00  0.00    +0.020 A 
ATOM     11 BR   UNL     1       0.056  -3.039   2.820  0.00  0.00    -0.048 Br
ENDBRANCH   1   8
BRANCH   1  12
ATOM     12  N   UNL     1       1.506  -5.006   0.633  0.00  0.00    -0.098 NA
BRANCH  12  13
ATOM     13  C   UNL     1       1.805  -6.366   0.754  0.00  0.00    +0.076 A 
ATOM     14  C   UNL     1       0.894  -7.320   0.318  0.00  0.00    +0.029 A 
ATOM     15  C   UNL     1       1.188  -8.665   0.436  0.00  0.00    +0.042 A 
ATOM     16  C   UNL     1       2.390  -9.066   0.991  0.00  0.00    +0.144 A 
ATOM     17  C   UNL     1       3.306  -8.116   1.430  0.00  0.00    +0.062 A 
ATOM     18  C   UNL     1       3.014  -6.765   1.306  0.00  0.00    +0.052 A 
ATOM     19  F   UNL     1       2.674 -10.382   1.106  0.00  0.00    -0.204 F 
BRANCH  17  20
ATOM     20  N   UNL     1       4.521  -8.521   1.991  0.00  0.00    -0.356 N 
ATOM     21  H   UNL     1       4.725  -9.466   2.074  0.00  0.00    +0.142 HD
ATOM     22  H   UNL     1       5.159  -7.858   2.297  0.00  0.00    +0.142 HD
ENDBRANCH  17  20
ENDBRANCH  12  13
ENDBRANCH   1  12
TORSDOF 4
