REMARK  Name = ZINC20241886
REMARK  15 active torsions:
REMARK  status: ('A' for Active; 'I' for Inactive)
REMARK    1  A    between atoms: C_1  and  C_2
REMARK    2  A    between atoms: C_2  and  C_3
REMARK    3  A    between atoms: C_3  and  C_5
REMARK    4  A    between atoms: C_3  and  N_6
REMARK    5  A    between atoms: N_6  and  C_7
REMARK    6  A    between atoms: N_6  and  C_30
REMARK    7  A    between atoms: C_7  and  C_8
REMARK    8  A    between atoms: C_8  and  N_9
REMARK    9  A    between atoms: C_10  and  C_12
REMARK   10  A    between atoms: C_12  and  S_13
REMARK   11  A    between atoms: S_13  and  C_16
REMARK   12  A    between atoms: C_16  and  C_17
REMARK   13  A    between atoms: C_18  and  C_29
REMARK   14  A    between atoms: C_20  and  C_22
REMARK   15  A    between atoms: C_25  and  C_28
REMARK                            x       y       z     vdW  Elec       q    Type
REMARK                         _______ _______ _______ _____ _____    ______ ____
ROOT
ATOM      1  N   UNL     1      -2.379  -1.479   2.405  0.00  0.00    -0.316 N 
ATOM      2  C   UNL     1      -2.146  -2.748   2.792  0.00  0.00    +0.234 C 
ATOM      3  O   UNL     1      -1.009  -3.169   2.837  0.00  0.00    -0.274 OA
ATOM      4  H   UNL     1      -3.410  -1.097   2.364  0.00  0.00    +0.149 HD
ENDROOT
BRANCH   1   5
ATOM      5  C   UNL     1      -1.260  -0.608   2.037  0.00  0.00    +0.086 C 
BRANCH   5   6
ATOM      6  C   UNL     1      -1.796   0.769   1.639  0.00  0.00    -0.059 C 
BRANCH   6   7
ATOM      7  N   UNL     1      -0.673   1.643   1.270  0.00  0.00    +0.384 N 
ATOM      8  H   UNL     1       0.060   1.615   2.090  0.00  0.00    -0.081 HD
BRANCH   7   9
ATOM      9  C   UNL     1      -1.119   3.034   1.111  0.00  0.00    -0.068 C 
ATOM     10  C   UNL     1       0.097   3.939   0.910  0.00  0.00    -0.015 C 
ATOM     11  C   UNL     1      -0.367   5.388   0.744  0.00  0.00    -0.002 C 
ATOM     12  C   UNL     1      -1.128   5.826   1.997  0.00  0.00    -0.000 C 
ATOM     13  C   UNL     1      -2.344   4.920   2.198  0.00  0.00    -0.002 C 
ATOM     14  C   UNL     1      -1.880   3.472   2.364  0.00  0.00    -0.015 C 
ENDBRANCH   7   9
BRANCH   7  15
ATOM     15  C   UNL     1      -0.009   1.161   0.052  0.00  0.00    -0.072 C 
ATOM     16  C   UNL     1      -0.621   1.848  -1.170  0.00  0.00    -0.013 C 
BRANCH  15  18
ATOM     17  C   UNL     1       2.129   0.673   1.251  0.00  0.00    +0.002 C 
ATOM     18  C   UNL     1       1.485   1.484   0.124  0.00  0.00    -0.019 C 
ENDBRANCH  15  18
ENDBRANCH   7  15
ENDBRANCH   6   7
ENDBRANCH   5   6
ENDBRANCH   1   5
BRANCH   2  19
ATOM     19  C   UNL     1      -3.297  -3.645   3.171  0.00  0.00    +0.261 C 
BRANCH  19  20
ATOM     20  S   UNL     1      -2.662  -5.277   3.643  0.00  0.00    -0.017 S 
ATOM     21  O   UNL     1      -2.071  -5.878   2.499  0.00  0.00    -0.174 OA
ATOM     22  O   UNL     1      -1.887  -5.133   4.825  0.00  0.00    -0.174 OA
BRANCH  20  23
ATOM     23  C   UNL     1      -4.174  -6.191   4.055  0.00  0.00    +0.225 C 
BRANCH  23  24
ATOM     24  C   UNL     1      -3.815  -7.593   4.476  0.00  0.00    +0.104 A 
ATOM     25  C   UNL     1      -3.544  -7.999   5.729  0.00  0.00    +0.127 A 
ATOM     26  O   UNL     1      -3.272  -9.318   5.673  0.00  0.00    -0.440 OA
ATOM     27  C   UNL     1      -3.380  -9.702   4.389  0.00  0.00    +0.228 A 
ATOM     28  N   UNL     1      -3.713  -8.659   3.667  0.00  0.00    -0.212 NA
ATOM     29  C   UNL     1      -3.544  -7.139   6.967  0.00  0.00    +0.088 C 
BRANCH  27  30
ATOM     30  C   UNL     1      -3.164 -11.072   3.877  0.00  0.00    +0.037 A 
ATOM     31  C   UNL     1      -3.312 -11.344   2.516  0.00  0.00    +0.013 A 
ATOM     32  C   UNL     1      -3.103 -12.623   2.044  0.00  0.00    +0.004 A 
ATOM     33  C   UNL     1      -2.760 -13.639   2.918  0.00  0.00    -0.050 A 
ATOM     34  C   UNL     1      -2.617 -13.378   4.269  0.00  0.00    +0.004 A 
ATOM     35  C   UNL     1      -2.817 -12.101   4.754  0.00  0.00    +0.013 A 
ATOM     36  C   UNL     1      -2.540 -15.035   2.397  0.00  0.00    +0.044 C 
ENDBRANCH  27  30
ENDBRANCH  23  24
ENDBRANCH  20  23
ENDBRANCH  19  20
ENDBRANCH   2  19
TORSDOF 11
