REMARK  Name = ZINC39570382
REMARK  9 active torsions:
REMARK  status: ('A' for Active; 'I' for Inactive)
REMARK    1  A    between atoms: C_1  and  C_2
REMARK    2  A    between atoms: C_2  and  C_3
REMARK    3  A    between atoms: C_2  and  C_4
REMARK    4  A    between atoms: C_2  and  C_5
REMARK    5  A    between atoms: N_13  and  C_17
REMARK    6  A    between atoms: C_17  and  C_18
REMARK    7  A    between atoms: N_20  and  C_21
REMARK    8  A    between atoms: C_21  and  C_22
REMARK    9  A    between atoms: N_24  and  C_25
REMARK                            x       y       z     vdW  Elec       q    Type
REMARK                         _______ _______ _______ _____ _____    ______ ____
ROOT
ATOM      1  C   UNL     1       5.702  -3.919  -1.184  0.00  0.00    +0.213 C 
ENDROOT
BRANCH   1  10
ATOM      2  C   UNL     1       0.701  -0.486  -1.169  0.00  0.00    -0.005 C 
ATOM      3  C   UNL     1       0.722  -2.016  -1.187  0.00  0.00    +0.006 C 
ATOM      4  C   UNL     1       1.420  -2.501  -2.459  0.00  0.00    +0.035 C 
ATOM      5  C   UNL     1       2.844  -1.956  -2.501  0.00  0.00    +0.113 C 
ATOM      6  C   UNL     1       2.841  -0.432  -2.458  0.00  0.00    +0.035 C 
ATOM      7  C   UNL     1       2.136   0.044  -1.185  0.00  0.00    +0.006 C 
ATOM      8  C   UNL     1       3.656  -2.515  -1.355  0.00  0.00    +0.247 C 
ATOM      9  O   UNL     1       3.447  -2.372  -0.169  0.00  0.00    -0.273 OA
ATOM     10  N   UNL     1       4.662  -3.205  -1.930  0.00  0.00    -0.215 N 
ATOM     11  C   UNL     1       4.593  -3.157  -3.266  0.00  0.00    +0.310 C 
ATOM     12  O   UNL     1       5.390  -3.703  -4.004  0.00  0.00    -0.252 OA
ATOM     13  N   UNL     1       3.543  -2.435  -3.700  0.00  0.00    -0.285 N 
ATOM     14  H   UNL     1       3.296  -2.265  -4.623  0.00  0.00    +0.151 HD
BRANCH   2  16
ATOM     15  C   UNL     1      -0.029   1.530   0.115  0.00  0.00    +0.011 C 
ATOM     16  C   UNL     1      -0.008  -0.000   0.097  0.00  0.00    -0.035 C 
ATOM     17  C   UNL     1       0.740  -0.514   1.329  0.00  0.00    +0.011 C 
ATOM     18  C   UNL     1      -1.443  -0.530   0.114  0.00  0.00    +0.011 C 
ENDBRANCH   2  16
ENDBRANCH   1  10
BRANCH   1  19
ATOM     19  C   UNL     1       5.255  -5.335  -0.929  0.00  0.00    +0.231 C 
ATOM     20  O   UNL     1       4.174  -5.711  -1.330  0.00  0.00    -0.274 OA
ATOM     21  N   UNL     1       6.056  -6.184  -0.255  0.00  0.00    -0.305 N 
ATOM     22  H   UNL     1       6.920  -5.883   0.066  0.00  0.00    +0.149 HD
BRANCH  21  23
ATOM     23  C   UNL     1       5.621  -7.560  -0.006  0.00  0.00    +0.200 C 
BRANCH  23  24
ATOM     24  C   UNL     1       6.691  -8.294   0.761  0.00  0.00    +0.234 C 
ATOM     25  O   UNL     1       7.715  -7.724   1.069  0.00  0.00    -0.274 OA
ATOM     26  N   UNL     1       6.508  -9.585   1.103  0.00  0.00    -0.282 N 
ATOM     27  H   UNL     1       5.664 -10.023   0.914  0.00  0.00    +0.155 HD
BRANCH  26  28
ATOM     28  C   UNL     1       7.540 -10.295   1.734  0.00  0.00    +0.072 A 
ATOM     29  C   UNL     1       8.387  -9.647   2.622  0.00  0.00    +0.029 A 
ATOM     30  C   UNL     1       9.403 -10.348   3.243  0.00  0.00    +0.043 A 
ATOM     31  C   UNL     1       9.579 -11.695   2.981  0.00  0.00    +0.161 A 
ATOM     32  C   UNL     1       8.735 -12.347   2.094  0.00  0.00    +0.195 A 
ATOM     33  C   UNL     1       7.711 -11.650   1.474  0.00  0.00    +0.182 A 
ATOM     34  F   UNL     1       6.885 -12.284   0.615  0.00  0.00    -0.200 F 
ATOM     35  F   UNL     1       8.908 -13.662   1.839  0.00  0.00    -0.199 F 
ATOM     36  F   UNL     1      10.574 -12.377   3.590  0.00  0.00    -0.202 F 
ENDBRANCH  26  28
ENDBRANCH  23  24
ENDBRANCH  21  23
ENDBRANCH   1  19
TORSDOF 6
