REMARK  Name = ZINC63222002
REMARK  2 active torsions:
REMARK  status: ('A' for Active; 'I' for Inactive)
REMARK    1  A    between atoms: C_8  and  C_10
REMARK    2  A    between atoms: C_13  and  C_15
REMARK                            x       y       z     vdW  Elec       q    Type
REMARK                         _______ _______ _______ _____ _____    ______ ____
ROOT
ATOM      1  C   UNL     1       2.223  -7.587  -0.072  0.00  0.00    +0.109 C 
ATOM      2  C   UNL     1       1.361  -7.759  -1.324  0.00  0.00    +0.151 C 
ATOM      3  C   UNL     1       0.077  -6.995  -1.100  0.00  0.00    +0.106 C 
ATOM      4  N   UNL     1      -0.323  -6.060  -1.905  0.00  0.00    -0.151 NA
ATOM      5  C   UNL     1       0.381  -5.683  -2.982  0.00  0.00    +0.331 C 
ATOM      6  O   UNL     1      -0.065  -4.816  -3.709  0.00  0.00    -0.250 OA
ATOM      7  N   UNL     1       1.566  -6.240  -3.276  0.00  0.00    -0.238 N 
ATOM      8  C   UNL     1       2.088  -7.231  -2.526  0.00  0.00    +0.231 C 
ATOM      9  O   UNL     1       3.165  -7.704  -2.822  0.00  0.00    -0.275 OA
ATOM     10  N   UNL     1      -0.642  -7.331   0.013  0.00  0.00    -0.307 N 
ATOM     11  C   UNL     1       0.047  -7.642   1.165  0.00  0.00    +0.016 C 
ATOM     12  C   UNL     1       1.383  -7.776   1.170  0.00  0.00    +0.023 C 
ATOM     13  C   UNL     1       2.066  -8.102   2.360  0.00  0.00    +0.161 C 
ATOM     14  O   UNL     1       3.272  -8.243   2.334  0.00  0.00    -0.292 OA
ATOM     15  C   UNL     1       1.333  -8.277   3.661  0.00  0.00    +0.080 C 
ATOM     16  C   UNL     1       0.063  -7.419   3.634  0.00  0.00    +0.014 C 
ATOM     17  C   UNL     1      -0.762  -7.834   2.426  0.00  0.00    +0.051 C 
ATOM     18  H   UNL     1       2.059  -5.924  -4.050  0.00  0.00    +0.159 HD
ATOM     19  H   UNL     1      -1.612  -7.350  -0.007  0.00  0.00    +0.153 HD
ENDROOT
BRANCH   1  23
ATOM     20  C   UNL     1       2.985  -4.014  -0.049  0.00  0.00    +0.160 A 
ATOM     21  C   UNL     1       4.254  -4.513  -0.059  0.00  0.00    +0.052 A 
ATOM     22  C   UNL     1       4.137  -5.915  -0.069  0.00  0.00    +0.046 A 
ATOM     23  C   UNL     1       2.819  -6.202  -0.064  0.00  0.00    +0.114 A 
ATOM     24  O   UNL     1       2.127  -5.053  -0.047  0.00  0.00    -0.457 OA
BRANCH  20  32
ATOM     25  C   UNL     1      -0.016   1.355   0.009  0.00  0.00    +0.002 A 
ATOM     26  C   UNL     1       1.155   2.100   0.002  0.00  0.00    +0.001 A 
ATOM     27  C   UNL     1       2.373   1.447  -0.013  0.00  0.00    +0.017 A 
ATOM     28  C   UNL     1       2.403   0.074  -0.020  0.00  0.00    +0.040 A 
ATOM     29  C   UNL     1       1.227  -0.713  -0.013  0.00  0.00    +0.079 A 
ATOM     30  C   UNL     1       0.002  -0.004   0.002  0.00  0.00    +0.029 A 
ATOM     31  N   UNL     1       1.417  -2.046  -0.023  0.00  0.00    -0.236 NA
ATOM     32  C   UNL     1       2.617  -2.590  -0.037  0.00  0.00    +0.144 A 
ATOM     33  S   UNL     1       3.684  -1.156  -0.040  0.00  0.00    -0.064 S 
ENDBRANCH  20  32
ENDBRANCH   1  23
TORSDOF 2
