REMARK  Name = ZINC39132401
REMARK  8 active torsions:
REMARK  status: ('A' for Active; 'I' for Inactive)
REMARK    1  A    between atoms: C_1  and  C_2
REMARK    2  A    between atoms: C_2  and  O_3
REMARK    3  A    between atoms: O_3  and  C_4
REMARK    4  A    between atoms: C_4  and  C_6
REMARK    5  A    between atoms: C_11  and  C_20
REMARK    6  A    between atoms: C_12  and  O_19
REMARK    7  A    between atoms: C_13  and  C_17
REMARK    8  A    between atoms: C_13  and  C_18
REMARK                            x       y       z     vdW  Elec       q    Type
REMARK                         _______ _______ _______ _____ _____    ______ ____
ROOT
ATOM      1  C   UNL     1       1.640  -2.399   2.480  0.00  0.00    +0.241 C 
ATOM      2  C   UNL     1       0.981  -1.857   3.735  0.00  0.00    +0.325 C 
ATOM      3  O   UNL     1       0.939  -0.693   4.059  0.00  0.00    -0.250 OA
ATOM      4  O   UNL     1       0.448  -2.885   4.431  0.00  0.00    -0.455 OA
ATOM      5  C   UNL     1       0.141  -3.924   3.494  0.00  0.00    +0.141 C 
ATOM      6  C   UNL     1       1.359  -3.931   2.542  0.00  0.00    +0.133 C 
ATOM      7  C   UNL     1       2.575  -4.566   3.218  0.00  0.00    -0.001 C 
ATOM      8  C   UNL     1       2.237  -5.955   3.753  0.00  0.00    +0.009 C 
ATOM      9  C   UNL     1       1.140  -5.815   4.815  0.00  0.00    +0.005 C 
ATOM     10  C   UNL     1      -0.120  -5.261   4.143  0.00  0.00    +0.051 C 
ATOM     11  C   UNL     1       3.026  -3.677   4.378  0.00  0.00    +0.014 C 
ATOM     12  C   UNL     1       3.712  -4.682   2.202  0.00  0.00    +0.014 C 
ATOM     13  C   UNL     1      -1.092  -3.514   2.685  0.00  0.00    +0.059 C 
ENDROOT
BRANCH   1  14
ATOM     14  C   UNL     1       1.014  -1.795   1.249  0.00  0.00    +0.324 C 
ATOM     15  O   UNL     1       0.146  -0.962   1.360  0.00  0.00    -0.250 OA
BRANCH  14  16
ATOM     16  O   UNL     1       1.421  -2.182   0.030  0.00  0.00    -0.464 OA
BRANCH  16  18
ATOM     17  C   UNL     1       1.375  -2.132  -2.386  0.00  0.00    +0.048 C 
ATOM     18  C   UNL     1       0.784  -1.568  -1.092  0.00  0.00    +0.229 C 
ENDBRANCH  16  18
ENDBRANCH  14  16
ENDBRANCH   1  14
BRANCH   6  19
ATOM     19  O   UNL     1       1.064  -4.498   1.264  0.00  0.00    -0.383 OA
ATOM     20  H   UNL     1       0.293  -4.110   0.829  0.00  0.00    +0.210 HD
ENDBRANCH   6  19
TORSDOF 4
