REMARK  Name = ZINC08896551
REMARK  11 active torsions:
REMARK  status: ('A' for Active; 'I' for Inactive)
REMARK    1  A    between atoms: C_1  and  C_2
REMARK    2  A    between atoms: C_2  and  C_3
REMARK    3  A    between atoms: C_2  and  C_4
REMARK    4  A    between atoms: C_2  and  C_5
REMARK    5  A    between atoms: C_12  and  N_17
REMARK    6  A    between atoms: C_13  and  C_14
REMARK    7  A    between atoms: N_17  and  C_18
REMARK    8  A    between atoms: C_18  and  N_20
REMARK    9  A    between atoms: C_21  and  C_23
REMARK   10  A    between atoms: C_26  and  O_30
REMARK   11  A    between atoms: O_30  and  C_31
REMARK                            x       y       z     vdW  Elec       q    Type
REMARK                         _______ _______ _______ _____ _____    ______ ____
ROOT
ATOM      1  C   UNL     1       5.444   4.640  -0.403  0.00  0.00    -0.000 C 
ATOM      2  C   UNL     1       4.548   5.546   0.447  0.00  0.00    +0.009 C 
ATOM      3  C   UNL     1       3.092   5.401   0.003  0.00  0.00    +0.037 C 
ATOM      4  C   UNL     1       2.725   3.922  -0.002  0.00  0.00    -0.023 A 
ATOM      5  C   UNL     1       3.682   2.969  -0.017  0.00  0.00    -0.004 A 
ATOM      6  S   UNL     1       2.794   1.437  -0.009  0.00  0.00    -0.077 S 
ATOM      7  C   UNL     1       1.174   2.053   0.002  0.00  0.00    +0.084 A 
ATOM      8  C   UNL     1       1.359   3.428   0.007  0.00  0.00    +0.068 A 
ATOM      9  C   UNL     1       5.165   3.177  -0.030  0.00  0.00    +0.046 C 
ENDROOT
BRANCH   8  10
ATOM     10  C   UNL     1       0.218   4.348   0.022  0.00  0.00    +0.244 C 
ATOM     11  O   UNL     1      -0.246   4.725   1.083  0.00  0.00    -0.270 OA
ATOM     12  N   UNL     1      -0.317   4.777  -1.138  0.00  0.00    -0.325 N 
ATOM     13  H   UNL     1       0.053   4.477  -1.983  0.00  0.00    +0.145 HD
ATOM     14  H   UNL     1      -1.072   5.386  -1.128  0.00  0.00    +0.145 HD
ENDBRANCH   8  10
BRANCH   1  16
ATOM     15  C   UNL     1       7.218   4.739   1.354  0.00  0.00    +0.011 C 
ATOM     16  C   UNL     1       6.913   4.968  -0.128  0.00  0.00    -0.035 C 
ATOM     17  C   UNL     1       7.806   4.062  -0.978  0.00  0.00    +0.011 C 
ATOM     18  C   UNL     1       7.185   6.431  -0.484  0.00  0.00    +0.011 C 
ENDBRANCH   1  16
BRANCH   7  19
ATOM     19  N   UNL     1      -0.016   1.344   0.009  0.00  0.00    -0.291 N 
ATOM     20  H   UNL     1      -0.863   1.817   0.016  0.00  0.00    +0.154 HD
BRANCH  19  21
ATOM     21  C   UNL     1       0.002  -0.004   0.002  0.00  0.00    +0.141 C 
ATOM     22  S   UNL     1       1.496  -0.840  -0.017  0.00  0.00    -0.018 S 
BRANCH  21  23
ATOM     23  N   UNL     1      -1.156  -0.694   0.009  0.00  0.00    -0.264 N 
ATOM     24  C   UNL     1      -1.137  -2.041   0.002  0.00  0.00    +0.250 C 
ATOM     25  O   UNL     1      -0.077  -2.635  -0.011  0.00  0.00    -0.270 OA
ATOM     26  H   UNL     1      -2.002  -0.220   0.020  0.00  0.00    +0.157 HD
BRANCH  24  27
ATOM     27  C   UNL     1      -2.405  -2.796   0.010  0.00  0.00    +0.040 A 
ATOM     28  C   UNL     1      -3.626  -2.116   0.031  0.00  0.00    +0.036 A 
ATOM     29  C   UNL     1      -4.808  -2.825   0.032  0.00  0.00    +0.085 A 
ATOM     30  C   UNL     1      -4.787  -4.215   0.025  0.00  0.00    +0.157 A 
ATOM     31  C   UNL     1      -3.574  -4.896   0.010  0.00  0.00    +0.085 A 
ATOM     32  C   UNL     1      -2.388  -4.194   0.002  0.00  0.00    +0.036 A 
ATOM     33 CL   UNL     1      -3.554  -6.631  -0.000  0.00  0.00    -0.080 Cl
ATOM     34 CL   UNL     1      -6.324  -1.980   0.051  0.00  0.00    -0.080 Cl
BRANCH  30  35
ATOM     35  O   UNL     1      -5.953  -4.910   0.032  0.00  0.00    -0.492 OA
ATOM     36  C   UNL     1      -6.498  -5.248   1.309  0.00  0.00    +0.277 C 
ENDBRANCH  30  35
ENDBRANCH  24  27
ENDBRANCH  21  23
ENDBRANCH  19  21
ENDBRANCH   7  19
TORSDOF 7
