REMARK  Name = ZINC28060619
REMARK  3 active torsions:
REMARK  status: ('A' for Active; 'I' for Inactive)
REMARK    1  A    between atoms: C_1  and  C_2
REMARK    2  A    between atoms: C_10  and  C_13
REMARK    3  A    between atoms: C_19  and  C_27
REMARK                            x       y       z     vdW  Elec       q    Type
REMARK                         _______ _______ _______ _____ _____    ______ ____
ROOT
ATOM      1  C   UNL     1      -6.902   1.314  -4.844  0.00  0.00    +0.044 C 
ATOM      2  C   UNL     1      -5.684   0.500  -4.492  0.00  0.00    -0.050 A 
ATOM      3  C   UNL     1      -5.076  -0.283  -5.458  0.00  0.00    +0.007 A 
ATOM      4  C   UNL     1      -3.957  -1.036  -5.150  0.00  0.00    +0.046 A 
ATOM      5  C   UNL     1      -3.441  -1.006  -3.868  0.00  0.00    +0.131 A 
ATOM      6  C   UNL     1      -4.055  -0.215  -2.889  0.00  0.00    +0.038 A 
ATOM      7  C   UNL     1      -5.179   0.538  -3.206  0.00  0.00    +0.016 A 
ATOM      8  C   UNL     1      -3.477  -0.207  -1.524  0.00  0.00    +0.050 C 
ATOM      9  C   UNL     1      -2.236  -0.669  -1.357  0.00  0.00    +0.026 C 
ATOM     10  C   UNL     1      -1.461  -1.150  -2.564  0.00  0.00    +0.234 C 
ATOM     11  O   UNL     1      -2.342  -1.726  -3.527  0.00  0.00    -0.479 OA
ATOM     12  C   UNL     1      -1.567  -0.721  -0.006  0.00  0.00    +0.181 C 
ATOM     13  N   UNL     1      -2.544  -0.486   1.047  0.00  0.00    -0.201 N 
ATOM     14  C   UNL     1      -3.799  -0.015   0.825  0.00  0.00    +0.240 A 
ATOM     15  N   UNL     1      -4.388   0.083   1.982  0.00  0.00    -0.092 NA
ATOM     16  N   UNL     1      -3.593  -0.300   2.921  0.00  0.00    -0.021 NA
ATOM     17  N   UNL     1      -2.453  -0.663   2.427  0.00  0.00    -0.042 NA
ATOM     18  N   UNL     1      -4.247   0.268  -0.455  0.00  0.00    -0.282 N 
ATOM     19  H   UNL     1      -5.166   0.839  -0.651  0.00  0.00    +0.155 HD
ENDROOT
BRANCH  10  20
ATOM     20  C   UNL     1      -0.737   0.016  -3.187  0.00  0.00    -0.003 A 
ATOM     21  C   UNL     1       0.630   0.143  -3.032  0.00  0.00    +0.007 A 
ATOM     22  C   UNL     1       1.295   1.210  -3.607  0.00  0.00    +0.000 A 
ATOM     23  C   UNL     1       0.590   2.155  -4.330  0.00  0.00    +0.000 A 
ATOM     24  C   UNL     1      -0.778   2.031  -4.480  0.00  0.00    +0.000 A 
ATOM     25  C   UNL     1      -1.442   0.962  -3.908  0.00  0.00    +0.007 A 
ENDBRANCH  10  20
BRANCH  12  26
ATOM     26  C   UNL     1      -0.496   0.337   0.062  0.00  0.00    +0.019 A 
ATOM     27  C   UNL     1       0.836   0.191   0.268  0.00  0.00    +0.013 A 
ATOM     28  C   UNL     1       1.638   1.316   0.290  0.00  0.00    +0.008 A 
ATOM     29  C   UNL     1       1.069   2.533   0.106  0.00  0.00    +0.045 A 
ATOM     30  S   UNL     1      -0.651   2.107  -0.108  0.00  0.00    -0.099 S 
ENDBRANCH  12  26
TORSDOF 2
