REMARK  Name = ZINC01896952
REMARK  13 active torsions:
REMARK  status: ('A' for Active; 'I' for Inactive)
REMARK    1  A    between atoms: C_1  and  C_2
REMARK    2  A    between atoms: C_5  and  N_8
REMARK    3  A    between atoms: C_9  and  C_29
REMARK    4  A    between atoms: C_12  and  S_13
REMARK    5  A    between atoms: S_13  and  C_14
REMARK    6  A    between atoms: C_14  and  C_15
REMARK    7  A    between atoms: N_17  and  N_18
REMARK    8  A    between atoms: N_18  and  C_19
REMARK    9  A    between atoms: C_19  and  C_21
REMARK   10  A    between atoms: C_32  and  C_35
REMARK   11  A    between atoms: C_35  and  C_36
REMARK   12  A    between atoms: C_35  and  C_37
REMARK   13  A    between atoms: C_35  and  C_38
REMARK                            x       y       z     vdW  Elec       q    Type
REMARK                         _______ _______ _______ _____ _____    ______ ____
ROOT
ATOM      1  N   UNL     1      -0.279  -4.451  -0.415  0.00  0.00    -0.270 N 
ATOM      2  C   UNL     1      -1.130  -5.321   0.232  0.00  0.00    +0.169 A 
ATOM      3  N   UNL     1      -0.596  -6.518   0.144  0.00  0.00    -0.128 NA
ATOM      4  N   UNL     1       0.513  -6.458  -0.502  0.00  0.00    -0.122 NA
ATOM      5  C   UNL     1       0.755  -5.221  -0.874  0.00  0.00    +0.197 A 
ENDROOT
BRANCH   1  10
ATOM      6  C   UNL     1      -0.940   1.148  -1.063  0.00  0.00    +0.044 C 
ATOM      7  C   UNL     1      -0.764  -0.339  -0.891  0.00  0.00    -0.050 A 
ATOM      8  C   UNL     1      -0.849  -1.175  -1.989  0.00  0.00    +0.005 A 
ATOM      9  C   UNL     1      -0.688  -2.538  -1.835  0.00  0.00    +0.026 A 
ATOM     10  C   UNL     1      -0.442  -3.068  -0.575  0.00  0.00    +0.051 A 
ATOM     11  C   UNL     1      -0.358  -2.226   0.525  0.00  0.00    +0.026 A 
ATOM     12  C   UNL     1      -0.514  -0.863   0.363  0.00  0.00    +0.005 A 
ENDBRANCH   1  10
BRANCH   2  13
ATOM     13  C   UNL     1      -2.402  -4.973   0.898  0.00  0.00    +0.020 A 
ATOM     14  C   UNL     1      -3.032  -3.760   0.616  0.00  0.00    +0.012 A 
ATOM     15  C   UNL     1      -4.220  -3.441   1.242  0.00  0.00    +0.005 A 
ATOM     16  C   UNL     1      -4.786  -4.321   2.147  0.00  0.00    -0.042 A 
ATOM     17  C   UNL     1      -4.167  -5.525   2.430  0.00  0.00    +0.005 A 
ATOM     18  C   UNL     1      -2.982  -5.859   1.807  0.00  0.00    +0.012 A 
BRANCH  16  19
ATOM     19  C   UNL     1      -6.083  -3.965   2.827  0.00  0.00    -0.013 C 
ATOM     20  C   UNL     1      -7.173  -3.764   1.772  0.00  0.00    +0.015 C 
ATOM     21  C   UNL     1      -6.491  -5.098   3.771  0.00  0.00    +0.015 C 
ATOM     22  C   UNL     1      -5.902  -2.674   3.627  0.00  0.00    +0.015 C 
ENDBRANCH  16  19
ENDBRANCH   2  13
BRANCH   5  23
ATOM     23  S   UNL     1       2.152  -4.658  -1.788  0.00  0.00    -0.076 S 
BRANCH  23  24
ATOM     24  C   UNL     1       3.124  -6.163  -2.075  0.00  0.00    +0.174 C 
BRANCH  24  25
ATOM     25  C   UNL     1       4.365  -5.818  -2.858  0.00  0.00    +0.239 C 
ATOM     26  O   UNL     1       4.573  -4.670  -3.189  0.00  0.00    -0.273 OA
ATOM     27  N   UNL     1       5.243  -6.785  -3.189  0.00  0.00    -0.236 N 
ATOM     28  H   UNL     1       5.076  -7.703  -2.924  0.00  0.00    +0.173 HD
BRANCH  27  29
ATOM     29  N   UNL     1       6.396  -6.464  -3.917  0.00  0.00    -0.264 N 
ATOM     30  H   UNL     1       6.563  -5.546  -4.183  0.00  0.00    +0.170 HD
BRANCH  29  31
ATOM     31  C   UNL     1       7.305  -7.465  -4.261  0.00  0.00    +0.046 C 
ATOM     32  C   UNL     1       7.077  -8.727  -3.896  0.00  0.00    +0.035 C 
BRANCH  31  33
ATOM     33  C   UNL     1       8.524  -7.126  -5.030  0.00  0.00    +0.015 A 
ATOM     34  C   UNL     1       8.787  -7.763  -6.243  0.00  0.00    +0.012 A 
ATOM     35  C   UNL     1       9.923  -7.444  -6.956  0.00  0.00    +0.021 A 
ATOM     36  C   UNL     1      10.804  -6.491  -6.470  0.00  0.00    +0.042 A 
ATOM     37  C   UNL     1      10.550  -5.855  -5.268  0.00  0.00    +0.040 A 
ATOM     38  C   UNL     1       9.412  -6.163  -4.548  0.00  0.00    +0.051 A 
ATOM     39 CL   UNL     1       9.090  -5.359  -3.043  0.00  0.00    -0.083 Cl
ATOM     40 CL   UNL     1      12.233  -6.095  -7.373  0.00  0.00    -0.083 Cl
ENDBRANCH  31  33
ENDBRANCH  29  31
ENDBRANCH  27  29
ENDBRANCH  24  25
ENDBRANCH  23  24
ENDBRANCH   5  23
TORSDOF 9
