REMARK  Name = ZINC39413386
REMARK  7 active torsions:
REMARK  status: ('A' for Active; 'I' for Inactive)
REMARK    1  A    between atoms: C_1  and  C_2
REMARK    2  A    between atoms: C_2  and  C_35
REMARK    3  A    between atoms: C_4  and  N_21
REMARK    4  A    between atoms: N_9  and  C_13
REMARK    5  A    between atoms: C_16  and  O_19
REMARK    6  A    between atoms: O_19  and  C_20
REMARK    7  A    between atoms: C_22  and  C_24
REMARK                            x       y       z     vdW  Elec       q    Type
REMARK                         _______ _______ _______ _____ _____    ______ ____
ROOT
ATOM      1  C   UNL     1      -0.104   1.631  -0.608  0.00  0.00    +0.011 C 
ATOM      2  C   UNL     1      -0.055   0.102  -0.606  0.00  0.00    -0.031 C 
ATOM      3  C   UNL     1      -1.461  -0.445  -0.367  0.00  0.00    +0.033 C 
ATOM      4  C   UNL     1      -1.455  -1.980  -0.465  0.00  0.00    +0.103 C 
ATOM      5  C   UNL     1      -0.348  -2.467   0.439  0.00  0.00    -0.013 C 
ATOM      6  C   UNL     1      -0.366  -3.375   1.375  0.00  0.00    +0.091 C 
ATOM      7  N   UNL     1       0.851  -3.455   2.032  0.00  0.00    -0.271 N 
ATOM      8  N   UNL     1       1.722  -2.459   1.557  0.00  0.00    -0.246 N 
ATOM      9  C   UNL     1       1.058  -1.889   0.381  0.00  0.00    +0.124 C 
ATOM     10  C   UNL     1       0.913  -0.369   0.483  0.00  0.00    +0.035 C 
ATOM     11  C   UNL     1       0.446  -0.385  -1.967  0.00  0.00    +0.011 C 
ATOM     12  H   UNL     1       1.070  -4.103   2.719  0.00  0.00    +0.169 HD
ENDROOT
BRANCH   8  13
ATOM     13  C   UNL     1       2.961  -2.090   2.093  0.00  0.00    +0.048 A 
ATOM     14  C   UNL     1       3.388  -2.636   3.296  0.00  0.00    +0.028 A 
ATOM     15  C   UNL     1       4.611  -2.271   3.825  0.00  0.00    +0.047 A 
ATOM     16  C   UNL     1       5.413  -1.360   3.154  0.00  0.00    +0.120 A 
ATOM     17  C   UNL     1       4.987  -0.813   1.952  0.00  0.00    +0.047 A 
ATOM     18  C   UNL     1       3.767  -1.181   1.419  0.00  0.00    +0.028 A 
BRANCH  16  19
ATOM     19  O   UNL     1       6.617  -1.001   3.675  0.00  0.00    -0.495 OA
ATOM     20  C   UNL     1       7.391  -0.058   2.930  0.00  0.00    +0.277 C 
ENDBRANCH  16  19
ENDBRANCH   8  13
BRANCH   4  21
ATOM     21  N   UNL     1      -2.743  -2.516  -0.019  0.00  0.00    -0.305 N 
ATOM     22  C   UNL     1      -3.164  -3.716  -0.464  0.00  0.00    +0.250 C 
ATOM     23  O   UNL     1      -2.434  -4.397  -1.159  0.00  0.00    -0.270 OA
ATOM     24  H   UNL     1      -3.293  -2.007   0.598  0.00  0.00    +0.150 HD
BRANCH  22  25
ATOM     25  C   UNL     1      -4.506  -4.203  -0.110  0.00  0.00    +0.101 A 
ATOM     26  C   UNL     1      -4.906  -5.491  -0.444  0.00  0.00    +0.023 A 
ATOM     27  C   UNL     1      -6.190  -5.932  -0.093  0.00  0.00    -0.027 A 
ATOM     28  C   UNL     1      -6.572  -7.333  -0.497  0.00  0.00    +0.037 C 
ATOM     29  C   UNL     1      -7.780  -7.816   0.301  0.00  0.00    +0.005 C 
ATOM     30  C   UNL     1      -8.875  -6.745   0.208  0.00  0.00    +0.006 C 
ATOM     31  C   UNL     1      -8.415  -5.521   0.995  0.00  0.00    +0.053 C 
ATOM     32  C   UNL     1      -7.028  -5.105   0.573  0.00  0.00    +0.022 A 
ATOM     33  N   UNL     1      -6.639  -3.838   0.895  0.00  0.00    -0.325 N 
ATOM     34  C   UNL     1      -5.420  -3.369   0.586  0.00  0.00    +0.261 A 
ATOM     35  O   UNL     1      -5.102  -2.235   0.896  0.00  0.00    -0.267 OA
ATOM     36  H   UNL     1      -7.260  -3.260   1.365  0.00  0.00    +0.169 HD
ENDBRANCH  22  25
ENDBRANCH   4  21
TORSDOF 4
