REMARK  Name = ZINC39938724
REMARK  9 active torsions:
REMARK  status: ('A' for Active; 'I' for Inactive)
REMARK    1  A    between atoms: C_1  and  C_2
REMARK    2  A    between atoms: C_4  and  C_38
REMARK    3  A    between atoms: C_5  and  C_36
REMARK    4  A    between atoms: C_6  and  N_15
REMARK    5  A    between atoms: N_8  and  C_9
REMARK    6  A    between atoms: C_9  and  C_10
REMARK    7  A    between atoms: C_16  and  C_18
REMARK    8  A    between atoms: C_18  and  N_19
REMARK    9  A    between atoms: C_22  and  N_25
REMARK                            x       y       z     vdW  Elec       q    Type
REMARK                         _______ _______ _______ _____ _____    ______ ____
ROOT
ATOM      1  N   UNL     1       2.816  -1.525   1.499  0.00  0.00    -0.297 N 
ATOM      2  C   UNL     1       3.050  -2.262   2.602  0.00  0.00    +0.198 C 
ATOM      3  O   UNL     1       2.156  -2.917   3.095  0.00  0.00    -0.278 OA
ATOM      4  H   UNL     1       3.508  -0.942   1.149  0.00  0.00    +0.150 HD
ENDROOT
BRANCH   1   9
ATOM      5  C   UNL     1      -0.119   1.287  -0.602  0.00  0.00    +0.029 C 
ATOM      6  C   UNL     1       0.014  -0.194  -0.241  0.00  0.00    +0.083 C 
ATOM      7  C   UNL     1       0.843  -0.913  -1.280  0.00  0.00    -0.039 C 
ATOM      8  C   UNL     1       1.705  -1.721  -0.667  0.00  0.00    +0.065 C 
ATOM      9  C   UNL     1       1.516  -1.603   0.828  0.00  0.00    +0.186 C 
ATOM     10  N   UNL     1       0.754  -0.347   1.033  0.00  0.00    -0.269 NA
ATOM     11  C   UNL     1       0.714  -0.743  -2.772  0.00  0.00    +0.042 C 
BRANCH   8  12
ATOM     12  C   UNL     1       2.659  -2.567  -1.319  0.00  0.00    +0.098 C 
ATOM     13  N   UNL     1       3.415  -3.238  -1.836  0.00  0.00    -0.191 NA
ENDBRANCH   8  12
BRANCH  10  14
ATOM     14  C   UNL     1      -0.171  -0.469   2.168  0.00  0.00    +0.129 C 
BRANCH  14  15
ATOM     15  C   UNL     1      -0.737   0.887   2.502  0.00  0.00    +0.004 A 
ATOM     16  C   UNL     1      -1.907   1.445   2.106  0.00  0.00    +0.012 A 
ATOM     17  C   UNL     1      -2.225   2.717   2.543  0.00  0.00    +0.008 A 
ATOM     18  C   UNL     1      -1.357   3.369   3.355  0.00  0.00    +0.045 A 
ATOM     19  S   UNL     1      -0.045   2.172   3.530  0.00  0.00    -0.100 S 
ENDBRANCH  14  15
ENDBRANCH  10  14
ENDBRANCH   1   9
BRANCH   2  20
ATOM     20  C   UNL     1       4.423  -2.274   3.223  0.00  0.00    +0.019 C 
BRANCH  20  21
ATOM     21  N   UNL     1       4.419  -3.147   4.405  0.00  0.00    +0.386 N 
ATOM     22  C   UNL     1       4.160  -4.530   3.988  0.00  0.00    -0.076 C 
ATOM     23  C   UNL     1       4.074  -5.431   5.223  0.00  0.00    +0.006 C 
ATOM     24  C   UNL     1       5.398  -5.366   5.989  0.00  0.00    +0.089 C 
ATOM     25  C   UNL     1       5.695  -3.909   6.353  0.00  0.00    +0.006 C 
ATOM     26  C   UNL     1       5.721  -3.064   5.077  0.00  0.00    -0.076 C 
ATOM     27  H   UNL     1       3.694  -2.848   5.040  0.00  0.00    -0.081 HD
BRANCH  24  28
ATOM     28  N   UNL     1       5.297  -6.166   7.212  0.00  0.00    -0.289 N 
ATOM     29  C   UNL     1       6.096  -7.259   7.540  0.00  0.00    +0.070 A 
ATOM     30  C   UNL     1       7.146  -7.896   6.897  0.00  0.00    +0.028 A 
ATOM     31  C   UNL     1       7.756  -8.984   7.491  0.00  0.00    +0.002 A 
ATOM     32  C   UNL     1       7.323  -9.441   8.724  0.00  0.00    +0.002 A 
ATOM     33  C   UNL     1       6.277  -8.812   9.371  0.00  0.00    +0.028 A 
ATOM     34  C   UNL     1       5.660  -7.719   8.784  0.00  0.00    +0.067 A 
ATOM     35  N   UNL     1       4.608  -6.892   9.173  0.00  0.00    -0.306 N 
ATOM     36  H   UNL     1       4.102  -6.966   9.997  0.00  0.00    +0.170 HD
ATOM     37  C   UNL     1       4.418  -5.967   8.212  0.00  0.00    +0.328 A 
ATOM     38  O   UNL     1       3.578  -5.088   8.243  0.00  0.00    -0.247 OA
ENDBRANCH  24  28
ENDBRANCH  20  21
ENDBRANCH   2  20
TORSDOF 7
