REMARK  Name = ZINC23871195
REMARK  10 active torsions:
REMARK  status: ('A' for Active; 'I' for Inactive)
REMARK    1  A    between atoms: C_1  and  C_2
REMARK    2  A    between atoms: C_2  and  N_3
REMARK    3  A    between atoms: N_3  and  C_4
REMARK    4  A    between atoms: C_4  and  C_5
REMARK    5  A    between atoms: C_6  and  C_8
REMARK    6  A    between atoms: C_11  and  N_14
REMARK    7  A    between atoms: C_15  and  C_17
REMARK    8  A    between atoms: C_17  and  S_18
REMARK    9  A    between atoms: S_18  and  C_19
REMARK   10  A    between atoms: C_29  and  C_33
REMARK                            x       y       z     vdW  Elec       q    Type
REMARK                         _______ _______ _______ _____ _____    ______ ____
ROOT
ATOM      1  C   UNL     1       3.931   6.812  -0.403  0.00  0.00    +0.173 C 
ENDROOT
BRANCH   1   3
ATOM      2  N   UNL     1       2.823   4.617  -0.673  0.00  0.00    -0.285 N 
ATOM      3  C   UNL     1       3.970   5.311  -0.532  0.00  0.00    +0.227 C 
ATOM      4  O   UNL     1       5.033   4.728  -0.508  0.00  0.00    -0.275 OA
ATOM      5  H   UNL     1       1.868   5.150  -0.785  0.00  0.00    +0.155 HD
BRANCH   2   9
ATOM      6  C   UNL     1       2.899   0.452  -0.684  0.00  0.00    +0.037 A 
ATOM      7  C   UNL     1       1.970   1.138  -1.471  0.00  0.00    +0.015 A 
ATOM      8  C   UNL     1       1.948   2.514  -1.465  0.00  0.00    +0.024 A 
ATOM      9  C   UNL     1       2.849   3.223  -0.676  0.00  0.00    +0.033 A 
ATOM     10  C   UNL     1       3.775   2.543   0.109  0.00  0.00    +0.024 A 
ATOM     11  C   UNL     1       3.803   1.167   0.107  0.00  0.00    +0.015 A 
BRANCH   6  13
ATOM     12  N   UNL     1       4.099  -1.676  -0.810  0.00  0.00    -0.298 N 
ATOM     13  C   UNL     1       2.926  -1.024  -0.688  0.00  0.00    +0.247 C 
ATOM     14  O   UNL     1       1.889  -1.651  -0.581  0.00  0.00    -0.270 OA
BRANCH  12  16
ATOM     15  C   UNL     1       4.051  -3.495  -2.443  0.00  0.00    +0.024 C 
ATOM     16  C   UNL     1       4.114  -3.133  -0.958  0.00  0.00    +0.104 C 
ENDBRANCH  12  16
BRANCH  12  17
ATOM     17  C   UNL     1       5.358  -0.928  -0.794  0.00  0.00    +0.104 C 
ATOM     18  C   UNL     1       5.973  -0.994   0.606  0.00  0.00    +0.024 C 
ENDBRANCH  12  17
ENDBRANCH   6  13
ENDBRANCH   2   9
ENDBRANCH   1   3
BRANCH   1  19
ATOM     19  S   UNL     1       5.617   7.447  -0.229  0.00  0.00    -0.077 S 
BRANCH  19  20
ATOM     20  C   UNL     1       5.283   9.172  -0.102  0.00  0.00    +0.191 A 
ATOM     21  N   UNL     1       4.026   9.598  -0.159  0.00  0.00    -0.207 NA
ATOM     22  C   UNL     1       3.714  10.880  -0.064  0.00  0.00    +0.129 A 
ATOM     23  C   UNL     1       4.753  11.839   0.093  0.00  0.00    +0.051 A 
ATOM     24  C   UNL     1       4.644  13.295   0.214  0.00  0.00    -0.025 A 
ATOM     25  C   UNL     1       5.793  13.985   0.355  0.00  0.00    -0.004 A 
ATOM     26  S   UNL     1       7.074  12.759   0.336  0.00  0.00    -0.073 S 
ATOM     27  C   UNL     1       6.061  11.317   0.140  0.00  0.00    +0.115 A 
ATOM     28  N   UNL     1       6.291  10.021   0.043  0.00  0.00    -0.214 NA
ATOM     29  C   UNL     1       5.949  15.469   0.496  0.00  0.00    +0.046 C 
ATOM     30  C   UNL     1       4.577  16.071   0.829  0.00  0.00    -0.009 C 
ATOM     31  C   UNL     1       3.539  15.493  -0.137  0.00  0.00    +0.008 C 
ATOM     32  C   UNL     1       3.300  14.017   0.182  0.00  0.00    +0.037 C 
ATOM     33  C   UNL     1       4.633  17.592   0.672  0.00  0.00    +0.008 C 
ATOM     34  N   UNL     1       2.392  11.283  -0.122  0.00  0.00    -0.343 N 
ATOM     35  H   UNL     1       2.139  12.351  -0.042  0.00  0.00    +0.144 HD
ATOM     36  H   UNL     1       1.594  10.537  -0.248  0.00  0.00    +0.144 HD
ENDBRANCH  19  20
ENDBRANCH   1  19
TORSDOF 7
