REMARK  Name = ZINC60277847
REMARK  15 active torsions:
REMARK  status: ('A' for Active; 'I' for Inactive)
REMARK    1  A    between atoms: C_1  and  C_2
REMARK    2  A    between atoms: C_2  and  C_3
REMARK    3  A    between atoms: C_3  and  C_4
REMARK    4  A    between atoms: C_4  and  C_5
REMARK    5  A    between atoms: C_5  and  C_6
REMARK    6  A    between atoms: C_6  and  N_7
REMARK    7  A    between atoms: C_8  and  C_10
REMARK    8  A    between atoms: N_15  and  C_17
REMARK    9  A    between atoms: C_17  and  C_19
REMARK   10  A    between atoms: C_17  and  C_20
REMARK   11  A    between atoms: N_22  and  C_23
REMARK   12  A    between atoms: C_23  and  C_24
REMARK   13  A    between atoms: C_27  and  C_30
REMARK   14  A    between atoms: C_30  and  O_32
REMARK   15  A    between atoms: O_32  and  C_33
REMARK                            x       y       z     vdW  Elec       q    Type
REMARK                         _______ _______ _______ _____ _____    ______ ____
ROOT
ATOM      1  C   UNL     1       1.530  -7.511  -4.460  0.00  0.00    +0.058 C 
ATOM      2  C   UNL     1       0.698  -6.974  -5.628  0.00  0.00    +0.009 C 
ATOM      3  C   UNL     1       1.607  -6.788  -6.846  0.00  0.00    -0.018 C 
ATOM      4  C   UNL     1       2.283  -8.119  -7.180  0.00  0.00    -0.078 C 
ATOM      5  N   UNL     1       3.084  -8.566  -6.034  0.00  0.00    +0.388 N 
ATOM      6  C   UNL     1       2.210  -8.815  -4.881  0.00  0.00    -0.065 C 
ATOM      7  H   UNL     1       3.756  -7.852  -5.796  0.00  0.00    -0.081 HD
ENDROOT
BRANCH   1   9
ATOM      8  N   UNL     1      -0.076  -6.760  -2.735  0.00  0.00    -0.315 N 
ATOM      9  C   UNL     1       0.631  -7.771  -3.279  0.00  0.00    +0.214 C 
ATOM     10  O   UNL     1       0.543  -8.889  -2.818  0.00  0.00    -0.276 OA
ATOM     11  H   UNL     1      -0.006  -5.866  -3.104  0.00  0.00    +0.149 HD
BRANCH   8  12
ATOM     12  C   UNL     1      -0.951  -7.013  -1.587  0.00  0.00    +0.104 C 
BRANCH  12  13
ATOM     13  C   UNL     1      -1.632  -5.708  -1.168  0.00  0.00    +0.019 C 
BRANCH  13  14
ATOM     14  C   UNL     1      -2.545  -5.972   0.031  0.00  0.00    +0.002 C 
BRANCH  14  15
ATOM     15  C   UNL     1      -3.226  -4.668   0.450  0.00  0.00    -0.000 C 
BRANCH  15  17
ATOM     16  C   UNL     1      -4.820  -3.627   2.068  0.00  0.00    +0.004 C 
ATOM     17  C   UNL     1      -4.139  -4.932   1.649  0.00  0.00    -0.003 C 
ENDBRANCH  15  17
ENDBRANCH  14  15
ENDBRANCH  13  14
ENDBRANCH  12  13
ENDBRANCH   8  12
ENDBRANCH   1   9
BRANCH   5  18
ATOM     18  C   UNL     1       3.792  -9.804  -6.386  0.00  0.00    +0.016 C 
ATOM     19  C   UNL     1       4.667  -9.558  -7.617  0.00  0.00    -0.004 C 
BRANCH  18  20
ATOM     20  C   UNL     1       4.660 -10.232  -5.231  0.00  0.00    +0.199 C 
ATOM     21  O   UNL     1       5.085  -9.405  -4.452  0.00  0.00    -0.278 OA
ATOM     22  N   UNL     1       4.964 -11.534  -5.062  0.00  0.00    -0.313 N 
ATOM     23  H   UNL     1       4.624 -12.196  -5.685  0.00  0.00    +0.149 HD
BRANCH  22  24
ATOM     24  C   UNL     1       5.807 -11.951  -3.939  0.00  0.00    +0.139 C 
BRANCH  24  25
ATOM     25  C   UNL     1       5.994 -13.445  -3.978  0.00  0.00    -0.030 A 
ATOM     26  C   UNL     1       5.098 -14.269  -3.319  0.00  0.00    +0.006 A 
ATOM     27  C   UNL     1       5.263 -15.638  -3.350  0.00  0.00    +0.015 A 
ATOM     28  C   UNL     1       6.336 -16.193  -4.050  0.00  0.00    +0.059 A 
ATOM     29  C   UNL     1       7.236 -15.356  -4.713  0.00  0.00    +0.015 A 
ATOM     30  C   UNL     1       7.056 -13.989  -4.678  0.00  0.00    +0.006 A 
BRANCH  28  31
ATOM     31  C   UNL     1       6.519 -17.658  -4.088  0.00  0.00    +0.339 C 
ATOM     32  O   UNL     1       5.735 -18.383  -3.509  0.00  0.00    -0.245 OA
BRANCH  31  33
ATOM     33  O   UNL     1       7.556 -18.190  -4.764  0.00  0.00    -0.464 OA
ATOM     34  C   UNL     1       7.671 -19.614  -4.758  0.00  0.00    +0.280 C 
ENDBRANCH  31  33
ENDBRANCH  28  31
ENDBRANCH  24  25
ENDBRANCH  22  24
ENDBRANCH  18  20
ENDBRANCH   5  18
TORSDOF 12
