REMARK  Name = ZINC09720408
REMARK  5 active torsions:
REMARK  status: ('A' for Active; 'I' for Inactive)
REMARK    1  A    between atoms: C_1  and  C_2
REMARK    2  A    between atoms: C_2  and  C_40
REMARK    3  A    between atoms: C_6  and  C_16
REMARK    4  A    between atoms: N_18  and  C_31
REMARK    5  A    between atoms: C_20  and  C_21
REMARK                            x       y       z     vdW  Elec       q    Type
REMARK                         _______ _______ _______ _____ _____    ______ ____
ROOT
ATOM      1  C   UNL     1       3.105  -1.861   2.786  0.00  0.00    +0.019 A 
ATOM      2  C   UNL     1       3.999  -1.887   3.801  0.00  0.00    +0.120 A 
ATOM      3  N   UNL     1       4.240  -0.609   4.171  0.00  0.00    -0.239 N 
ATOM      4  N   UNL     1       3.472   0.228   3.352  0.00  0.00    -0.170 NA
ATOM      5  C   UNL     1       2.789  -0.523   2.526  0.00  0.00    +0.075 A 
ENDROOT
BRANCH   1  11
ATOM      6  C   UNL     1       3.585  -4.784   5.904  0.00  0.00    +0.011 C 
ATOM      7  C   UNL     1       2.545  -5.781   5.389  0.00  0.00    -0.023 C 
ATOM      8  C   UNL     1       3.024  -6.398   4.077  0.00  0.00    +0.058 C 
ATOM      9  C   UNL     1       3.226  -5.311   3.034  0.00  0.00    +0.017 C 
ATOM     10  C   UNL     1       2.458  -4.207   3.041  0.00  0.00    +0.037 C 
ATOM     11  C   UNL     1       2.549  -3.060   2.064  0.00  0.00    +0.139 C 
ATOM     12  N   UNL     1       3.374  -3.321   0.904  0.00  0.00    -0.331 N 
ATOM     13  C   UNL     1       4.746  -3.535   1.032  0.00  0.00    +0.049 A 
ATOM     14  C   UNL     1       5.668  -2.624   0.545  0.00  0.00    +0.025 A 
ATOM     15  C   UNL     1       7.016  -2.821   0.796  0.00  0.00    +0.002 A 
ATOM     16  C   UNL     1       7.439  -3.917   1.524  0.00  0.00    +0.002 A 
ATOM     17  C   UNL     1       6.521  -4.841   1.994  0.00  0.00    +0.025 A 
ATOM     18  C   UNL     1       5.175  -4.655   1.729  0.00  0.00    +0.052 A 
ATOM     19  N   UNL     1       4.205  -5.566   2.129  0.00  0.00    -0.316 N 
ATOM     20  C   UNL     1       1.458  -4.042   4.028  0.00  0.00    +0.163 C 
ATOM     21  O   UNL     1       0.765  -3.043   3.999  0.00  0.00    -0.292 OA
ATOM     22  C   UNL     1       1.223  -5.054   5.108  0.00  0.00    +0.086 C 
ATOM     23  C   UNL     1       2.320  -6.881   6.428  0.00  0.00    +0.011 C 
ATOM     24  H   UNL     1       2.967  -3.346   0.024  0.00  0.00    +0.147 HD
ATOM     25  H   UNL     1       4.229  -6.450   1.732  0.00  0.00    +0.152 HD
ENDBRANCH   1  11
BRANCH   5  26
ATOM     26  C   UNL     1       1.831  -0.031   1.471  0.00  0.00    +0.016 C 
ATOM     27  C   UNL     1       0.411  -0.478   1.823  0.00  0.00    +0.016 C 
ATOM     28  C   UNL     1      -0.561   0.021   0.753  0.00  0.00    -0.010 C 
ATOM     29  C   UNL     1      -0.509   1.549   0.689  0.00  0.00    +0.007 C 
ATOM     30  C   UNL     1       0.911   1.996   0.337  0.00  0.00    -0.010 C 
ATOM     31  C   UNL     1       1.883   1.497   1.407  0.00  0.00    +0.016 C 
ATOM     32  C   UNL     1       1.306   1.415  -1.022  0.00  0.00    +0.007 C 
ATOM     33  C   UNL     1       1.254  -0.113  -0.959  0.00  0.00    -0.010 C 
ATOM     34  C   UNL     1      -0.166  -0.560  -0.606  0.00  0.00    +0.007 C 
ATOM     35  C   UNL     1       2.226  -0.612   0.112  0.00  0.00    +0.016 C 
ENDBRANCH   5  26
BRANCH   3  36
ATOM     36  C   UNL     1       5.109  -0.194   5.190  0.00  0.00    +0.065 A 
ATOM     37  C   UNL     1       5.813  -1.135   5.930  0.00  0.00    +0.028 A 
ATOM     38  C   UNL     1       6.672  -0.723   6.930  0.00  0.00    +0.002 A 
ATOM     39  C   UNL     1       6.823   0.624   7.202  0.00  0.00    +0.000 A 
ATOM     40  C   UNL     1       6.119   1.563   6.471  0.00  0.00    +0.002 A 
ATOM     41  C   UNL     1       5.263   1.158   5.466  0.00  0.00    +0.028 A 
ENDBRANCH   3  36
TORSDOF 3
