REMARK  Name = ZINC30782492
REMARK  3 active torsions:
REMARK  status: ('A' for Active; 'I' for Inactive)
REMARK    1  A    between atoms: C_8  and  C_10
REMARK    2  A    between atoms: C_13  and  C_19
REMARK    3  A    between atoms: C_22  and  O_25
REMARK                            x       y       z     vdW  Elec       q    Type
REMARK                         _______ _______ _______ _____ _____    ______ ____
ROOT
ATOM      1  C   UNL     1       0.002  -0.004   0.002  0.00  0.00    +0.114 C 
ATOM      2  N   UNL     1      -0.015   1.286   0.009  0.00  0.00    -0.163 NA
ATOM      3  N   UNL     1       1.149   2.049   0.002  0.00  0.00    -0.186 N 
ATOM      4  C   UNL     1       1.380   3.349   0.349  0.00  0.00    +0.186 A 
ATOM      5  N   UNL     1       2.662   3.579   0.145  0.00  0.00    -0.126 NA
ATOM      6  N   UNL     1       3.239   2.514  -0.300  0.00  0.00    -0.120 NA
ATOM      7  C   UNL     1       2.370   1.554  -0.403  0.00  0.00    +0.213 A 
ATOM      8  S   UNL     1       2.566  -0.113  -0.941  0.00  0.00    -0.078 S 
ATOM      9  C   UNL     1       1.229  -0.864   0.027  0.00  0.00    +0.138 C 
ENDROOT
BRANCH   1  17
ATOM     10  C   UNL     1      -5.553  -2.370  -0.151  0.00  0.00    +0.001 A 
ATOM     11  C   UNL     1      -4.838  -3.559  -0.140  0.00  0.00    +0.004 A 
ATOM     12  C   UNL     1      -3.460  -3.553  -0.105  0.00  0.00    +0.047 A 
ATOM     13  C   UNL     1      -2.774  -2.345  -0.081  0.00  0.00    +0.136 A 
ATOM     14  C   UNL     1      -3.503  -1.142  -0.093  0.00  0.00    +0.021 A 
ATOM     15  C   UNL     1      -4.899  -1.169  -0.128  0.00  0.00    +0.011 A 
ATOM     16  C   UNL     1      -2.505  -0.073  -0.056  0.00  0.00    +0.059 A 
ATOM     17  C   UNL     1      -1.294  -0.690  -0.035  0.00  0.00    +0.153 A 
ATOM     18  O   UNL     1      -1.464  -2.028  -0.046  0.00  0.00    -0.454 OA
ENDBRANCH   1  17
BRANCH   4  19
ATOM     19  C   UNL     1       0.383   4.315   0.857  0.00  0.00    +0.021 A 
ATOM     20  C   UNL     1      -0.858   3.865   1.312  0.00  0.00    +0.015 A 
ATOM     21  C   UNL     1      -1.784   4.769   1.789  0.00  0.00    +0.046 A 
ATOM     22  C   UNL     1      -1.487   6.125   1.807  0.00  0.00    +0.117 A 
ATOM     23  C   UNL     1      -0.256   6.577   1.350  0.00  0.00    +0.046 A 
ATOM     24  C   UNL     1       0.677   5.680   0.877  0.00  0.00    +0.015 A 
BRANCH  22  25
ATOM     25  O   UNL     1      -2.404   7.013   2.273  0.00  0.00    -0.507 OA
ATOM     26  H   UNL     1      -2.170   8.088   2.289  0.00  0.00    +0.292 HD
ENDBRANCH  22  25
ENDBRANCH   4  19
TORSDOF 3
