REMARK  Name = ZINC21583431
REMARK  14 active torsions:
REMARK  status: ('A' for Active; 'I' for Inactive)
REMARK    1  A    between atoms: C_1  and  C_2
REMARK    2  A    between atoms: C_2  and  O_3
REMARK    3  A    between atoms: O_3  and  C_4
REMARK    4  A    between atoms: C_4  and  C_6
REMARK    5  A    between atoms: C_7  and  C_22
REMARK    6  A    between atoms: C_12  and  C_14
REMARK    7  A    between atoms: C_17  and  O_20
REMARK    8  A    between atoms: O_20  and  C_21
REMARK    9  A    between atoms: C_22  and  N_23
REMARK   10  A    between atoms: C_27  and  C_29
REMARK   11  A    between atoms: C_32  and  O_37
REMARK   12  A    between atoms: C_34  and  O_35
REMARK   13  A    between atoms: O_35  and  C_36
REMARK   14  A    between atoms: O_37  and  C_38
REMARK                            x       y       z     vdW  Elec       q    Type
REMARK                         _______ _______ _______ _____ _____    ______ ____
ROOT
ATOM      1  C   UNL     1      -0.360  -1.628  -4.359  0.00  0.00    +0.076 C 
ATOM      2  C   UNL     1      -0.419  -0.395  -3.812  0.00  0.00    +0.008 C 
ATOM      3  N   UNL     1      -0.317   0.725  -4.586  0.00  0.00    -0.274 N 
ATOM      4  C   UNL     1      -0.144   0.697  -5.914  0.00  0.00    +0.304 C 
ATOM      5  O   UNL     1      -0.059   1.748  -6.518  0.00  0.00    -0.252 OA
ATOM      6  N   UNL     1      -0.068  -0.459  -6.602  0.00  0.00    -0.288 N 
ATOM      7  C   UNL     1      -0.172  -1.726  -5.859  0.00  0.00    +0.143 C 
ATOM      8  H   UNL     1      -0.375   1.721  -4.123  0.00  0.00    +0.156 HD
ATOM      9  H   UNL     1       0.070  -0.471  -7.694  0.00  0.00    +0.151 HD
ENDROOT
BRANCH   7  10
ATOM     10  C   UNL     1      -1.335  -2.501  -6.423  0.00  0.00    -0.022 A 
ATOM     11  C   UNL     1      -2.551  -1.874  -6.622  0.00  0.00    +0.009 A 
ATOM     12  C   UNL     1      -3.617  -2.581  -7.145  0.00  0.00    +0.046 A 
ATOM     13  C   UNL     1      -3.469  -3.924  -7.460  0.00  0.00    +0.120 A 
ATOM     14  C   UNL     1      -2.249  -4.552  -7.254  0.00  0.00    +0.046 A 
ATOM     15  C   UNL     1      -1.185  -3.840  -6.736  0.00  0.00    +0.009 A 
BRANCH  13  16
ATOM     16  O   UNL     1      -4.517  -4.623  -7.969  0.00  0.00    -0.495 OA
ATOM     17  C   UNL     1      -5.743  -3.912  -8.154  0.00  0.00    +0.277 C 
ENDBRANCH  13  16
ENDBRANCH   7  10
BRANCH   1  18
ATOM     18  C   UNL     1      -0.471  -2.789  -3.558  0.00  0.00    +0.339 C 
ATOM     19  O   UNL     1      -0.725  -2.689  -2.372  0.00  0.00    -0.245 OA
BRANCH  18  20
ATOM     20  O   UNL     1      -0.295  -4.008  -4.109  0.00  0.00    -0.462 OA
BRANCH  20  22
ATOM     21  C   UNL     1      -0.190  -6.422  -4.040  0.00  0.00    +0.048 C 
ATOM     22  C   UNL     1      -0.421  -5.137  -3.242  0.00  0.00    +0.229 C 
ENDBRANCH  20  22
ENDBRANCH  18  20
ENDBRANCH   1  18
BRANCH   2  23
ATOM     23  C   UNL     1      -0.606  -0.252  -2.323  0.00  0.00    -0.026 C 
BRANCH  23  24
ATOM     24  N   UNL     1      -2.038  -0.304  -2.002  0.00  0.00    +0.388 N 
ATOM     25  C   UNL     1      -2.744   0.880  -2.536  0.00  0.00    -0.078 C 
ATOM     26  C   UNL     1      -3.863   1.172  -1.504  0.00  0.00    -0.020 C 
ATOM     27  C   UNL     1      -3.152   0.834  -0.167  0.00  0.00    -0.012 C 
ATOM     28  C   UNL     1      -2.251  -0.361  -0.544  0.00  0.00    -0.034 C 
ATOM     29  H   UNL     1      -2.436  -1.218  -2.469  0.00  0.00    -0.080 HD
BRANCH  28  30
ATOM     30  C   UNL     1      -0.929  -0.257   0.172  0.00  0.00    -0.019 A 
ATOM     31  C   UNL     1      -0.232   0.937   0.163  0.00  0.00    +0.009 A 
ATOM     32  C   UNL     1       0.980   1.036   0.819  0.00  0.00    +0.046 A 
ATOM     33  C   UNL     1       1.500  -0.064   1.488  0.00  0.00    +0.124 A 
ATOM     34  C   UNL     1       0.802  -1.261   1.498  0.00  0.00    +0.091 A 
ATOM     35  C   UNL     1      -0.416  -1.357   0.844  0.00  0.00    +0.125 A 
BRANCH  35  36
ATOM     36  O   UNL     1      -1.105  -2.528   0.856  0.00  0.00    -0.495 OA
ATOM     37  C   UNL     1      -0.517  -3.619   1.568  0.00  0.00    +0.277 C 
ENDBRANCH  35  36
BRANCH  33  38
ATOM     38  O   UNL     1       2.692   0.034   2.132  0.00  0.00    -0.495 OA
ATOM     39  C   UNL     1       3.299   1.327   2.183  0.00  0.00    +0.277 C 
ENDBRANCH  33  38
ENDBRANCH  28  30
ENDBRANCH  23  24
ENDBRANCH   2  23
TORSDOF 10
