REMARK  Name = ZINC11713800
REMARK  10 active torsions:
REMARK  status: ('A' for Active; 'I' for Inactive)
REMARK    1  A    between atoms: C_3  and  C_16
REMARK    2  A    between atoms: C_6  and  C_7
REMARK    3  A    between atoms: C_7  and  S_8
REMARK    4  A    between atoms: S_8  and  C_9
REMARK    5  A    between atoms: C_16  and  O_18
REMARK    6  A    between atoms: O_18  and  C_19
REMARK    7  A    between atoms: C_19  and  C_20
REMARK    8  A    between atoms: N_22  and  C_23
REMARK    9  A    between atoms: C_26  and  S_29
REMARK   10  A    between atoms: S_29  and  N_32
REMARK                            x       y       z     vdW  Elec       q    Type
REMARK                         _______ _______ _______ _____ _____    ______ ____
ROOT
ATOM      1  O   UNL     1      -0.016   1.343   0.012  0.00  0.00    -0.452 OA
ENDROOT
BRANCH   1   2
ATOM      2  C   UNL     1       0.003  -0.004   0.012  0.00  0.00    +0.340 C 
ATOM      3  O   UNL     1       1.063  -0.597   0.007  0.00  0.00    -0.245 OA
BRANCH   2   6
ATOM      4  C   UNL     1      -2.440  -2.856   0.020  0.00  0.00    +0.005 A 
ATOM      5  C   UNL     1      -1.251  -2.157   0.016  0.00  0.00    +0.015 A 
ATOM      6  C   UNL     1      -1.266  -0.760   0.017  0.00  0.00    +0.059 A 
ATOM      7  C   UNL     1      -2.487  -0.082   0.028  0.00  0.00    +0.015 A 
ATOM      8  C   UNL     1      -3.668  -0.794   0.026  0.00  0.00    +0.005 A 
ATOM      9  C   UNL     1      -3.646  -2.178   0.025  0.00  0.00    -0.037 A 
BRANCH   9  10
ATOM     10  C   UNL     1      -4.940  -2.949   0.030  0.00  0.00    +0.109 C 
BRANCH  10  11
ATOM     11  S   UNL     1      -5.453  -3.260   1.742  0.00  0.00    -0.121 S 
BRANCH  11  12
ATOM     12  C   UNL     1      -6.961  -4.158   1.579  0.00  0.00    +0.008 A 
ATOM     13  C   UNL     1      -7.465  -4.448   0.317  0.00  0.00    +0.016 A 
ATOM     14  C   UNL     1      -8.644  -5.156   0.192  0.00  0.00    +0.021 A 
ATOM     15  C   UNL     1      -9.329  -5.567   1.323  0.00  0.00    +0.041 A 
ATOM     16  C   UNL     1      -8.832  -5.275   2.581  0.00  0.00    +0.021 A 
ATOM     17  C   UNL     1      -7.650  -4.572   2.712  0.00  0.00    +0.016 A 
ATOM     18 CL   UNL     1     -10.814  -6.452   1.162  0.00  0.00    -0.084 Cl
ENDBRANCH  11  12
ENDBRANCH  10  11
ENDBRANCH   9  10
ENDBRANCH   2   6
ENDBRANCH   1   2
BRANCH   1  19
ATOM     19  C   UNL     1       1.269   2.019   0.008  0.00  0.00    +0.328 C 
BRANCH  19  20
ATOM     20  C   UNL     1       1.051   3.511   0.009  0.00  0.00    +0.255 C 
ATOM     21  O   UNL     1      -0.076   3.959   0.014  0.00  0.00    -0.272 OA
ATOM     22  N   UNL     1       2.108   4.346   0.005  0.00  0.00    -0.283 N 
ATOM     23  H   UNL     1       3.008   3.990   0.069  0.00  0.00    +0.155 HD
BRANCH  22  24
ATOM     24  C   UNL     1       1.908   5.728  -0.091  0.00  0.00    +0.034 A 
ATOM     25  C   UNL     1       2.816   6.516  -0.787  0.00  0.00    +0.025 A 
ATOM     26  C   UNL     1       2.611   7.878  -0.886  0.00  0.00    +0.030 A 
ATOM     27  C   UNL     1       1.512   8.459  -0.282  0.00  0.00    +0.105 A 
ATOM     28  C   UNL     1       0.610   7.679   0.417  0.00  0.00    +0.030 A 
ATOM     29  C   UNL     1       0.804   6.315   0.514  0.00  0.00    +0.025 A 
BRANCH  27  30
ATOM     30  S   UNL     1       1.259  10.199  -0.404  0.00  0.00    +0.056 S 
ATOM     31  O   UNL     1       1.949  10.629  -1.569  0.00  0.00    -0.153 OA
ATOM     32  O   UNL     1      -0.132  10.422  -0.216  0.00  0.00    -0.153 OA
BRANCH  30  33
ATOM     33  N   UNL     1       2.029  10.897   0.886  0.00  0.00    -0.204 NA
ATOM     34  H   UNL     1       2.501  10.343   1.527  0.00  0.00    +0.144 HD
ATOM     35  H   UNL     1       2.007  11.860   1.000  0.00  0.00    +0.144 HD
ENDBRANCH  30  33
ENDBRANCH  27  30
ENDBRANCH  22  24
ENDBRANCH  19  20
ENDBRANCH   1  19
TORSDOF 10
