REMARK  Name = ZINC20533794
REMARK  6 active torsions:
REMARK  status: ('A' for Active; 'I' for Inactive)
REMARK    1  A    between atoms: C_7  and  C_11
REMARK    2  A    between atoms: N_12  and  N_13
REMARK    3  A    between atoms: C_16  and  S_19
REMARK    4  A    between atoms: S_19  and  C_20
REMARK    5  A    between atoms: C_20  and  C_21
REMARK    6  A    between atoms: C_21  and  C_23
REMARK                            x       y       z     vdW  Elec       q    Type
REMARK                         _______ _______ _______ _____ _____    ______ ____
ROOT
ATOM      1  N   UNL     1       6.018   9.566  -0.005  0.00  0.00    -0.205 N 
ATOM      2  C   UNL     1       5.345   8.354  -0.005  0.00  0.00    +0.232 A 
ATOM      3  N   UNL     1       3.987   8.187   0.006  0.00  0.00    -0.186 NA
ATOM      4  C   UNL     1       3.726   6.846   0.002  0.00  0.00    +0.210 A 
ATOM      5  N   UNL     1       4.873   6.210  -0.006  0.00  0.00    -0.144 NA
ATOM      6  N   UNL     1       5.898   7.165  -0.016  0.00  0.00    -0.245 N 
ATOM      7  H   UNL     1       5.451  10.509   0.005  0.00  0.00    +0.177 HD
ATOM      8  H   UNL     1       6.994   7.069  -0.030  0.00  0.00    +0.192 HD
ENDROOT
BRANCH   1  10
ATOM      9  C   UNL     1       8.049  10.726  -0.017  0.00  0.00    +0.140 C 
ATOM     10  N   UNL     1       7.418   9.590  -0.017  0.00  0.00    -0.187 NA
BRANCH   9  17
ATOM     11  C   UNL     1      11.293   7.362  -0.064  0.00  0.00    +0.001 A 
ATOM     12  C   UNL     1      12.585   7.867  -0.073  0.00  0.00    +0.002 A 
ATOM     13  C   UNL     1      12.807   9.227  -0.068  0.00  0.00    +0.026 A 
ATOM     14  C   UNL     1      11.727  10.104  -0.053  0.00  0.00    +0.047 A 
ATOM     15  C   UNL     1      10.421   9.585  -0.044  0.00  0.00    +0.008 A 
ATOM     16  C   UNL     1      10.218   8.207  -0.050  0.00  0.00    +0.010 A 
ATOM     17  C   UNL     1       9.521  10.751  -0.030  0.00  0.00    +0.020 A 
ATOM     18  C   UNL     1      10.315  11.855  -0.038  0.00  0.00    +0.093 A 
ATOM     19  N   UNL     1      11.626  11.478  -0.046  0.00  0.00    -0.360 N 
ATOM     20  H   UNL     1      12.536  12.096  -0.046  0.00  0.00    +0.165 HD
ENDBRANCH   9  17
ENDBRANCH   1  10
BRANCH   4  21
ATOM     21  S   UNL     1       2.129   6.102   0.013  0.00  0.00    -0.076 S 
BRANCH  21  22
ATOM     22  C   UNL     1       2.475   4.321   0.001  0.00  0.00    +0.157 C 
BRANCH  22  23
ATOM     23  C   UNL     1       1.176   3.558   0.009  0.00  0.00    +0.173 C 
ATOM     24  O   UNL     1       0.121   4.155   0.022  0.00  0.00    -0.291 OA
BRANCH  23  25
ATOM     25  C   UNL     1       1.187   2.087   0.002  0.00  0.00    +0.018 A 
ATOM     26  C   UNL     1      -0.017   1.374   0.010  0.00  0.00    +0.012 A 
ATOM     27  C   UNL     1       0.002  -0.004   0.002  0.00  0.00    +0.016 A 
ATOM     28  C   UNL     1       1.209  -0.684  -0.013  0.00  0.00    +0.018 A 
ATOM     29  C   UNL     1       2.405   0.015  -0.020  0.00  0.00    +0.016 A 
ATOM     30  C   UNL     1       2.402   1.393  -0.013  0.00  0.00    +0.012 A 
ATOM     31 BR   UNL     1       1.224  -2.575  -0.022  0.00  0.00    -0.050 Br
ENDBRANCH  23  25
ENDBRANCH  22  23
ENDBRANCH  21  22
ENDBRANCH   4  21
TORSDOF 6
