REMARK  Name = ZINC09072574
REMARK  10 active torsions:
REMARK  status: ('A' for Active; 'I' for Inactive)
REMARK    1  A    between atoms: C_1  and  C_2
REMARK    2  A    between atoms: C_2  and  N_3
REMARK    3  A    between atoms: C_4  and  C_28
REMARK    4  A    between atoms: C_7  and  S_8
REMARK    5  A    between atoms: S_8  and  C_9
REMARK    6  A    between atoms: C_9  and  C_11
REMARK    7  A    between atoms: C_9  and  C_12
REMARK    8  A    between atoms: N_14  and  C_15
REMARK    9  A    between atoms: C_15  and  C_16
REMARK   10  A    between atoms: N_18  and  C_19
REMARK                            x       y       z     vdW  Elec       q    Type
REMARK                         _______ _______ _______ _____ _____    ______ ____
ROOT
ATOM      1  C   UNL     1       3.888   7.517   0.421  0.00  0.00    +0.227 C 
ATOM      2  O   UNL     1       2.957   8.294   0.455  0.00  0.00    -0.275 OA
ATOM      3  N   UNL     1       3.659   6.194   0.304  0.00  0.00    -0.306 N 
ATOM      4  H   UNL     1       4.404   5.574   0.277  0.00  0.00    +0.149 HD
ENDROOT
BRANCH   1   5
ATOM      5  C   UNL     1       5.302   8.032   0.512  0.00  0.00    +0.137 C 
ATOM      6  C   UNL     1       5.819   7.854   1.941  0.00  0.00    +0.029 C 
BRANCH   5   7
ATOM      7  S   UNL     1       5.334   9.787   0.073  0.00  0.00    -0.074 S 
BRANCH   7  12
ATOM      8  N   UNL     1       7.699  11.265  -0.151  0.00  0.00    -0.302 N 
ATOM      9  C   UNL     1       9.043  11.015   0.004  0.00  0.00    +0.165 A 
ATOM     10  N   UNL     1       9.164   9.749   0.330  0.00  0.00    -0.128 NA
ATOM     11  N   UNL     1       8.004   9.199   0.393  0.00  0.00    -0.122 NA
ATOM     12  C   UNL     1       7.071  10.081   0.112  0.00  0.00    +0.193 A 
BRANCH   9  13
ATOM     13  C   UNL     1      10.143  11.987  -0.169  0.00  0.00    +0.019 A 
ATOM     14  C   UNL     1      11.446  11.539  -0.391  0.00  0.00    +0.013 A 
ATOM     15  C   UNL     1      12.468  12.450  -0.555  0.00  0.00    +0.021 A 
ATOM     16  C   UNL     1      12.204  13.809  -0.492  0.00  0.00    +0.041 A 
ATOM     17  C   UNL     1      10.915  14.259  -0.267  0.00  0.00    +0.021 A 
ATOM     18  C   UNL     1       9.884  13.357  -0.105  0.00  0.00    +0.013 A 
ATOM     19 CL   UNL     1      13.496  14.950  -0.694  0.00  0.00    -0.084 Cl
ENDBRANCH   9  13
BRANCH   8  21
ATOM     20  C   UNL     1       6.650  13.283   0.750  0.00  0.00    +0.027 C 
ATOM     21  C   UNL     1       7.071  12.537  -0.518  0.00  0.00    +0.122 C 
ENDBRANCH   8  21
ENDBRANCH   7  12
ENDBRANCH   5   7
ENDBRANCH   1   5
BRANCH   3  22
ATOM     22  C   UNL     1       2.285   5.694   0.216  0.00  0.00    +0.200 C 
BRANCH  22  23
ATOM     23  C   UNL     1       2.304   4.192   0.092  0.00  0.00    +0.234 C 
ATOM     24  O   UNL     1       3.361   3.598   0.078  0.00  0.00    -0.274 OA
ATOM     25  N   UNL     1       1.146   3.510  -0.004  0.00  0.00    -0.282 N 
ATOM     26  H   UNL     1       0.305   3.988  -0.074  0.00  0.00    +0.155 HD
BRANCH  25  27
ATOM     27  C   UNL     1       1.157   2.108  -0.003  0.00  0.00    +0.072 A 
ATOM     28  C   UNL     1       2.207   1.422   0.591  0.00  0.00    +0.029 A 
ATOM     29  C   UNL     1       2.217   0.040   0.592  0.00  0.00    +0.043 A 
ATOM     30  C   UNL     1       1.181  -0.662   0.001  0.00  0.00    +0.161 A 
ATOM     31  C   UNL     1       0.130   0.019  -0.593  0.00  0.00    +0.195 A 
ATOM     32  C   UNL     1       0.116   1.403  -0.596  0.00  0.00    +0.182 A 
ATOM     33  F   UNL     1      -0.905   2.068  -1.179  0.00  0.00    -0.200 F 
ATOM     34  F   UNL     1      -0.880  -0.668  -1.169  0.00  0.00    -0.199 F 
ATOM     35  F   UNL     1       1.195  -2.013   0.004  0.00  0.00    -0.202 F 
ENDBRANCH  25  27
ENDBRANCH  22  23
ENDBRANCH   3  22
TORSDOF 8
