REMARK  Name = ZINC61389338
REMARK  10 active torsions:
REMARK  status: ('A' for Active; 'I' for Inactive)
REMARK    1  A    between atoms: C_1  and  C_2
REMARK    2  A    between atoms: C_9  and  O_21
REMARK    3  A    between atoms: C_12  and  C_14
REMARK    4  A    between atoms: C_26  and  O_32
REMARK    5  A    between atoms: C_30  and  C_31
REMARK    6  A    between atoms: O_32  and  C_33
REMARK    7  A    between atoms: C_35  and  O_47
REMARK    8  A    between atoms: C_37  and  O_46
REMARK    9  A    between atoms: C_39  and  O_45
REMARK   10  A    between atoms: C_41  and  O_44
REMARK                            x       y       z     vdW  Elec       q    Type
REMARK                         _______ _______ _______ _____ _____    ______ ____
ROOT
ATOM      1  C   UNL     1       0.275   1.369   0.385  0.00  0.00    +0.014 C 
ATOM      2  C   UNL     1       0.197  -0.143   0.167  0.00  0.00    +0.004 C 
ATOM      3  C   UNL     1      -1.249  -0.645   0.173  0.00  0.00    +0.010 C 
ATOM      4  C   UNL     1      -1.829  -0.592   1.584  0.00  0.00    +0.005 C 
ATOM      5  C   UNL     1      -1.021  -1.531   2.487  0.00  0.00    +0.005 C 
ATOM      6  C   UNL     1       0.418  -1.023   2.555  0.00  0.00    +0.025 C 
ATOM      7  C   UNL     1       1.040  -0.916   1.194  0.00  0.00    +0.075 C 
ATOM      8  C   UNL     1       1.233  -2.295   0.536  0.00  0.00    +0.036 C 
ATOM      9  C   UNL     1       1.455  -1.954  -0.956  0.00  0.00    +0.012 C 
ATOM     10  C   UNL     1       0.821  -0.570  -1.189  0.00  0.00    +0.031 C 
ATOM     11  C   UNL     1       1.254  -1.948   3.444  0.00  0.00    +0.011 C 
ATOM     12  C   UNL     1       0.715  -1.909   4.876  0.00  0.00    +0.031 C 
ATOM     13  C   UNL     1      -0.761  -2.271   4.838  0.00  0.00    -0.065 C 
ATOM     14  C   UNL     1      -1.185  -3.212   5.629  0.00  0.00    +0.004 C 
ATOM     15  C   UNL     1      -2.618  -3.660   5.676  0.00  0.00    +0.144 C 
ATOM     16  C   UNL     1      -3.517  -2.506   5.222  0.00  0.00    +0.037 C 
ATOM     17  C   UNL     1      -3.059  -2.054   3.835  0.00  0.00    +0.014 C 
ATOM     18  C   UNL     1      -1.655  -1.532   3.882  0.00  0.00    -0.008 C 
ATOM     19  C   UNL     1      -1.748  -0.083   4.366  0.00  0.00    +0.016 C 
ENDROOT
BRANCH  10  20
ATOM     20  C   UNL     1       1.878   0.420  -1.607  0.00  0.00    -0.009 A 
ATOM     21  C   UNL     1       1.518   1.573  -2.325  0.00  0.00    +0.014 A 
ATOM     22  C   UNL     1       2.493   2.454  -2.692  0.00  0.00    +0.092 A 
ATOM     23  C   UNL     1       3.827   2.182  -2.341  0.00  0.00    +0.337 A 
ATOM     24  O   UNL     1       4.712   2.958  -2.660  0.00  0.00    -0.245 OA
ATOM     25  O   UNL     1       4.128   1.067  -1.653  0.00  0.00    -0.430 OA
ATOM     26  C   UNL     1       3.171   0.202  -1.287  0.00  0.00    +0.203 A 
ENDBRANCH  10  20
BRANCH   7  27
ATOM     27  O   UNL     1       2.320  -0.291   1.315  0.00  0.00    -0.388 OA
ATOM     28  H   UNL     1       2.910  -0.723   1.947  0.00  0.00    +0.210 HD
ENDBRANCH   7  27
BRANCH  15  29
ATOM     29  O   UNL     1      -2.958  -4.036   7.012  0.00  0.00    -0.341 OA
BRANCH  29  30
ATOM     30  C   UNL     1      -2.722  -5.414   7.306  0.00  0.00    +0.285 C 
ATOM     31  C   UNL     1      -3.344  -5.761   8.661  0.00  0.00    +0.201 C 
ATOM     32  C   UNL     1      -3.035  -7.223   8.997  0.00  0.00    +0.181 C 
ATOM     33  C   UNL     1      -1.517  -7.428   8.985  0.00  0.00    +0.201 C 
ATOM     34  C   UNL     1      -0.965  -7.017   7.618  0.00  0.00    +0.282 C 
ATOM     35  O   UNL     1      -1.314  -5.657   7.354  0.00  0.00    -0.318 OA
BRANCH  34  36
ATOM     36  O   UNL     1       0.458  -7.153   7.618  0.00  0.00    -0.365 OA
ATOM     37  H   UNL     1       0.876  -6.909   6.781  0.00  0.00    +0.213 HD
ENDBRANCH  34  36
BRANCH  33  38
ATOM     38  O   UNL     1      -0.919  -6.625  10.004  0.00  0.00    -0.384 OA
ATOM     39  H   UNL     1       0.044  -6.706  10.054  0.00  0.00    +0.210 HD
ENDBRANCH  33  38
BRANCH  32  40
ATOM     40  O   UNL     1      -3.551  -7.536  10.292  0.00  0.00    -0.386 OA
ATOM     41  H   UNL     1      -3.391  -8.448  10.570  0.00  0.00    +0.210 HD
ENDBRANCH  32  40
BRANCH  31  42
ATOM     42  O   UNL     1      -2.795  -4.912   9.671  0.00  0.00    -0.384 OA
ATOM     43  H   UNL     1      -2.951  -3.970   9.519  0.00  0.00    +0.210 HD
ENDBRANCH  31  42
ENDBRANCH  29  30
ENDBRANCH  15  29
TORSDOF 8
