REMARK  Name = ZINC05776298
REMARK  4 active torsions:
REMARK  status: ('A' for Active; 'I' for Inactive)
REMARK    1  A    between atoms: C_12  and  N_17
REMARK    2  A    between atoms: C_18  and  C_20
REMARK    3  A    between atoms: C_20  and  S_21
REMARK    4  A    between atoms: S_21  and  C_22
REMARK                            x       y       z     vdW  Elec       q    Type
REMARK                         _______ _______ _______ _____ _____    ______ ____
ROOT
ATOM      1  C   UNL     1      -3.066   2.653  10.707  0.00  0.00    +0.001 A 
ATOM      2  C   UNL     1      -1.884   1.957  10.885  0.00  0.00    +0.001 A 
ATOM      3  C   UNL     1      -1.138   1.553   9.792  0.00  0.00    +0.012 A 
ATOM      4  C   UNL     1      -1.577   1.848   8.504  0.00  0.00    +0.033 A 
ATOM      5  C   UNL     1      -2.778   2.556   8.324  0.00  0.00    +0.033 A 
ATOM      6  C   UNL     1      -3.517   2.955   9.434  0.00  0.00    +0.012 A 
ATOM      7  C   UNL     1      -3.253   2.875   6.960  0.00  0.00    +0.195 C 
ATOM      8  O   UNL     1      -4.291   3.487   6.805  0.00  0.00    -0.287 OA
ATOM      9  C   UNL     1      -2.464   2.449   5.788  0.00  0.00    +0.033 A 
ATOM     10  C   UNL     1      -2.908   2.746   4.500  0.00  0.00    +0.014 A 
ATOM     11  C   UNL     1      -2.166   2.351   3.406  0.00  0.00    +0.024 A 
ATOM     12  C   UNL     1      -0.980   1.645   3.579  0.00  0.00    +0.034 A 
ATOM     13  C   UNL     1      -0.525   1.342   4.859  0.00  0.00    +0.035 A 
ATOM     14  C   UNL     1      -1.261   1.740   5.968  0.00  0.00    +0.035 A 
ATOM     15  C   UNL     1      -0.786   1.421   7.331  0.00  0.00    +0.195 C 
ATOM     16  O   UNL     1       0.252   0.810   7.486  0.00  0.00    -0.287 OA
ENDROOT
BRANCH  12  17
ATOM     17  N   UNL     1      -0.242   1.246   2.466  0.00  0.00    -0.285 N 
ATOM     18  C   UNL     1       0.427   0.076   2.485  0.00  0.00    +0.227 C 
ATOM     19  O   UNL     1       0.454  -0.590   3.499  0.00  0.00    -0.275 OA
ATOM     20  H   UNL     1      -0.209   1.810   1.677  0.00  0.00    +0.155 HD
BRANCH  18  21
ATOM     21  C   UNL     1       1.140  -0.406   1.248  0.00  0.00    +0.172 C 
BRANCH  21  22
ATOM     22  S   UNL     1       1.938  -1.998   1.591  0.00  0.00    -0.088 S 
BRANCH  22  23
ATOM     23  C   UNL     1       2.718  -2.421   0.069  0.00  0.00    +0.160 A 
ATOM     24  N   UNL     1       2.738  -1.759  -1.072  0.00  0.00    -0.133 NA
ATOM     25  N   UNL     1       3.417  -2.276  -2.152  0.00  0.00    -0.125 NA
ATOM     26  C   UNL     1       4.044  -3.430  -2.041  0.00  0.00    +0.180 A 
ATOM     27  S   UNL     1       3.699  -3.856  -0.341  0.00  0.00    -0.025 S 
ATOM     28  N   UNL     1       4.782  -4.127  -2.991  0.00  0.00    -0.336 N 
ATOM     29  H   UNL     1       4.887  -3.764  -3.885  0.00  0.00    +0.144 HD
ATOM     30  H   UNL     1       5.191  -4.975  -2.761  0.00  0.00    +0.144 HD
ENDBRANCH  22  23
ENDBRANCH  21  22
ENDBRANCH  18  21
ENDBRANCH  12  17
TORSDOF 4
