REMARK  Name = ZINC59038783
REMARK  9 active torsions:
REMARK  status: ('A' for Active; 'I' for Inactive)
REMARK    1  A    between atoms: C_1  and  C_2
REMARK    2  A    between atoms: C_2  and  C_28
REMARK    3  A    between atoms: N_3  and  N_4
REMARK    4  A    between atoms: C_7  and  S_10
REMARK    5  A    between atoms: S_10  and  C_11
REMARK    6  A    between atoms: C_11  and  C_12
REMARK    7  A    between atoms: N_14  and  C_15
REMARK    8  A    between atoms: C_20  and  O_21
REMARK    9  A    between atoms: O_21  and  C_22
REMARK                            x       y       z     vdW  Elec       q    Type
REMARK                         _______ _______ _______ _____ _____    ______ ____
ROOT
ATOM      1  C   UNL     1       0.087  -3.652   7.464  0.00  0.00    +0.173 C 
ENDROOT
BRANCH   1   2
ATOM      2  C   UNL     1      -0.178  -4.970   8.144  0.00  0.00    +0.228 C 
ATOM      3  O   UNL     1      -0.696  -5.877   7.527  0.00  0.00    -0.275 OA
ATOM      4  N   UNL     1       0.159  -5.141   9.438  0.00  0.00    -0.282 N 
ATOM      5  H   UNL     1       0.594  -4.423   9.924  0.00  0.00    +0.155 HD
BRANCH   4   6
ATOM      6  C   UNL     1      -0.117  -6.355  10.079  0.00  0.00    +0.076 A 
ATOM      7  C   UNL     1      -0.303  -7.510   9.333  0.00  0.00    +0.027 A 
ATOM      8  C   UNL     1      -0.576  -8.706   9.968  0.00  0.00    +0.002 A 
ATOM      9  C   UNL     1      -0.663  -8.757  11.347  0.00  0.00    +0.004 A 
ATOM     10  C   UNL     1      -0.479  -7.611  12.098  0.00  0.00    +0.048 A 
ATOM     11  C   UNL     1      -0.200  -6.408  11.469  0.00  0.00    +0.150 A 
BRANCH  11  12
ATOM     12  O   UNL     1      -0.012  -5.281  12.206  0.00  0.00    -0.454 OA
BRANCH  12  13
ATOM     13  C   UNL     1      -0.002  -5.399  13.560  0.00  0.00    +0.129 A 
ATOM     14  C   UNL     1       1.101  -5.945  14.201  0.00  0.00    +0.046 A 
ATOM     15  C   UNL     1       1.109  -6.064  15.578  0.00  0.00    +0.004 A 
ATOM     16  C   UNL     1       0.020  -5.639  16.316  0.00  0.00    +0.000 A 
ATOM     17  C   UNL     1      -1.080  -5.094  15.679  0.00  0.00    +0.004 A 
ATOM     18  C   UNL     1      -1.091  -4.968  14.303  0.00  0.00    +0.046 A 
ENDBRANCH  12  13
ENDBRANCH  11  12
ENDBRANCH   4   6
ENDBRANCH   1   2
BRANCH   1  19
ATOM     19  S   UNL     1      -0.475  -3.736   5.741  0.00  0.00    -0.075 S 
BRANCH  19  23
ATOM     20  N   UNL     1      -0.023   0.259   2.535  0.00  0.00    -0.205 N 
ATOM     21  C   UNL     1       0.063  -0.492   3.692  0.00  0.00    +0.232 A 
ATOM     22  N   UNL     1      -0.340  -1.736   3.840  0.00  0.00    -0.186 NA
ATOM     23  C   UNL     1      -0.100  -2.142   5.092  0.00  0.00    +0.211 A 
ATOM     24  N   UNL     1       0.460  -1.160   5.758  0.00  0.00    -0.144 NA
ATOM     25  N   UNL     1       0.582  -0.080   4.869  0.00  0.00    -0.245 N 
ATOM     26  H   UNL     1       0.307   1.171   2.523  0.00  0.00    +0.177 HD
ATOM     27  H   UNL     1       0.962   0.792   5.063  0.00  0.00    +0.192 HD
BRANCH  20  30
ATOM     28  C   UNL     1      -0.156   1.825   0.272  0.00  0.00    +0.068 C 
ATOM     29  C   UNL     1      -0.669   0.409   0.291  0.00  0.00    +0.070 C 
ATOM     30  N   UNL     1      -0.588  -0.298   1.380  0.00  0.00    -0.184 NA
BRANCH  29  31
ATOM     31  C   UNL     1      -1.261  -0.174  -0.919  0.00  0.00    +0.035 A 
ATOM     32  C   UNL     1      -1.790  -1.438  -1.109  0.00  0.00    +0.017 A 
ATOM     33  C   UNL     1      -2.292  -1.756  -2.350  0.00  0.00    +0.008 A 
ATOM     34  C   UNL     1      -2.254  -0.828  -3.341  0.00  0.00    +0.046 A 
ATOM     35  S   UNL     1      -1.493   0.566  -2.527  0.00  0.00    -0.095 S 
ENDBRANCH  29  31
ENDBRANCH  20  30
ENDBRANCH  19  23
ENDBRANCH   1  19
TORSDOF 8
