REMARK  Name = ZINC39689211
REMARK  7 active torsions:
REMARK  status: ('A' for Active; 'I' for Inactive)
REMARK    1  A    between atoms: C_1  and  O_2
REMARK    2  A    between atoms: O_2  and  C_3
REMARK    3  A    between atoms: C_4  and  C_9
REMARK    4  A    between atoms: C_13  and  C_22
REMARK    5  A    between atoms: N_24  and  C_25
REMARK    6  A    between atoms: C_25  and  C_26
REMARK    7  A    between atoms: N_29  and  C_32
REMARK                            x       y       z     vdW  Elec       q    Type
REMARK                         _______ _______ _______ _____ _____    ______ ____
ROOT
ATOM      1  C   UNL     1      -1.562  -0.675  -2.401  0.00  0.00    +0.251 C 
ATOM      2  O   UNL     1      -0.360  -0.835  -2.309  0.00  0.00    -0.270 OA
ATOM      3  N   UNL     1      -2.218  -1.104  -3.497  0.00  0.00    -0.296 N 
ATOM      4  C   UNL     1      -1.669  -1.869  -4.642  0.00  0.00    +0.121 C 
ATOM      5  C   UNL     1      -2.777  -2.885  -4.999  0.00  0.00    +0.100 C 
ATOM      6  C   UNL     1      -4.075  -2.255  -4.466  0.00  0.00    -0.004 C 
ATOM      7  C   UNL     1      -3.652  -0.924  -3.827  0.00  0.00    +0.115 C 
ATOM      8  C   UNL     1      -4.708  -3.160  -3.413  0.00  0.00    -0.010 C 
ATOM      9  C   UNL     1      -6.026  -2.539  -2.939  0.00  0.00    -0.082 C 
ATOM     10  N   UNL     1      -6.931  -2.377  -4.083  0.00  0.00    +0.379 N 
ATOM     11  C   UNL     1      -6.355  -1.432  -5.048  0.00  0.00    -0.082 C 
ATOM     12  C   UNL     1      -5.051  -2.006  -5.611  0.00  0.00    -0.010 C 
ATOM     13  H   UNL     1      -7.069  -3.270  -4.531  0.00  0.00    -0.086 HD
ATOM     14  H   UNL     1      -7.820  -2.025  -3.760  0.00  0.00    -0.086 HD
ENDROOT
BRANCH   1  16
ATOM     15  C   UNL     1      -1.931  -0.193   0.071  0.00  0.00    +0.158 A 
ATOM     16  C   UNL     1      -2.300  -0.013  -1.315  0.00  0.00    +0.087 A 
ATOM     17  C   UNL     1      -3.377   0.809  -1.570  0.00  0.00    +0.063 A 
ATOM     18  S   UNL     1      -3.877   1.319  -0.052  0.00  0.00    -0.081 S 
ATOM     19  C   UNL     1      -2.695   0.468   0.970  0.00  0.00    +0.120 A 
ATOM     20 CL   UNL     1      -2.555   0.484   2.700  0.00  0.00    -0.072 Cl
BRANCH  15  22
ATOM     21  C   UNL     1      -1.171  -2.359   0.699  0.00  0.00    +0.277 C 
ATOM     22  O   UNL     1      -0.887  -0.981   0.447  0.00  0.00    -0.492 OA
ENDBRANCH  15  22
ENDBRANCH   1  16
BRANCH   5  23
ATOM     23  C   UNL     1      -2.516  -4.206  -4.322  0.00  0.00    +0.218 C 
ATOM     24  O   UNL     1      -2.014  -4.233  -3.218  0.00  0.00    -0.275 OA
ATOM     25  N   UNL     1      -2.840  -5.357  -4.943  0.00  0.00    -0.315 N 
ATOM     26  H   UNL     1      -3.242  -5.336  -5.826  0.00  0.00    +0.149 HD
BRANCH  25  27
ATOM     27  C   UNL     1      -2.586  -6.641  -4.285  0.00  0.00    +0.107 C 
BRANCH  27  28
ATOM     28  C   UNL     1      -3.043  -7.781  -5.198  0.00  0.00    +0.003 C 
ATOM     29  C   UNL     1      -4.563  -7.720  -5.373  0.00  0.00    -0.014 C 
ATOM     30  C   UNL     1      -5.022  -8.908  -6.221  0.00  0.00    -0.078 C 
ATOM     31  N   UNL     1      -4.655 -10.162  -5.552  0.00  0.00    +0.382 N 
ATOM     32  C   UNL     1      -3.194 -10.261  -5.445  0.00  0.00    -0.078 C 
ATOM     33  C   UNL     1      -2.665  -9.125  -4.567  0.00  0.00    -0.014 C 
ATOM     34  H   UNL     1      -5.060 -10.180  -4.628  0.00  0.00    -0.081 HD
BRANCH  31  35
ATOM     35  C   UNL     1      -5.165 -11.298  -6.330  0.00  0.00    -0.069 C 
ATOM     36  C   UNL     1      -6.706 -11.252  -6.384  0.00  0.00    -0.015 C 
ATOM     37  C   UNL     1      -7.134 -12.739  -6.302  0.00  0.00    -0.002 C 
ATOM     38  C   UNL     1      -6.113 -13.333  -5.300  0.00  0.00    -0.002 C 
ATOM     39  C   UNL     1      -4.788 -12.621  -5.641  0.00  0.00    -0.015 C 
ENDBRANCH  31  35
ENDBRANCH  27  28
ENDBRANCH  25  27
ENDBRANCH   5  23
TORSDOF 6
