REMARK  Name = ZINC63678989
REMARK  8 active torsions:
REMARK  status: ('A' for Active; 'I' for Inactive)
REMARK    1  A    between atoms: C_1  and  C_2
REMARK    2  A    between atoms: C_2  and  C_3
REMARK    3  A    between atoms: C_3  and  C_4
REMARK    4  A    between atoms: C_4  and  C_5
REMARK    5  A    between atoms: C_4  and  N_21
REMARK    6  A    between atoms: N_7  and  C_8
REMARK    7  A    between atoms: C_8  and  C_9
REMARK    8  A    between atoms: C_12  and  C_14
REMARK                            x       y       z     vdW  Elec       q    Type
REMARK                         _______ _______ _______ _____ _____    ______ ____
ROOT
ATOM      1  C   UNL     1      -2.822  -2.584  -0.109  0.00  0.00    +0.234 C 
ATOM      2  O   UNL     1      -3.279  -3.293   0.763  0.00  0.00    -0.274 OA
ATOM      3  N   UNL     1      -3.575  -2.263  -1.179  0.00  0.00    -0.307 N 
ATOM      4  H   UNL     1      -3.210  -1.696  -1.877  0.00  0.00    +0.149 HD
ENDROOT
BRANCH   1   5
ATOM      5  C   UNL     1      -1.413  -2.063   0.004  0.00  0.00    +0.160 C 
BRANCH   5   6
ATOM      6  N   UNL     1      -0.810  -2.550   1.248  0.00  0.00    -0.288 N 
ATOM      7  C   UNL     1       0.529  -2.662   1.350  0.00  0.00    +0.298 C 
ATOM      8  O   UNL     1       1.237  -2.358   0.409  0.00  0.00    -0.253 OA
ATOM      9  N   UNL     1       1.083  -3.110   2.494  0.00  0.00    -0.313 N 
ATOM     10  H   UNL     1      -1.375  -2.793   1.998  0.00  0.00    +0.151 HD
ATOM     11  H   UNL     1       0.518  -3.352   3.244  0.00  0.00    +0.146 HD
ATOM     12  H   UNL     1       2.047  -3.190   2.567  0.00  0.00    +0.146 HD
ENDBRANCH   5   6
BRANCH   5  13
ATOM     13  C   UNL     1      -1.433  -0.534   0.013  0.00  0.00    +0.031 C 
BRANCH  13  15
ATOM     14  C   UNL     1      -0.019   1.526   0.010  0.00  0.00    +0.004 C 
ATOM     15  C   UNL     1       0.002  -0.004   0.002  0.00  0.00    -0.001 C 
ENDBRANCH  13  15
ENDBRANCH   5  13
ENDBRANCH   1   5
BRANCH   3  16
ATOM     16  C   UNL     1      -4.946  -2.769  -1.289  0.00  0.00    +0.178 C 
BRANCH  16  17
ATOM     17  C   UNL     1      -5.565  -2.268  -2.568  0.00  0.00    +0.123 A 
ATOM     18  C   UNL     1      -5.523  -2.896  -3.760  0.00  0.00    +0.047 A 
ATOM     19  C   UNL     1      -6.222  -2.086  -4.678  0.00  0.00    +0.050 A 
ATOM     20  C   UNL     1      -6.657  -0.998  -3.988  0.00  0.00    +0.135 A 
ATOM     21  O   UNL     1      -6.256  -1.125  -2.709  0.00  0.00    -0.458 OA
BRANCH  20  22
ATOM     22  C   UNL     1      -7.439   0.126  -4.545  0.00  0.00    +0.017 A 
ATOM     23  C   UNL     1      -7.801   0.128  -5.893  0.00  0.00    +0.012 A 
ATOM     24  C   UNL     1      -8.531   1.179  -6.406  0.00  0.00    +0.016 A 
ATOM     25  C   UNL     1      -8.904   2.232  -5.587  0.00  0.00    +0.018 A 
ATOM     26  C   UNL     1      -8.548   2.235  -4.249  0.00  0.00    +0.016 A 
ATOM     27  C   UNL     1      -7.824   1.186  -3.723  0.00  0.00    +0.012 A 
ATOM     28 BR   UNL     1      -9.904   3.670  -6.300  0.00  0.00    -0.050 Br
ENDBRANCH  20  22
ENDBRANCH  16  17
ENDBRANCH   3  16
TORSDOF 7
