REMARK  Name = ZINC20679685
REMARK  8 active torsions:
REMARK  status: ('A' for Active; 'I' for Inactive)
REMARK    1  A    between atoms: C_1  and  C_2
REMARK    2  A    between atoms: C_2  and  C_3
REMARK    3  A    between atoms: C_2  and  C_4
REMARK    4  A    between atoms: C_2  and  N_5
REMARK    5  A    between atoms: N_5  and  S_6
REMARK    6  A    between atoms: S_6  and  C_9
REMARK    7  A    between atoms: C_22  and  C_25
REMARK    8  A    between atoms: C_28  and  O_31
REMARK                            x       y       z     vdW  Elec       q    Type
REMARK                         _______ _______ _______ _____ _____    ______ ____
ROOT
ATOM      1  C   UNL     1      -3.572   5.353  -1.633  0.00  0.00    +0.106 A 
ATOM      2  C   UNL     1      -3.415   6.721  -1.503  0.00  0.00    +0.030 A 
ATOM      3  C   UNL     1      -2.151   7.275  -1.484  0.00  0.00    +0.025 A 
ATOM      4  C   UNL     1      -1.028   6.465  -1.598  0.00  0.00    +0.031 A 
ATOM      5  C   UNL     1      -1.195   5.081  -1.720  0.00  0.00    -0.018 A 
ATOM      6  C   UNL     1      -2.461   4.537  -1.741  0.00  0.00    +0.034 A 
ATOM      7  C   UNL     1       0.027   4.252  -1.820  0.00  0.00    +0.049 C 
ATOM      8  C   UNL     1       0.010   2.943  -2.523  0.00  0.00    -0.023 C 
ATOM      9  C   UNL     1       1.204   2.738  -3.065  0.00  0.00    -0.030 C 
ATOM     10  C   UNL     1       2.114   3.938  -2.796  0.00  0.00    +0.033 C 
ATOM     11  C   UNL     1       1.091   5.066  -2.615  0.00  0.00    +0.029 C 
ATOM     12  C   UNL     1       1.481   6.218  -1.706  0.00  0.00    +0.105 C 
ATOM     13  N   UNL     1       0.243   7.052  -1.597  0.00  0.00    -0.336 N 
ATOM     14  H   UNL     1       0.323   8.146  -1.515  0.00  0.00    +0.147 HD
ENDROOT
BRANCH  12  15
ATOM     15  C   UNL     1       2.594   7.020  -2.330  0.00  0.00    -0.027 A 
ATOM     16  C   UNL     1       2.307   7.946  -3.317  0.00  0.00    +0.009 A 
ATOM     17  C   UNL     1       3.325   8.687  -3.886  0.00  0.00    +0.046 A 
ATOM     18  C   UNL     1       4.636   8.493  -3.477  0.00  0.00    +0.117 A 
ATOM     19  C   UNL     1       4.921   7.560  -2.491  0.00  0.00    +0.046 A 
ATOM     20  C   UNL     1       3.900   6.826  -1.920  0.00  0.00    +0.009 A 
BRANCH  18  21
ATOM     21  O   UNL     1       5.639   9.217  -4.040  0.00  0.00    -0.507 OA
ATOM     22  H   UNL     1       6.678   9.062  -3.714  0.00  0.00    +0.292 HD
ENDBRANCH  18  21
ENDBRANCH  12  15
BRANCH   1  23
ATOM     23  S   UNL     1      -5.187   4.651  -1.661  0.00  0.00    +0.059 S 
ATOM     24  O   UNL     1      -5.108   3.423  -0.949  0.00  0.00    -0.153 OA
ATOM     25  O   UNL     1      -6.087   5.687  -1.294  0.00  0.00    -0.153 OA
BRANCH  23  26
ATOM     26  N   UNL     1      -5.526   4.264  -3.235  0.00  0.00    -0.185 NA
ATOM     27  H   UNL     1      -5.791   3.227  -3.489  0.00  0.00    +0.149 HD
BRANCH  26  29
ATOM     28  C   UNL     1      -4.414   6.175  -4.281  0.00  0.00    +0.029 C 
ATOM     29  C   UNL     1      -5.686   5.326  -4.231  0.00  0.00    +0.032 C 
ATOM     30  C   UNL     1      -5.937   4.702  -5.606  0.00  0.00    +0.029 C 
ATOM     31  C   UNL     1      -6.875   6.210  -3.848  0.00  0.00    +0.029 C 
ENDBRANCH  26  29
ENDBRANCH  23  26
ENDBRANCH   1  23
TORSDOF 5
