REMARK  Name = ZINC20696630
REMARK  11 active torsions:
REMARK  status: ('A' for Active; 'I' for Inactive)
REMARK    1  A    between atoms: C_1  and  C_2
REMARK    2  A    between atoms: C_2  and  N_3
REMARK    3  A    between atoms: N_3  and  C_4
REMARK    4  A    between atoms: N_3  and  C_6
REMARK    5  A    between atoms: C_4  and  C_5
REMARK    6  A    between atoms: C_9  and  C_12
REMARK    7  A    between atoms: C_23  and  S_28
REMARK    8  A    between atoms: S_28  and  N_31
REMARK    9  A    between atoms: N_31  and  C_32
REMARK   10  A    between atoms: C_35  and  O_38
REMARK   11  A    between atoms: O_38  and  C_39
REMARK                            x       y       z     vdW  Elec       q    Type
REMARK                         _______ _______ _______ _____ _____    ______ ____
ROOT
ATOM      1  C   UNL     1      -3.442  -3.809  -0.071  0.00  0.00    +0.105 C 
ATOM      2  C   UNL     1      -4.093  -3.675   1.294  0.00  0.00    +0.029 C 
ATOM      3  C   UNL     1      -4.128  -4.928   2.180  0.00  0.00    +0.033 C 
ATOM      4  C   UNL     1      -5.394  -4.689   3.004  0.00  0.00    -0.030 C 
ATOM      5  C   UNL     1      -6.229  -3.902   2.335  0.00  0.00    -0.023 C 
ATOM      6  C   UNL     1      -5.623  -3.580   1.017  0.00  0.00    +0.049 C 
ATOM      7  C   UNL     1      -5.882  -2.296   0.330  0.00  0.00    -0.018 A 
ATOM      8  C   UNL     1      -7.038  -1.572   0.525  0.00  0.00    +0.034 A 
ATOM      9  C   UNL     1      -7.251  -0.396  -0.170  0.00  0.00    +0.109 A 
ATOM     10  C   UNL     1      -6.300   0.059  -1.066  0.00  0.00    +0.030 A 
ATOM     11  C   UNL     1      -5.136  -0.655  -1.262  0.00  0.00    +0.025 A 
ATOM     12  C   UNL     1      -4.910  -1.835  -0.565  0.00  0.00    +0.031 A 
ATOM     13  N   UNL     1      -3.714  -2.534  -0.769  0.00  0.00    -0.336 N 
ATOM     14  H   UNL     1      -2.970  -2.119  -1.465  0.00  0.00    +0.147 HD
ENDROOT
BRANCH   1  18
ATOM     15  C   UNL     1       0.771  -4.390   0.348  0.00  0.00    +0.030 A 
ATOM     16  C   UNL     1      -0.051  -5.463   0.030  0.00  0.00    +0.023 A 
ATOM     17  C   UNL     1      -1.413  -5.273  -0.101  0.00  0.00    +0.007 A 
ATOM     18  C   UNL     1      -1.957  -4.014   0.079  0.00  0.00    -0.027 A 
ATOM     19  C   UNL     1      -1.142  -2.945   0.401  0.00  0.00    +0.007 A 
ATOM     20  C   UNL     1       0.221  -3.128   0.533  0.00  0.00    +0.023 A 
BRANCH  15  21
ATOM     21  N   UNL     1       2.149  -4.579   0.480  0.00  0.00    -0.330 N 
BRANCH  21  23
ATOM     22  C   UNL     1       3.143  -3.334   2.336  0.00  0.00    +0.024 C 
ATOM     23  C   UNL     1       3.015  -3.446   0.815  0.00  0.00    +0.102 C 
ENDBRANCH  21  23
BRANCH  21  24
ATOM     24  C   UNL     1       2.728  -5.910   0.283  0.00  0.00    +0.102 C 
ATOM     25  C   UNL     1       3.103  -6.091  -1.189  0.00  0.00    +0.024 C 
ENDBRANCH  21  24
ENDBRANCH  15  21
ENDBRANCH   1  18
BRANCH   9  26
ATOM     26  S   UNL     1      -8.732   0.523   0.086  0.00  0.00    +0.072 S 
ATOM     27  O   UNL     1      -9.144   0.267   1.422  0.00  0.00    -0.150 OA
ATOM     28  O   UNL     1      -8.483   1.837  -0.396  0.00  0.00    -0.150 OA
BRANCH  26  29
ATOM     29  N   UNL     1      -9.891  -0.130  -0.900  0.00  0.00    -0.216 N 
ATOM     30  H   UNL     1     -10.789  -0.590  -0.463  0.00  0.00    +0.174 HD
BRANCH  29  31
ATOM     31  C   UNL     1      -9.726  -0.098  -2.290  0.00  0.00    +0.048 A 
ATOM     32  C   UNL     1      -9.928   1.087  -2.986  0.00  0.00    +0.028 A 
ATOM     33  C   UNL     1      -9.760   1.119  -4.356  0.00  0.00    +0.047 A 
ATOM     34  C   UNL     1      -9.401  -0.034  -5.039  0.00  0.00    +0.120 A 
ATOM     35  C   UNL     1      -9.206  -1.219  -4.345  0.00  0.00    +0.047 A 
ATOM     36  C   UNL     1      -9.367  -1.252  -2.974  0.00  0.00    +0.028 A 
BRANCH  34  37
ATOM     37  O   UNL     1      -9.242  -0.003  -6.389  0.00  0.00    -0.495 OA
ATOM     38  C   UNL     1      -9.459   1.251  -7.039  0.00  0.00    +0.277 C 
ENDBRANCH  34  37
ENDBRANCH  29  31
ENDBRANCH  26  29
ENDBRANCH   9  26
TORSDOF 8
