REMARK  Name = ZINC15105673
REMARK  8 active torsions:
REMARK  status: ('A' for Active; 'I' for Inactive)
REMARK    1  A    between atoms: C_1  and  O_2
REMARK    2  A    between atoms: O_2  and  C_3
REMARK    3  A    between atoms: C_6  and  C_9
REMARK    4  A    between atoms: C_16  and  C_17
REMARK    5  A    between atoms: C_16  and  N_58
REMARK    6  A    between atoms: N_19  and  C_20
REMARK    7  A    between atoms: C_20  and  C_21
REMARK    8  A    between atoms: N_23  and  C_24
REMARK                            x       y       z     vdW  Elec       q    Type
REMARK                         _______ _______ _______ _____ _____    ______ ____
ROOT
ATOM      1  C   UNL     1       1.587   3.337   0.042  0.00  0.00    +0.197 C 
ATOM      2  O   UNL     1       0.654   4.112   0.060  0.00  0.00    -0.278 OA
ATOM      3  N   UNL     1       1.357   2.009   0.026  0.00  0.00    -0.308 N 
ATOM      4  H   UNL     1       2.103   1.388   0.011  0.00  0.00    +0.149 HD
ENDROOT
BRANCH   1   5
ATOM      5  C   UNL     1       3.001   3.857   0.038  0.00  0.00    +0.019 C 
BRANCH   5  12
ATOM      6  C   UNL     1       4.262   5.841   0.281  0.00  0.00    -0.037 C 
ATOM      7  C   UNL     1       4.231   7.364   0.531  0.00  0.00    -0.011 C 
ATOM      8  C   UNL     1       4.059   8.075  -0.787  0.00  0.00    -0.001 C 
ATOM      9  C   UNL     1       2.581   8.367  -1.115  0.00  0.00    -0.002 C 
ATOM     10  C   UNL     1       1.668   7.181  -0.761  0.00  0.00    -0.019 C 
ATOM     11  C   UNL     1       2.299   5.863  -1.136  0.00  0.00    -0.077 C 
ATOM     12  N   UNL     1       2.949   5.330   0.101  0.00  0.00    +0.390 N 
ATOM     13  H   UNL     1       2.381   5.608   0.911  0.00  0.00    -0.080 HD
BRANCH   6  17
ATOM     14  C   UNL     1       5.966   3.905   3.688  0.00  0.00    +0.120 A 
ATOM     15  C   UNL     1       6.753   4.177   2.578  0.00  0.00    +0.046 A 
ATOM     16  C   UNL     1       6.199   4.803   1.478  0.00  0.00    +0.005 A 
ATOM     17  C   UNL     1       4.863   5.158   1.482  0.00  0.00    -0.061 A 
ATOM     18  C   UNL     1       4.079   4.893   2.590  0.00  0.00    +0.005 A 
ATOM     19  C   UNL     1       4.626   4.262   3.690  0.00  0.00    +0.046 A 
BRANCH  14  21
ATOM     20  C   UNL     1       5.640   3.040   5.878  0.00  0.00    +0.277 C 
ATOM     21  O   UNL     1       6.508   3.289   4.771  0.00  0.00    -0.495 OA
ENDBRANCH  14  21
ENDBRANCH   6  17
ENDBRANCH   5  12
ENDBRANCH   1   5
BRANCH   3  22
ATOM     22  C   UNL     1      -0.017   1.502   0.030  0.00  0.00    +0.200 C 
BRANCH  22  23
ATOM     23  C   UNL     1       0.003  -0.005   0.009  0.00  0.00    +0.234 C 
ATOM     24  O   UNL     1       1.061  -0.597  -0.007  0.00  0.00    -0.274 OA
ATOM     25  N   UNL     1      -1.156  -0.694   0.009  0.00  0.00    -0.282 N 
ATOM     26  H   UNL     1      -2.000  -0.223   0.088  0.00  0.00    +0.155 HD
BRANCH  25  27
ATOM     27  C   UNL     1      -1.140  -2.091  -0.104  0.00  0.00    +0.072 A 
ATOM     28  C   UNL     1      -0.112  -2.823   0.473  0.00  0.00    +0.029 A 
ATOM     29  C   UNL     1      -0.100  -4.201   0.365  0.00  0.00    +0.043 A 
ATOM     30  C   UNL     1      -1.106  -4.852  -0.328  0.00  0.00    +0.161 A 
ATOM     31  C   UNL     1      -2.132  -4.124  -0.910  0.00  0.00    +0.195 A 
ATOM     32  C   UNL     1      -2.151  -2.744  -0.800  0.00  0.00    +0.182 A 
ATOM     33  F   UNL     1      -3.150  -2.033  -1.368  0.00  0.00    -0.200 F 
ATOM     34  F   UNL     1      -3.113  -4.761  -1.587  0.00  0.00    -0.199 F 
ATOM     35  F   UNL     1      -1.088  -6.198  -0.436  0.00  0.00    -0.202 F 
ENDBRANCH  25  27
ENDBRANCH  22  23
ENDBRANCH   3  22
TORSDOF 7
