REMARK  Name = ZINC16231229
REMARK  9 active torsions:
REMARK  status: ('A' for Active; 'I' for Inactive)
REMARK    1  A    between atoms: C_1  and  C_2
REMARK    2  A    between atoms: C_2  and  N_3
REMARK    3  A    between atoms: C_12  and  C_14
REMARK    4  A    between atoms: N_16  and  N_17
REMARK    5  A    between atoms: C_18  and  C_20
REMARK    6  A    between atoms: C_20  and  C_22
REMARK    7  A    between atoms: C_20  and  N_25
REMARK    8  A    between atoms: C_22  and  C_23
REMARK    9  A    between atoms: C_22  and  C_24
REMARK                            x       y       z     vdW  Elec       q    Type
REMARK                         _______ _______ _______ _____ _____    ______ ____
ROOT
ATOM      1  N   UNL     1       7.159   4.953  -0.146  0.00  0.00    -0.233 N 
ATOM      2  C   UNL     1       6.117   4.105  -0.258  0.00  0.00    +0.250 C 
ATOM      3  O   UNL     1       6.312   2.939  -0.531  0.00  0.00    -0.272 OA
ATOM      4  H   UNL     1       7.011   5.867   0.142  0.00  0.00    +0.173 HD
ENDROOT
BRANCH   1   7
ATOM      5  C   UNL     1       9.496   5.364  -0.336  0.00  0.00    +0.281 C 
ATOM      6  O   UNL     1       9.310   6.509   0.026  0.00  0.00    -0.267 OA
ATOM      7  N   UNL     1       8.455   4.515  -0.447  0.00  0.00    -0.229 N 
ATOM      8  H   UNL     1       8.603   3.601  -0.736  0.00  0.00    +0.173 HD
BRANCH   5  18
ATOM      9  N   UNL     1      12.221   3.191  -1.337  0.00  0.00    -0.229 N 
ATOM     10  C   UNL     1      13.362   3.907  -1.277  0.00  0.00    +0.275 A 
ATOM     11  O   UNL     1      14.431   3.402  -1.567  0.00  0.00    -0.266 OA
ATOM     12  C   UNL     1      13.285   5.312  -0.853  0.00  0.00    +0.050 A 
ATOM     13  C   UNL     1      14.403   6.136  -0.759  0.00  0.00    +0.014 A 
ATOM     14  C   UNL     1      14.246   7.444  -0.354  0.00  0.00    +0.001 A 
ATOM     15  C   UNL     1      12.989   7.944  -0.040  0.00  0.00    +0.001 A 
ATOM     16  C   UNL     1      11.869   7.144  -0.127  0.00  0.00    +0.011 A 
ATOM     17  C   UNL     1      12.004   5.823  -0.539  0.00  0.00    +0.020 A 
ATOM     18  C   UNL     1      10.862   4.902  -0.653  0.00  0.00    +0.155 A 
ATOM     19  N   UNL     1      11.071   3.668  -1.044  0.00  0.00    -0.163 NA
BRANCH   9  21
ATOM     20  C   UNL     1      12.513   0.898  -0.536  0.00  0.00    +0.029 C 
ATOM     21  C   UNL     1      12.303   1.791  -1.761  0.00  0.00    +0.144 C 
ENDBRANCH   9  21
ENDBRANCH   5  18
ENDBRANCH   1   7
BRANCH   2  22
ATOM     22  C   UNL     1       4.712   4.604  -0.044  0.00  0.00    +0.162 C 
BRANCH  22  23
ATOM     23  N   UNL     1       3.779   3.788  -0.825  0.00  0.00    -0.316 N 
ATOM     24  C   UNL     1       2.567   4.311  -1.217  0.00  0.00    +0.150 C 
ATOM     25  N   UNL     1       2.243   5.524  -0.899  0.00  0.00    -0.113 NA
ATOM     26  S   UNL     1       0.722   5.778  -1.548  0.00  0.00    +0.101 S 
ATOM     27  O   UNL     1      -0.194   5.906  -0.469  0.00  0.00    -0.146 OA
ATOM     28  O   UNL     1       0.849   6.740  -2.586  0.00  0.00    -0.146 OA
ATOM     29  C   UNL     1       0.448   4.199  -2.305  0.00  0.00    +0.123 A 
ATOM     30  C   UNL     1       1.624   3.499  -2.001  0.00  0.00    +0.043 A 
ATOM     31  C   UNL     1       1.728   2.180  -2.468  0.00  0.00    +0.013 A 
ATOM     32  C   UNL     1       0.703   1.616  -3.194  0.00  0.00    +0.001 A 
ATOM     33  C   UNL     1      -0.444   2.334  -3.483  0.00  0.00    +0.002 A 
ATOM     34  C   UNL     1      -0.566   3.639  -3.025  0.00  0.00    +0.030 A 
ATOM     35  H   UNL     1       4.016   2.878  -1.066  0.00  0.00    +0.148 HD
ENDBRANCH  22  23
BRANCH  22  36
ATOM     36  C   UNL     1       4.356   4.506   1.440  0.00  0.00    +0.012 C 
ATOM     37  C   UNL     1       5.298   5.398   2.251  0.00  0.00    +0.009 C 
ATOM     38  C   UNL     1       2.912   4.966   1.650  0.00  0.00    +0.009 C 
ENDBRANCH  22  36
ENDBRANCH   2  22
TORSDOF 6
