REMARK  Name = ZINC09615005
REMARK  12 active torsions:
REMARK  status: ('A' for Active; 'I' for Inactive)
REMARK    1  A    between atoms: C_1  and  C_2
REMARK    2  A    between atoms: C_2  and  C_3
REMARK    3  A    between atoms: C_3  and  C_4
REMARK    4  A    between atoms: C_4  and  N_5
REMARK    5  A    between atoms: C_9  and  S_30
REMARK    6  A    between atoms: C_13  and  S_14
REMARK    7  A    between atoms: S_14  and  C_15
REMARK    8  A    between atoms: C_15  and  C_16
REMARK    9  A    between atoms: N_18  and  C_19
REMARK   10  A    between atoms: C_24  and  C_29
REMARK   11  A    between atoms: C_26  and  C_28
REMARK   12  A    between atoms: S_30  and  N_33
REMARK                            x       y       z     vdW  Elec       q    Type
REMARK                         _______ _______ _______ _____ _____    ______ ____
ROOT
ATOM      1  N   UNL     1      -0.698   1.558   1.213  0.00  0.00    -0.319 N 
ATOM      2  C   UNL     1      -0.448   2.740   1.891  0.00  0.00    +0.070 A 
ATOM      3  C   UNL     1       0.440   3.788   1.701  0.00  0.00    +0.030 A 
ATOM      4  C   UNL     1       0.444   4.853   2.578  0.00  0.00    +0.030 A 
ATOM      5  C   UNL     1      -0.436   4.884   3.649  0.00  0.00    +0.107 A 
ATOM      6  C   UNL     1      -1.331   3.856   3.849  0.00  0.00    +0.058 A 
ATOM      7  C   UNL     1      -1.344   2.768   2.973  0.00  0.00    +0.092 A 
ATOM      8  N   UNL     1      -2.077   1.625   2.915  0.00  0.00    -0.222 NA
ATOM      9  C   UNL     1      -1.700   0.913   1.881  0.00  0.00    +0.170 A 
ENDROOT
BRANCH   5  10
ATOM     10  S   UNL     1      -0.417   6.253   4.758  0.00  0.00    +0.056 S 
ATOM     11  O   UNL     1      -0.958   5.789   5.987  0.00  0.00    -0.153 OA
ATOM     12  O   UNL     1       0.878   6.832   4.666  0.00  0.00    -0.153 OA
BRANCH  10  13
ATOM     13  N   UNL     1      -1.480   7.377   4.167  0.00  0.00    -0.204 NA
ATOM     14  H   UNL     1      -1.968   7.199   3.348  0.00  0.00    +0.144 HD
ATOM     15  H   UNL     1      -1.614   8.213   4.640  0.00  0.00    +0.144 HD
ENDBRANCH  10  13
ENDBRANCH   5  10
BRANCH   1  16
ATOM     16  C   UNL     1      -0.013   1.086   0.008  0.00  0.00    +0.124 C 
BRANCH  16  17
ATOM     17  C   UNL     1      -0.753   1.593  -1.232  0.00  0.00    +0.021 C 
BRANCH  17  19
ATOM     18  C   UNL     1      -0.777   1.606  -3.730  0.00  0.00    +0.004 C 
ATOM     19  C   UNL     1      -0.037   1.099  -2.490  0.00  0.00    -0.002 C 
ENDBRANCH  17  19
ENDBRANCH  16  17
ENDBRANCH   1  16
BRANCH   9  20
ATOM     20  S   UNL     1      -2.384  -0.645   1.422  0.00  0.00    -0.078 S 
BRANCH  20  21
ATOM     21  C   UNL     1      -3.617  -0.845   2.732  0.00  0.00    +0.173 C 
BRANCH  21  22
ATOM     22  C   UNL     1      -4.349  -2.148   2.538  0.00  0.00    +0.224 C 
ATOM     23  O   UNL     1      -4.064  -2.871   1.606  0.00  0.00    -0.275 OA
ATOM     24  N   UNL     1      -5.319  -2.511   3.400  0.00  0.00    -0.312 N 
ATOM     25  H   UNL     1      -5.547  -1.934   4.145  0.00  0.00    +0.149 HD
BRANCH  24  26
ATOM     26  C   UNL     1      -6.030  -3.778   3.211  0.00  0.00    +0.076 C 
ATOM     27  C   UNL     1      -7.184  -3.574   2.227  0.00  0.00    +0.022 C 
ATOM     28  C   UNL     1      -7.926  -4.897   2.030  0.00  0.00    +0.002 C 
ATOM     29  C   UNL     1      -8.481  -5.376   3.374  0.00  0.00    +0.003 C 
ATOM     30  C   UNL     1      -7.327  -5.580   4.358  0.00  0.00    -0.009 C 
ATOM     31  C   UNL     1      -6.584  -4.257   4.555  0.00  0.00    +0.009 C 
ATOM     32  C   UNL     1      -7.550  -3.208   5.111  0.00  0.00    +0.009 C 
ATOM     33  C   UNL     1      -7.881  -6.059   5.701  0.00  0.00    +0.008 C 
ENDBRANCH  24  26
ENDBRANCH  21  22
ENDBRANCH  20  21
ENDBRANCH   9  20
TORSDOF 9
