REMARK  Name = ZINC28620177
REMARK  5 active torsions:
REMARK  status: ('A' for Active; 'I' for Inactive)
REMARK    1  A    between atoms: C_7  and  C_10
REMARK    2  A    between atoms: C_10  and  N_11
REMARK    3  A    between atoms: N_14  and  C_17
REMARK    4  A    between atoms: C_20  and  C_26
REMARK    5  A    between atoms: C_22  and  N_23
REMARK                            x       y       z     vdW  Elec       q    Type
REMARK                         _______ _______ _______ _____ _____    ______ ____
ROOT
ATOM      1  N   UNL     1      -1.649   6.211   1.428  0.00  0.00    +0.384 N 
ATOM      2  C   UNL     1      -2.283   4.948   1.830  0.00  0.00    -0.059 C 
ATOM      3  C   UNL     1      -2.743   5.052   3.286  0.00  0.00    +0.086 C 
ATOM      4  N   UNL     1      -3.681   6.176   3.422  0.00  0.00    -0.332 N 
ATOM      5  C   UNL     1      -3.047   7.439   3.019  0.00  0.00    +0.086 C 
ATOM      6  C   UNL     1      -2.587   7.335   1.563  0.00  0.00    -0.059 C 
ATOM      7  H   UNL     1      -0.799   6.394   2.102  0.00  0.00    -0.081 HD
ENDROOT
BRANCH   4   8
ATOM      8  C   UNL     1      -4.176   6.258   4.718  0.00  0.00    +0.060 A 
ATOM      9  C   UNL     1      -3.301   6.434   5.787  0.00  0.00    +0.026 A 
ATOM     10  C   UNL     1      -3.788   6.516   7.071  0.00  0.00    +0.015 A 
ATOM     11  C   UNL     1      -5.163   6.422   7.303  0.00  0.00    +0.039 A 
ATOM     12  C   UNL     1      -6.040   6.245   6.228  0.00  0.00    +0.047 A 
ATOM     13  C   UNL     1      -5.547   6.169   4.945  0.00  0.00    +0.148 A 
BRANCH  11  14
ATOM     14  C   UNL     1      -5.689   6.509   8.678  0.00  0.00    +0.242 C 
ATOM     15  O   UNL     1      -6.885   6.427   8.878  0.00  0.00    -0.270 OA
ATOM     16  N   UNL     1      -4.843   6.679   9.713  0.00  0.00    -0.325 N 
ATOM     17  H   UNL     1      -5.234   6.744  10.739  0.00  0.00    +0.145 HD
ATOM     18  H   UNL     1      -3.760   6.754   9.532  0.00  0.00    +0.145 HD
ENDBRANCH  11  14
BRANCH  13  19
ATOM     19  N   UNL     1      -6.474   5.987   3.806  0.00  0.00    +0.058 N 
ATOM     20  O   UNL     1      -7.678   6.003   3.993  0.00  0.00    -0.126 OA
ATOM     21  O   UNL     1      -6.034   5.821   2.683  0.00  0.00    -0.126 OA
ENDBRANCH  13  19
ENDBRANCH   4   8
BRANCH   1  22
ATOM     22  C   UNL     1      -1.126   6.125   0.058  0.00  0.00    -0.042 C 
BRANCH  22  29
ATOM     23  C   UNL     1      -1.598   1.688  -0.131  0.00  0.00    +0.001 A 
ATOM     24  C   UNL     1      -0.454   0.901  -0.161  0.00  0.00    +0.001 A 
ATOM     25  C   UNL     1       0.787   1.505  -0.138  0.00  0.00    +0.015 A 
ATOM     26  C   UNL     1       0.873   2.880  -0.081  0.00  0.00    +0.020 A 
ATOM     27  C   UNL     1      -0.274   3.702  -0.044  0.00  0.00    -0.009 A 
ATOM     28  C   UNL     1      -1.526   3.044  -0.070  0.00  0.00    +0.009 A 
ATOM     29  C   UNL     1       0.005   5.129   0.014  0.00  0.00    -0.049 A 
ATOM     30  C   UNL     1       1.278   5.550   0.029  0.00  0.00    +0.048 A 
ATOM     31  S   UNL     1       2.218   4.036  -0.035  0.00  0.00    -0.096 S 
ENDBRANCH  22  29
ENDBRANCH   1  22
TORSDOF 5
