REMARK  Name = ZINC66188129
REMARK  8 active torsions:
REMARK  status: ('A' for Active; 'I' for Inactive)
REMARK    1  A    between atoms: C_1  and  C_2
REMARK    2  A    between atoms: C_2  and  C_3
REMARK    3  A    between atoms: C_2  and  N_4
REMARK    4  A    between atoms: N_4  and  C_5
REMARK    5  A    between atoms: C_5  and  C_6
REMARK    6  A    between atoms: C_9  and  C_12
REMARK    7  A    between atoms: N_16  and  C_17
REMARK    8  A    between atoms: N_26  and  C_28
REMARK                            x       y       z     vdW  Elec       q    Type
REMARK                         _______ _______ _______ _____ _____    ______ ____
ROOT
ATOM      1  N   UNL     1      -1.472  -0.598   0.372  0.00  0.00    -0.279 N 
ATOM      2  C   UNL     1      -2.247  -0.126   1.368  0.00  0.00    +0.303 C 
ATOM      3  O   UNL     1      -3.380  -0.544   1.507  0.00  0.00    -0.253 OA
ATOM      4  N   UNL     1      -1.766   0.811   2.210  0.00  0.00    -0.296 N 
ATOM      5  H   UNL     1      -0.892   1.201   2.053  0.00  0.00    +0.151 HD
ENDROOT
BRANCH   4   6
ATOM      6  C   UNL     1      -2.562   1.238   3.360  0.00  0.00    +0.077 C 
ATOM      7  C   UNL     1      -2.312   0.312   4.553  0.00  0.00    -0.007 C 
ATOM      8  C   UNL     1      -3.235   0.706   5.700  0.00  0.00    +0.003 C 
ATOM      9  C   UNL     1      -3.086   2.166   6.099  0.00  0.00    +0.001 C 
ATOM     10  C   UNL     1      -3.080   3.117   4.912  0.00  0.00    +0.003 C 
ATOM     11  C   UNL     1      -2.162   2.651   3.788  0.00  0.00    -0.007 C 
ATOM     12  C   UNL     1      -0.700   2.682   4.208  0.00  0.00    -0.073 C 
ATOM     13  N   UNL     1      -0.379   1.717   5.253  0.00  0.00    +0.382 N 
ATOM     14  C   UNL     1      -0.849   0.366   4.965  0.00  0.00    -0.073 C 
ATOM     15  H   UNL     1      -0.738   2.030   6.142  0.00  0.00    -0.081 HD
BRANCH  13  16
ATOM     16  C   UNL     1       1.083   1.669   5.394  0.00  0.00    -0.069 C 
ATOM     17  C   UNL     1       1.663   1.837   6.800  0.00  0.00    -0.017 C 
ATOM     18  C   UNL     1       1.798   2.966   5.776  0.00  0.00    -0.017 C 
ENDBRANCH  13  16
ENDBRANCH   4   6
BRANCH   1  20
ATOM     19  C   UNL     1      -0.290   1.484  -0.127  0.00  0.00    +0.028 C 
ATOM     20  C   UNL     1      -0.148  -0.017   0.135  0.00  0.00    +0.072 C 
ATOM     21  C   UNL     1       0.734  -0.238   1.365  0.00  0.00    +0.028 C 
ENDBRANCH   1  20
BRANCH   1  22
ATOM     22  C   UNL     1      -1.952  -1.694  -0.473  0.00  0.00    +0.144 C 
BRANCH  22  23
ATOM     23  C   UNL     1      -1.542  -3.012   0.132  0.00  0.00    -0.030 A 
ATOM     24  C   UNL     1      -0.328  -3.579  -0.212  0.00  0.00    +0.006 A 
ATOM     25  C   UNL     1       0.053  -4.786   0.338  0.00  0.00    +0.019 A 
ATOM     26  C   UNL     1      -0.789  -5.434   1.244  0.00  0.00    +0.052 A 
ATOM     27  C   UNL     1      -2.013  -4.856   1.586  0.00  0.00    +0.019 A 
ATOM     28  C   UNL     1      -2.380  -3.646   1.032  0.00  0.00    +0.006 A 
BRANCH  26  29
ATOM     29  C   UNL     1      -0.400  -6.687   1.818  0.00  0.00    +0.099 C 
ATOM     30  N   UNL     1      -0.091  -7.680   2.274  0.00  0.00    -0.191 NA
ENDBRANCH  26  29
ENDBRANCH  22  23
ENDBRANCH   1  22
TORSDOF 6
