REMARK  Name = ZINC63165346
REMARK  9 active torsions:
REMARK  status: ('A' for Active; 'I' for Inactive)
REMARK    1  A    between atoms: C_1  and  O_2
REMARK    2  A    between atoms: O_2  and  C_3
REMARK    3  A    between atoms: C_6  and  N_9
REMARK    4  A    between atoms: C_10  and  C_27
REMARK    5  A    between atoms: C_14  and  S_16
REMARK    6  A    between atoms: S_16  and  C_17
REMARK    7  A    between atoms: C_17  and  C_18
REMARK    8  A    between atoms: C_27  and  O_28
REMARK    9  A    between atoms: O_28  and  C_29
REMARK                            x       y       z     vdW  Elec       q    Type
REMARK                         _______ _______ _______ _____ _____    ______ ____
ROOT
ATOM      1  N   UNL     1       2.382  -2.459  -4.478  0.00  0.00    -0.285 N 
ATOM      2  C   UNL     1       2.681  -3.906  -4.484  0.00  0.00    +0.195 C 
ATOM      3  N   UNL     1       2.935  -4.222  -5.913  0.00  0.00    -0.231 NA
ATOM      4  N   UNL     1       3.654  -3.030  -6.393  0.00  0.00    -0.226 NA
ATOM      5  C   UNL     1       2.995  -1.902  -5.697  0.00  0.00    +0.217 C 
ATOM      6  H   UNL     1       2.069  -4.348  -6.416  0.00  0.00    +0.143 HD
ATOM      7  H   UNL     1       3.568  -2.934  -7.393  0.00  0.00    +0.143 HD
ENDROOT
BRANCH   1  11
ATOM      8  C   UNL     1       0.214  -0.371  -1.595  0.00  0.00    +0.120 A 
ATOM      9  C   UNL     1      -0.279  -0.483  -2.887  0.00  0.00    +0.047 A 
ATOM     10  C   UNL     1       0.439  -1.174  -3.843  0.00  0.00    +0.027 A 
ATOM     11  C   UNL     1       1.654  -1.758  -3.510  0.00  0.00    +0.033 A 
ATOM     12  C   UNL     1       2.147  -1.646  -2.217  0.00  0.00    +0.027 A 
ATOM     13  C   UNL     1       1.430  -0.949  -1.264  0.00  0.00    +0.047 A 
BRANCH   8  15
ATOM     14  C   UNL     1      -1.738   0.880  -1.065  0.00  0.00    +0.277 C 
ATOM     15  O   UNL     1      -0.494   0.310  -0.654  0.00  0.00    -0.495 OA
ENDBRANCH   8  15
ENDBRANCH   1  11
BRANCH   5  16
ATOM     16  S   UNL     1       4.226  -0.645  -5.253  0.00  0.00    -0.118 S 
BRANCH  16  17
ATOM     17  C   UNL     1       5.431  -1.549  -4.242  0.00  0.00    +0.119 C 
BRANCH  17  18
ATOM     18  C   UNL     1       6.540  -0.594  -3.796  0.00  0.00    +0.184 C 
ATOM     19  N   UNL     1       5.963   0.541  -3.064  0.00  0.00    -0.363 N 
ATOM     20  C   UNL     1       6.267   1.623  -3.721  0.00  0.00    +0.060 A 
ATOM     21  C   UNL     1       5.977   3.045  -3.491  0.00  0.00    +0.027 A 
ATOM     22  C   UNL     1       6.433   3.966  -4.364  0.00  0.00    +0.002 A 
ATOM     23  C   UNL     1       7.185   3.625  -5.502  0.00  0.00    +0.002 A 
ATOM     24  C   UNL     1       7.506   2.352  -5.806  0.00  0.00    +0.027 A 
ATOM     25  C   UNL     1       7.063   1.262  -4.926  0.00  0.00    +0.060 A 
ATOM     26  N   UNL     1       7.221  -0.029  -4.967  0.00  0.00    -0.363 N 
ATOM     27  H   UNL     1       5.449   0.493  -2.243  0.00  0.00    +0.162 HD
ATOM     28  H   UNL     1       7.701  -0.527  -5.647  0.00  0.00    +0.162 HD
ENDBRANCH  17  18
ENDBRANCH  16  17
ENDBRANCH   5  16
BRANCH   2  29
ATOM     29  C   UNL     1       1.483  -4.702  -3.962  0.00  0.00    +0.268 C 
BRANCH  29  30
ATOM     30  O   UNL     1       0.332  -4.406  -4.754  0.00  0.00    -0.489 OA
BRANCH  30  31
ATOM     31  C   UNL     1      -0.826  -5.035  -4.421  0.00  0.00    +0.121 A 
ATOM     32  C   UNL     1      -0.854  -5.915  -3.349  0.00  0.00    +0.047 A 
ATOM     33  C   UNL     1      -2.031  -6.554  -3.012  0.00  0.00    +0.023 A 
ATOM     34  C   UNL     1      -3.182  -6.316  -3.742  0.00  0.00    +0.041 A 
ATOM     35  C   UNL     1      -3.156  -5.439  -4.812  0.00  0.00    +0.023 A 
ATOM     36  C   UNL     1      -1.982  -4.794  -5.149  0.00  0.00    +0.047 A 
ATOM     37 CL   UNL     1      -4.660  -7.121  -3.317  0.00  0.00    -0.084 Cl
ENDBRANCH  30  31
ENDBRANCH  29  30
ENDBRANCH   2  29
TORSDOF 8
