REMARK  Name = ZINC25402887
REMARK  12 active torsions:
REMARK  status: ('A' for Active; 'I' for Inactive)
REMARK    1  A    between atoms: C_1  and  C_2
REMARK    2  A    between atoms: C_2  and  N_3
REMARK    3  A    between atoms: C_7  and  C_9
REMARK    4  A    between atoms: C_9  and  C_11
REMARK    5  A    between atoms: C_9  and  N_12
REMARK    6  A    between atoms: N_15  and  S_18
REMARK    7  A    between atoms: S_18  and  C_21
REMARK    8  A    between atoms: C_22  and  C_31
REMARK    9  A    between atoms: C_23  and  C_30
REMARK   10  A    between atoms: C_24  and  C_29
REMARK   11  A    between atoms: C_25  and  C_28
REMARK   12  A    between atoms: C_26  and  C_27
REMARK                            x       y       z     vdW  Elec       q    Type
REMARK                         _______ _______ _______ _____ _____    ______ ____
ROOT
ATOM      1  N   UNL     1       1.183  -5.682   3.505  0.00  0.00    -0.289 NA
ATOM      2  C   UNL     1       0.050  -6.391   4.115  0.00  0.00    +0.102 C 
ATOM      3  C   UNL     1       0.279  -7.902   4.008  0.00  0.00    +0.125 C 
ATOM      4  N   UNL     1       1.594  -8.217   4.587  0.00  0.00    -0.174 NA
ATOM      5  C   UNL     1       2.760  -7.450   4.123  0.00  0.00    +0.125 C 
ATOM      6  C   UNL     1       2.433  -5.957   4.225  0.00  0.00    +0.102 C 
ENDROOT
BRANCH   4   7
ATOM      7  S   UNL     1       1.757  -9.404   5.731  0.00  0.00    +0.061 S 
ATOM      8  O   UNL     1       2.935  -9.101   6.465  0.00  0.00    -0.153 OA
ATOM      9  O   UNL     1       0.487  -9.546   6.352  0.00  0.00    -0.153 OA
BRANCH   7  10
ATOM     10  C   UNL     1       2.071 -10.912   4.875  0.00  0.00    +0.112 A 
ATOM     11  C   UNL     1       3.366 -11.384   4.759  0.00  0.00    -0.021 A 
ATOM     12  C   UNL     1       3.612 -12.567   4.088  0.00  0.00    -0.043 A 
ATOM     13  C   UNL     1       2.565 -13.278   3.534  0.00  0.00    -0.044 A 
ATOM     14  C   UNL     1       1.270 -12.807   3.650  0.00  0.00    -0.043 A 
ATOM     15  C   UNL     1       1.023 -11.626   4.325  0.00  0.00    -0.021 A 
ATOM     16  C   UNL     1      -0.388 -11.115   4.457  0.00  0.00    +0.046 C 
ATOM     17  C   UNL     1       0.129 -13.582   3.046  0.00  0.00    +0.044 C 
ATOM     18  C   UNL     1       2.834 -14.568   2.801  0.00  0.00    +0.044 C 
ATOM     19  C   UNL     1       5.023 -13.081   3.960  0.00  0.00    +0.044 C 
ATOM     20  C   UNL     1       4.508 -10.608   5.364  0.00  0.00    +0.046 C 
ENDBRANCH   7  10
ENDBRANCH   4   7
BRANCH   1  21
ATOM     21  C   UNL     1       0.923  -4.238   3.432  0.00  0.00    +0.140 C 
ATOM     22  C   UNL     1       0.685  -3.691   4.841  0.00  0.00    +0.034 C 
BRANCH  21  27
ATOM     23  N   UNL     1      -2.250  -1.246   1.409  0.00  0.00    -0.299 N 
ATOM     24  C   UNL     1      -1.819  -2.507   1.617  0.00  0.00    +0.306 C 
ATOM     25  O   UNL     1      -2.416  -3.442   1.121  0.00  0.00    -0.252 OA
ATOM     26  N   UNL     1      -0.728  -2.729   2.376  0.00  0.00    -0.239 N 
ATOM     27  C   UNL     1      -0.298  -3.989   2.584  0.00  0.00    +0.237 C 
ATOM     28  O   UNL     1      -0.892  -4.923   2.089  0.00  0.00    -0.274 OA
ATOM     29  H   UNL     1      -1.774  -0.500   1.805  0.00  0.00    +0.150 HD
ATOM     30  H   UNL     1      -0.252  -1.983   2.772  0.00  0.00    +0.159 HD
BRANCH  23  32
ATOM     31  C   UNL     1      -3.707   0.500   0.509  0.00  0.00    +0.024 C 
ATOM     32  C   UNL     1      -3.436  -1.004   0.585  0.00  0.00    +0.102 C 
ENDBRANCH  23  32
ENDBRANCH  21  27
ENDBRANCH   1  21
TORSDOF 5
