REMARK  Name = ZINC57410224
REMARK  5 active torsions:
REMARK  status: ('A' for Active; 'I' for Inactive)
REMARK    1  A    between atoms: C_1  and  C_2
REMARK    2  A    between atoms: C_5  and  S_8
REMARK    3  A    between atoms: S_8  and  N_11
REMARK    4  A    between atoms: N_11  and  N_12
REMARK    5  A    between atoms: C_21  and  O_22
REMARK                            x       y       z     vdW  Elec       q    Type
REMARK                         _______ _______ _______ _____ _____    ______ ____
ROOT
ATOM      1  N   UNL     1       1.953  -6.253  -0.043  0.00  0.00    -0.136 NA
ATOM      2  C   UNL     1       3.214  -6.626  -0.052  0.00  0.00    +0.156 C 
ATOM      3  C   UNL     1       3.755  -8.004  -0.068  0.00  0.00    +0.036 A 
ATOM      4  C   UNL     1       3.177  -9.266  -0.079  0.00  0.00    +0.050 A 
ATOM      5  C   UNL     1       3.983 -10.389  -0.093  0.00  0.00    +0.125 A 
ATOM      6  C   UNL     1       5.365 -10.256  -0.097  0.00  0.00    +0.055 A 
ATOM      7  C   UNL     1       5.954  -9.010  -0.087  0.00  0.00    +0.047 A 
ATOM      8  C   UNL     1       5.157  -7.859  -0.072  0.00  0.00    +0.091 A 
ATOM      9  N   UNL     1       5.469  -6.537  -0.060  0.00  0.00    -0.210 NA
ATOM     10  C   UNL     1       4.411  -5.768  -0.054  0.00  0.00    +0.241 C 
ATOM     11 BR   UNL     1       7.838  -8.855  -0.092  0.00  0.00    -0.048 Br
ATOM     12  F   UNL     1       3.425 -11.619  -0.103  0.00  0.00    -0.205 F 
ENDROOT
BRANCH  10  13
ATOM     13  O   UNL     1       4.415  -4.412  -0.048  0.00  0.00    -0.491 OA
ATOM     14  H   UNL     1       5.300  -4.022  -0.051  0.00  0.00    +0.294 HD
ENDBRANCH  10  13
BRANCH   1  15
ATOM     15  N   UNL     1       1.651  -4.999  -0.034  0.00  0.00    +0.007 NA
BRANCH  15  16
ATOM     16  S   UNL     1       0.063  -4.530  -0.023  0.00  0.00    +0.108 S 
ATOM     17  O   UNL     1      -0.476  -4.950   1.223  0.00  0.00    -0.147 OA
ATOM     18  O   UNL     1      -0.490  -4.937  -1.267  0.00  0.00    -0.147 OA
BRANCH  16  23
ATOM     19  C   UNL     1      -0.018   1.503   0.010  0.00  0.00    +0.044 C 
ATOM     20  C   UNL     1       0.002  -0.004   0.002  0.00  0.00    -0.050 A 
ATOM     21  C   UNL     1       0.006  -0.689  -1.199  0.00  0.00    +0.005 A 
ATOM     22  C   UNL     1       0.025  -2.071  -1.206  0.00  0.00    +0.029 A 
ATOM     23  C   UNL     1       0.040  -2.768  -0.013  0.00  0.00    +0.112 A 
ATOM     24  C   UNL     1       0.037  -2.084   1.188  0.00  0.00    +0.029 A 
ATOM     25  C   UNL     1       0.023  -0.702   1.195  0.00  0.00    +0.005 A 
ENDBRANCH  16  23
ENDBRANCH  15  16
ENDBRANCH   1  15
TORSDOF 4
