REMARK  Name = ZINC35169069
REMARK  19 active torsions:
REMARK  status: ('A' for Active; 'I' for Inactive)
REMARK    1  A    between atoms: C_4  and  C_7
REMARK    2  A    between atoms: C_7  and  C_8
REMARK    3  A    between atoms: C_8  and  C_9
REMARK    4  A    between atoms: C_9  and  C_10
REMARK    5  A    between atoms: C_10  and  C_11
REMARK    6  A    between atoms: C_11  and  C_12
REMARK    7  A    between atoms: C_12  and  O_13
REMARK    8  A    between atoms: O_13  and  C_14
REMARK    9  A    between atoms: C_16  and  O_45
REMARK   10  A    between atoms: C_18  and  O_44
REMARK   11  A    between atoms: C_20  and  O_27
REMARK   12  A    between atoms: C_22  and  C_25
REMARK   13  A    between atoms: C_25  and  O_26
REMARK   14  A    between atoms: O_27  and  C_28
REMARK   15  A    between atoms: C_30  and  O_43
REMARK   16  A    between atoms: C_32  and  O_42
REMARK   17  A    between atoms: C_34  and  O_41
REMARK   18  A    between atoms: C_36  and  C_39
REMARK   19  A    between atoms: C_39  and  O_40
REMARK                            x       y       z     vdW  Elec       q    Type
REMARK                         _______ _______ _______ _____ _____    ______ ____
ROOT
ATOM      1  C   UNL     1       5.539  -7.897  -6.116  0.00  0.00    +0.282 C 
ATOM      2  C   UNL     1       6.472  -8.254  -7.275  0.00  0.00    +0.201 C 
ATOM      3  C   UNL     1       6.606  -9.778  -7.361  0.00  0.00    +0.179 C 
ATOM      4  C   UNL     1       5.213 -10.394  -7.525  0.00  0.00    +0.183 C 
ATOM      5  C   UNL     1       4.329  -9.954  -6.356  0.00  0.00    +0.178 C 
ATOM      6  O   UNL     1       4.271  -8.526  -6.315  0.00  0.00    -0.341 OA
ENDROOT
BRANCH   2   7
ATOM      7  O   UNL     1       5.929  -7.752  -8.498  0.00  0.00    -0.384 OA
ATOM      8  H   UNL     1       5.813  -6.792  -8.511  0.00  0.00    +0.210 HD
ENDBRANCH   2   7
BRANCH   3   9
ATOM      9  O   UNL     1       7.419 -10.123  -8.485  0.00  0.00    -0.386 OA
ATOM     10  H   UNL     1       8.315  -9.760  -8.449  0.00  0.00    +0.210 HD
ENDBRANCH   3   9
BRANCH   5  11
ATOM     11  C   UNL     1       2.918 -10.516  -6.544  0.00  0.00    +0.190 C 
BRANCH  11  12
ATOM     12  O   UNL     1       2.124 -10.204  -5.397  0.00  0.00    -0.392 OA
ATOM     13  H   UNL     1       1.216 -10.530  -5.447  0.00  0.00    +0.210 HD
ENDBRANCH  11  12
ENDBRANCH   5  11
BRANCH   4  14
ATOM     14  O   UNL     1       4.637  -9.950  -8.755  0.00  0.00    -0.340 OA
BRANCH  14  15
ATOM     15  C   UNL     1       4.928 -10.794  -9.871  0.00  0.00    +0.282 C 
ATOM     16  C   UNL     1       4.481 -10.105 -11.163  0.00  0.00    +0.201 C 
ATOM     17  C   UNL     1       4.741 -11.040 -12.348  0.00  0.00    +0.179 C 
ATOM     18  C   UNL     1       4.006 -12.363 -12.111  0.00  0.00    +0.177 C 
ATOM     19  C   UNL     1       4.471 -12.965 -10.782  0.00  0.00    +0.178 C 
ATOM     20  O   UNL     1       4.229 -12.033  -9.727  0.00  0.00    -0.341 OA
BRANCH  16  21
ATOM     21  O   UNL     1       3.086  -9.806 -11.086  0.00  0.00    -0.384 OA
ATOM     22  H   UNL     1       2.849  -9.220 -10.354  0.00  0.00    +0.210 HD
ENDBRANCH  16  21
BRANCH  17  23
ATOM     23  O   UNL     1       4.261 -10.434 -13.550  0.00  0.00    -0.386 OA
ATOM     24  H   UNL     1       4.681  -9.588 -13.758  0.00  0.00    +0.210 HD
ENDBRANCH  17  23
BRANCH  18  25
ATOM     25  O   UNL     1       2.598 -12.125 -12.061  0.00  0.00    -0.386 OA
ATOM     26  H   UNL     1       2.236 -11.739 -12.870  0.00  0.00    +0.210 HD
ENDBRANCH  18  25
BRANCH  19  27
ATOM     27  C   UNL     1       3.699 -14.257 -10.509  0.00  0.00    +0.190 C 
BRANCH  27  28
ATOM     28  O   UNL     1       4.213 -14.880  -9.330  0.00  0.00    -0.392 OA
ATOM     29  H   UNL     1       3.769 -15.706  -9.096  0.00  0.00    +0.210 HD
ENDBRANCH  27  28
ENDBRANCH  19  27
ENDBRANCH  14  15
ENDBRANCH   4  14
BRANCH   1  30
ATOM     30  O   UNL     1       5.364  -6.479  -6.064  0.00  0.00    -0.349 OA
BRANCH  30  31
ATOM     31  C   UNL     1       4.695  -6.019  -4.888  0.00  0.00    +0.163 C 
BRANCH  31  32
ATOM     32  C   UNL     1       4.564  -4.495  -4.940  0.00  0.00    +0.028 C 
BRANCH  32  33
ATOM     33  C   UNL     1       3.848  -4.002  -3.682  0.00  0.00    +0.002 C 
BRANCH  33  34
ATOM     34  C   UNL     1       3.717  -2.478  -3.733  0.00  0.00    +0.000 C 
BRANCH  34  35
ATOM     35  C   UNL     1       3.001  -1.985  -2.475  0.00  0.00    +0.000 C 
BRANCH  35  36
ATOM     36  C   UNL     1       2.870  -0.461  -2.526  0.00  0.00    +0.003 C 
BRANCH  36  40
ATOM     37  C   UNL     1      -0.019   1.526   0.010  0.00  0.00    +0.000 C 
ATOM     38  C   UNL     1       1.417   2.055  -0.000  0.00  0.00    +0.000 C 
ATOM     39  C   UNL     1       2.133   1.562  -1.259  0.00  0.00    +0.003 C 
ATOM     40  C   UNL     1       2.154   0.032  -1.268  0.00  0.00    -0.011 C 
ATOM     41  C   UNL     1       0.718  -0.497  -1.257  0.00  0.00    +0.003 C 
ATOM     42  C   UNL     1       0.002  -0.004   0.002  0.00  0.00    +0.000 C 
ENDBRANCH  36  40
ENDBRANCH  35  36
ENDBRANCH  34  35
ENDBRANCH  33  34
ENDBRANCH  32  33
ENDBRANCH  31  32
ENDBRANCH  30  31
ENDBRANCH   1  30
TORSDOF 19
