REMARK  Name = ZINC39663895
REMARK  15 active torsions:
REMARK  status: ('A' for Active; 'I' for Inactive)
REMARK    1  A    between atoms: C_1  and  C_2
REMARK    2  A    between atoms: C_2  and  C_3
REMARK    3  A    between atoms: C_3  and  C_4
REMARK    4  A    between atoms: C_4  and  C_5
REMARK    5  A    between atoms: C_5  and  C_7
REMARK    6  A    between atoms: C_5  and  C_8
REMARK    7  A    between atoms: C_12  and  C_21
REMARK    8  A    between atoms: N_23  and  C_24
REMARK    9  A    between atoms: C_24  and  C_25
REMARK   10  A    between atoms: C_25  and  C_27
REMARK   11  A    between atoms: C_25  and  N_35
REMARK   12  A    between atoms: C_30  and  O_33
REMARK   13  A    between atoms: O_33  and  C_34
REMARK   14  A    between atoms: N_35  and  C_36
REMARK   15  A    between atoms: N_35  and  C_37
REMARK                            x       y       z     vdW  Elec       q    Type
REMARK                         _______ _______ _______ _____ _____    ______ ____
ROOT
ATOM      1  C   UNL     1       1.855  -4.311  -1.980  0.00  0.00    +0.218 C 
ATOM      2  O   UNL     1       1.262  -5.010  -1.186  0.00  0.00    -0.275 OA
ATOM      3  N   UNL     1       2.426  -4.864  -3.068  0.00  0.00    -0.300 N 
ATOM      4  C   UNL     1       3.288  -4.204  -4.076  0.00  0.00    +0.121 C 
ATOM      5  C   UNL     1       4.380  -5.249  -4.401  0.00  0.00    +0.100 C 
ATOM      6  C   UNL     1       3.746  -6.603  -4.041  0.00  0.00    -0.004 C 
ATOM      7  C   UNL     1       2.338  -6.272  -3.525  0.00  0.00    +0.115 C 
ATOM      8  C   UNL     1       4.555  -7.290  -2.946  0.00  0.00    -0.010 C 
ATOM      9  C   UNL     1       3.938  -8.659  -2.645  0.00  0.00    -0.082 C 
ATOM     10  N   UNL     1       3.936  -9.476  -3.865  0.00  0.00    +0.379 N 
ATOM     11  C   UNL     1       3.080  -8.853  -4.883  0.00  0.00    -0.082 C 
ATOM     12  C   UNL     1       3.660  -7.492  -5.278  0.00  0.00    -0.010 C 
ATOM     13  H   UNL     1       4.878  -9.550  -4.220  0.00  0.00    -0.086 HD
ATOM     14  H   UNL     1       3.586 -10.397  -3.651  0.00  0.00    -0.086 HD
ENDROOT
BRANCH   5  15
ATOM     15  C   UNL     1       4.729  -5.204  -5.866  0.00  0.00    +0.218 C 
ATOM     16  O   UNL     1       3.886  -4.898  -6.682  0.00  0.00    -0.275 OA
ATOM     17  N   UNL     1       5.980  -5.503  -6.270  0.00  0.00    -0.316 N 
ATOM     18  H   UNL     1       6.655  -5.747  -5.617  0.00  0.00    +0.149 HD
BRANCH  17  19
ATOM     19  C   UNL     1       6.320  -5.459  -7.694  0.00  0.00    +0.093 C 
BRANCH  19  20
ATOM     20  C   UNL     1       7.749  -5.968  -7.893  0.00  0.00    -0.021 C 
BRANCH  20  21
ATOM     21  C   UNL     1       7.830  -7.414  -7.477  0.00  0.00    -0.059 A 
ATOM     22  C   UNL     1       7.398  -8.406  -8.338  0.00  0.00    +0.005 A 
ATOM     23  C   UNL     1       7.471  -9.732  -7.959  0.00  0.00    +0.046 A 
ATOM     24  C   UNL     1       7.977 -10.069  -6.712  0.00  0.00    +0.120 A 
ATOM     25  C   UNL     1       8.409  -9.072  -5.849  0.00  0.00    +0.046 A 
ATOM     26  C   UNL     1       8.340  -7.747  -6.236  0.00  0.00    +0.005 A 
BRANCH  24  27
ATOM     27  O   UNL     1       8.049 -11.373  -6.336  0.00  0.00    -0.495 OA
ATOM     28  C   UNL     1       8.581 -11.645  -5.038  0.00  0.00    +0.277 C 
ENDBRANCH  24  27
ENDBRANCH  20  21
BRANCH  20  29
ATOM     29  N   UNL     1       8.120  -5.845  -9.309  0.00  0.00    +0.382 N 
ATOM     30  C   UNL     1       8.059  -4.433  -9.710  0.00  0.00    -0.096 C 
ATOM     31  C   UNL     1       9.486  -6.351  -9.503  0.00  0.00    -0.096 C 
ATOM     32  H   UNL     1       7.479  -6.383  -9.873  0.00  0.00    -0.082 HD
ENDBRANCH  20  29
ENDBRANCH  19  20
ENDBRANCH  17  19
ENDBRANCH   5  15
BRANCH   1  33
ATOM     33  C   UNL     1       1.954  -2.825  -1.750  0.00  0.00    +0.072 C 
ATOM     34  C   UNL     1       3.222  -2.516  -0.953  0.00  0.00    +0.017 C 
BRANCH  33  35
ATOM     35  C   UNL     1       0.729  -2.348  -0.967  0.00  0.00    +0.012 C 
BRANCH  35  36
ATOM     36  C   UNL     1       0.766  -0.824  -0.841  0.00  0.00    +0.000 C 
BRANCH  36  38
ATOM     37  C   UNL     1      -0.420   1.178   0.068  0.00  0.00    +0.004 C 
ATOM     38  C   UNL     1      -0.458  -0.346  -0.058  0.00  0.00    -0.003 C 
ENDBRANCH  36  38
ENDBRANCH  35  36
ENDBRANCH  33  35
ENDBRANCH   1  33
TORSDOF 10
