REMARK  Name = ZINC09510465
REMARK  7 active torsions:
REMARK  status: ('A' for Active; 'I' for Inactive)
REMARK    1  A    between atoms: C_4  and  C_7
REMARK    2  A    between atoms: C_9  and  C_13
REMARK    3  A    between atoms: C_16  and  S_19
REMARK    4  A    between atoms: N_17  and  N_18
REMARK    5  A    between atoms: S_19  and  C_20
REMARK    6  A    between atoms: C_20  and  C_21
REMARK    7  A    between atoms: N_23  and  C_24
REMARK                            x       y       z     vdW  Elec       q    Type
REMARK                         _______ _______ _______ _____ _____    ______ ____
ROOT
ATOM      1  C   UNL     1       5.848  -3.672  -0.032  0.00  0.00    +0.199 A 
ATOM      2  N   UNL     1       5.258  -4.817   0.228  0.00  0.00    -0.125 NA
ATOM      3  N   UNL     1       6.099  -5.781   0.109  0.00  0.00    -0.120 NA
ATOM      4  C   UNL     1       7.278  -5.313  -0.234  0.00  0.00    +0.209 A 
ATOM      5  N   UNL     1       7.160  -3.956  -0.342  0.00  0.00    -0.223 N 
ENDROOT
BRANCH   1   8
ATOM      6  C   UNL     1       3.722  -0.678   0.042  0.00  0.00    +0.093 A 
ATOM      7  C   UNL     1       3.883  -2.073   0.019  0.00  0.00    +0.061 A 
ATOM      8  C   UNL     1       5.224  -2.338  -0.004  0.00  0.00    +0.105 A 
ATOM      9  N   UNL     1       5.878  -1.139   0.005  0.00  0.00    -0.273 N 
ATOM     10  H   UNL     1       6.840  -1.014  -0.007  0.00  0.00    +0.189 HD
ATOM     11  N   UNL     1       4.916  -0.122   0.028  0.00  0.00    -0.173 NA
BRANCH   6  15
ATOM     12  C   UNL     1       0.011   1.398   0.121  0.00  0.00    +0.000 A 
ATOM     13  C   UNL     1       1.198   2.108   0.111  0.00  0.00    +0.001 A 
ATOM     14  C   UNL     1       2.405   1.439   0.085  0.00  0.00    +0.010 A 
ATOM     15  C   UNL     1       2.427   0.046   0.070  0.00  0.00    +0.002 A 
ATOM     16  C   UNL     1       1.228  -0.664   0.081  0.00  0.00    +0.010 A 
ATOM     17  C   UNL     1       0.027   0.015   0.106  0.00  0.00    +0.001 A 
ENDBRANCH   6  15
ENDBRANCH   1   8
BRANCH   5  18
ATOM     18  N   UNL     1       8.139  -3.066  -0.682  0.00  0.00    -0.295 N 
ATOM     19  H   UNL     1       8.632  -2.741   0.136  0.00  0.00    +0.163 HD
ATOM     20  H   UNL     1       8.777  -3.469  -1.352  0.00  0.00    +0.163 HD
ENDBRANCH   5  18
BRANCH   4  21
ATOM     21  S   UNL     1       8.738  -6.259  -0.510  0.00  0.00    -0.075 S 
BRANCH  21  22
ATOM     22  C   UNL     1       8.215  -7.970  -0.213  0.00  0.00    +0.173 C 
BRANCH  22  23
ATOM     23  C   UNL     1       9.386  -8.897  -0.418  0.00  0.00    +0.228 C 
ATOM     24  O   UNL     1      10.467  -8.447  -0.734  0.00  0.00    -0.275 OA
ATOM     25  N   UNL     1       9.232 -10.225  -0.252  0.00  0.00    -0.284 N 
ATOM     26  H   UNL     1       8.385 -10.579   0.064  0.00  0.00    +0.155 HD
BRANCH  25  27
ATOM     27  C   UNL     1      10.293 -11.094  -0.533  0.00  0.00    +0.052 A 
ATOM     28  C   UNL     1      11.600 -10.699  -0.283  0.00  0.00    +0.026 A 
ATOM     29  C   UNL     1      12.645 -11.558  -0.561  0.00  0.00    +0.022 A 
ATOM     30  C   UNL     1      12.391 -12.812  -1.090  0.00  0.00    +0.042 A 
ATOM     31  C   UNL     1      11.089 -13.209  -1.340  0.00  0.00    +0.041 A 
ATOM     32  C   UNL     1      10.039 -12.355  -1.058  0.00  0.00    +0.064 A 
ATOM     33 CL   UNL     1       8.406 -12.856  -1.365  0.00  0.00    -0.082 Cl
ATOM     34 CL   UNL     1      13.708 -13.888  -1.439  0.00  0.00    -0.083 Cl
ENDBRANCH  25  27
ENDBRANCH  22  23
ENDBRANCH  21  22
ENDBRANCH   4  21
TORSDOF 7
