REMARK  Name = ZINC36205632
REMARK  11 active torsions:
REMARK  status: ('A' for Active; 'I' for Inactive)
REMARK    1  A    between atoms: C_1  and  C_2
REMARK    2  A    between atoms: C_2  and  C_3
REMARK    3  A    between atoms: C_3  and  C_4
REMARK    4  A    between atoms: C_4  and  C_6
REMARK    5  A    between atoms: C_4  and  O_30
REMARK    6  A    between atoms: C_6  and  N_7
REMARK    7  A    between atoms: N_7  and  C_8
REMARK    8  A    between atoms: N_7  and  C_27
REMARK    9  A    between atoms: C_8  and  C_9
REMARK   10  A    between atoms: C_15  and  C_20
REMARK   11  A    between atoms: C_23  and  C_26
REMARK                            x       y       z     vdW  Elec       q    Type
REMARK                         _______ _______ _______ _____ _____    ______ ____
ROOT
ATOM      1  C   UNL     1       2.364  -5.999   3.586  0.00  0.00    +0.094 A 
ATOM      2  N   UNL     1       2.862  -6.657   4.664  0.00  0.00    -0.312 N 
ATOM      3  H   UNL     1       3.265  -6.149   5.386  0.00  0.00    +0.170 HD
ATOM      4  C   UNL     1       2.806  -7.999   4.752  0.00  0.00    +0.260 A 
ATOM      5  O   UNL     1       3.257  -8.574   5.727  0.00  0.00    -0.267 OA
ATOM      6  C   UNL     1       2.208  -8.739   3.683  0.00  0.00    +0.080 A 
ATOM      7  C   UNL     1       2.030 -10.180   3.545  0.00  0.00    +0.004 A 
ATOM      8  C   UNL     1       1.428 -10.659   2.430  0.00  0.00    +0.056 A 
ATOM      9  S   UNL     1       1.064  -9.186   1.493  0.00  0.00    -0.076 S 
ATOM     10  C   UNL     1       1.721  -7.974   2.610  0.00  0.00    +0.116 A 
ATOM     11  N   UNL     1       1.808  -6.647   2.597  0.00  0.00    -0.229 NA
ENDROOT
BRANCH   7  12
ATOM     12  C   UNL     1       2.499 -11.104   4.606  0.00  0.00    -0.017 A 
ATOM     13  C   UNL     1       3.795 -10.994   5.106  0.00  0.00    +0.009 A 
ATOM     14  C   UNL     1       4.226 -11.856   6.094  0.00  0.00    +0.004 A 
ATOM     15  C   UNL     1       3.375 -12.828   6.587  0.00  0.00    -0.050 A 
ATOM     16  C   UNL     1       2.087 -12.942   6.094  0.00  0.00    +0.004 A 
ATOM     17  C   UNL     1       1.643 -12.082   5.110  0.00  0.00    +0.009 A 
ATOM     18  C   UNL     1       3.851 -13.767   7.665  0.00  0.00    +0.044 C 
ENDBRANCH   7  12
BRANCH   1  19
ATOM     19  C   UNL     1       2.448  -4.495   3.531  0.00  0.00    -0.003 C 
BRANCH  19  20
ATOM     20  N   UNL     1       1.716  -4.006   2.355  0.00  0.00    +0.388 N 
ATOM     21  H   UNL     1       2.050  -4.481   1.530  0.00  0.00    -0.081 HD
BRANCH  20  22
ATOM     22  C   UNL     1       1.934  -2.561   2.210  0.00  0.00    -0.068 C 
ATOM     23  C   UNL     1       2.279  -2.035   0.815  0.00  0.00    -0.017 C 
ATOM     24  C   UNL     1       3.356  -2.087   1.901  0.00  0.00    -0.017 C 
ENDBRANCH  20  22
BRANCH  20  25
ATOM     25  C   UNL     1       0.282  -4.271   2.526  0.00  0.00    -0.046 C 
BRANCH  25  26
ATOM     26  C   UNL     1      -0.465  -3.876   1.250  0.00  0.00    +0.098 C 
BRANCH  26  27
ATOM     27  O   UNL     1      -0.050  -4.720   0.174  0.00  0.00    -0.394 OA
ATOM     28  H   UNL     1      -0.220  -5.660   0.324  0.00  0.00    +0.210 HD
ENDBRANCH  26  27
BRANCH  26  29
ATOM     29  C   UNL     1      -1.971  -4.034   1.471  0.00  0.00    +0.029 C 
BRANCH  29  31
ATOM     30  C   UNL     1      -4.229  -3.679   0.462  0.00  0.00    +0.004 C 
ATOM     31  C   UNL     1      -2.723  -3.521   0.241  0.00  0.00    -0.001 C 
ENDBRANCH  29  31
ENDBRANCH  26  29
ENDBRANCH  25  26
ENDBRANCH  20  25
ENDBRANCH  19  20
ENDBRANCH   1  19
TORSDOF 9
