REMARK  Name = ZINC09960123
REMARK  10 active torsions:
REMARK  status: ('A' for Active; 'I' for Inactive)
REMARK    1  A    between atoms: C_1  and  N_58
REMARK    2  A    between atoms: C_2  and  N_58
REMARK    3  A    between atoms: C_3  and  C_5
REMARK    4  A    between atoms: C_3  and  C_29
REMARK    5  A    between atoms: C_3  and  N_58
REMARK    6  A    between atoms: C_5  and  N_6
REMARK    7  A    between atoms: C_7  and  C_9
REMARK    8  A    between atoms: C_13  and  N_15
REMARK    9  A    between atoms: N_15  and  S_16
REMARK   10  A    between atoms: S_16  and  C_19
REMARK                            x       y       z     vdW  Elec       q    Type
REMARK                         _______ _______ _______ _____ _____    ______ ____
ROOT
ATOM      1  C   UNL     1       4.660   0.473  -5.671  0.00  0.00    +0.038 A 
ATOM      2  C   UNL     1       5.575   1.331  -5.058  0.00  0.00    +0.013 A 
ATOM      3  C   UNL     1       6.258   0.920  -3.932  0.00  0.00    +0.003 A 
ATOM      4  C   UNL     1       6.041  -0.340  -3.406  0.00  0.00    +0.024 A 
ATOM      5  C   UNL     1       5.133  -1.202  -4.010  0.00  0.00    +0.049 A 
ATOM      6  C   UNL     1       4.446  -0.801  -5.145  0.00  0.00    +0.037 A 
ENDROOT
BRANCH   1   8
ATOM      7  N   UNL     1       4.140   2.140  -7.387  0.00  0.00    -0.313 N 
ATOM      8  C   UNL     1       3.926   0.911  -6.878  0.00  0.00    +0.244 C 
ATOM      9  O   UNL     1       3.131   0.162  -7.410  0.00  0.00    -0.270 OA
ATOM     10  H   UNL     1       4.775   2.737  -6.963  0.00  0.00    +0.149 HD
BRANCH   7  11
ATOM     11  C   UNL     1       3.413   2.574  -8.583  0.00  0.00    +0.094 C 
BRANCH  11  12
ATOM     12  C   UNL     1       3.776   4.025  -8.902  0.00  0.00    -0.014 C 
BRANCH  12  13
ATOM     13  C   UNL     1       5.226   4.104  -9.304  0.00  0.00    -0.022 A 
ATOM     14  C   UNL     1       5.764   4.179 -10.546  0.00  0.00    +0.009 A 
ATOM     15  C   UNL     1       7.138   4.244 -10.678  0.00  0.00    +0.008 A 
ATOM     16  C   UNL     1       7.907   4.232  -9.562  0.00  0.00    +0.045 A 
ATOM     17  S   UNL     1       6.680   4.132  -8.269  0.00  0.00    -0.103 S 
ENDBRANCH  12  13
BRANCH  12  20
ATOM     18  C   UNL     1       3.888   6.263  -7.983  0.00  0.00    -0.096 C 
ATOM     19  C   UNL     1       2.169   4.731  -7.234  0.00  0.00    -0.096 C 
ATOM     20  N   UNL     1       3.569   4.849  -7.692  0.00  0.00    +0.382 N 
ATOM     21  H   UNL     1       4.193   4.513  -6.949  0.00  0.00    -0.082 HD
ENDBRANCH  12  20
ENDBRANCH  11  12
ENDBRANCH   7  11
ENDBRANCH   1   8
BRANCH   5  22
ATOM     22  N   UNL     1       4.918  -2.475  -3.476  0.00  0.00    -0.216 N 
ATOM     23  H   UNL     1       4.882  -3.247  -4.062  0.00  0.00    +0.174 HD
BRANCH  22  24
ATOM     24  S   UNL     1       4.724  -2.666  -1.842  0.00  0.00    +0.072 S 
ATOM     25  O   UNL     1       5.787  -1.956  -1.222  0.00  0.00    -0.150 OA
ATOM     26  O   UNL     1       4.499  -4.051  -1.619  0.00  0.00    -0.150 OA
BRANCH  24  27
ATOM     27  C   UNL     1       3.236  -1.835  -1.394  0.00  0.00    +0.112 A 
ATOM     28  C   UNL     1       2.033  -2.517  -1.409  0.00  0.00    +0.032 A 
ATOM     29  C   UNL     1       0.864  -1.869  -1.059  0.00  0.00    +0.051 A 
ATOM     30  C   UNL     1       0.894  -0.532  -0.691  0.00  0.00    +0.162 A 
ATOM     31  C   UNL     1       2.103   0.153  -0.673  0.00  0.00    +0.164 A 
ATOM     32  C   UNL     1       3.273  -0.503  -1.027  0.00  0.00    +0.078 A 
ATOM     33  O   UNL     1       2.156   1.463  -0.307  0.00  0.00    -0.485 OA
ATOM     34  C   UNL     1       0.920   2.185  -0.321  0.00  0.00    +0.270 C 
ATOM     35  C   UNL     1      -0.147   1.325   0.368  0.00  0.00    +0.270 C 
ATOM     36  O   UNL     1      -0.267   0.095  -0.357  0.00  0.00    -0.485 OA
ENDBRANCH  24  27
ENDBRANCH  22  24
ENDBRANCH   5  22
TORSDOF 8
