REMARK  Name = ZINC33810318
REMARK  10 active torsions:
REMARK  status: ('A' for Active; 'I' for Inactive)
REMARK    1  A    between atoms: C_1  and  C_2
REMARK    2  A    between atoms: C_2  and  O_3
REMARK    3  A    between atoms: O_3  and  C_4
REMARK    4  A    between atoms: C_6  and  C_11
REMARK    5  A    between atoms: C_9  and  O_10
REMARK    6  A    between atoms: C_16  and  S_20
REMARK    7  A    between atoms: S_20  and  C_21
REMARK    8  A    between atoms: C_21  and  C_22
REMARK    9  A    between atoms: C_30  and  C_32
REMARK   10  A    between atoms: C_30  and  C_33
REMARK                            x       y       z     vdW  Elec       q    Type
REMARK                         _______ _______ _______ _____ _____    ______ ____
ROOT
ATOM      1  C   UNL     1       3.687  -0.664  -0.051  0.00  0.00    +0.093 C 
ATOM      2  C   UNL     1       2.358   0.034  -0.025  0.00  0.00    +0.069 A 
ATOM      3  C   UNL     1       1.197  -0.674  -0.015  0.00  0.00    +0.135 A 
ATOM      4  N   UNL     1       0.002  -0.004   0.002  0.00  0.00    -0.208 NA
ATOM      5  C   UNL     1      -0.016   1.358   0.009  0.00  0.00    +0.171 A 
ATOM      6  N   UNL     1       1.101   2.055   0.003  0.00  0.00    -0.302 N 
ATOM      7  C   UNL     1       2.296   1.444  -0.012  0.00  0.00    +0.258 A 
ATOM      8  O   UNL     1       3.324   2.105  -0.015  0.00  0.00    -0.267 OA
ATOM      9  N   UNL     1       1.225  -2.050  -0.019  0.00  0.00    -0.302 N 
ATOM     10  C   UNL     1       2.354  -2.724   0.358  0.00  0.00    +0.017 C 
ATOM     11  C   UNL     1       3.555  -2.108   0.361  0.00  0.00    +0.024 C 
ATOM     12  C   UNL     1       4.721  -2.794   0.744  0.00  0.00    +0.162 C 
ATOM     13  O   UNL     1       5.783  -2.205   0.754  0.00  0.00    -0.292 OA
ATOM     14  C   UNL     1       4.677  -4.244   1.142  0.00  0.00    +0.086 C 
ATOM     15  C   UNL     1       3.506  -4.923   0.424  0.00  0.00    -0.023 C 
ATOM     16  C   UNL     1       2.221  -4.169   0.773  0.00  0.00    +0.058 C 
ATOM     17  C   UNL     1       3.735  -4.879  -1.088  0.00  0.00    +0.011 C 
ATOM     18  C   UNL     1       3.395  -6.378   0.885  0.00  0.00    +0.011 C 
ATOM     19  H   UNL     1       0.334  -2.617  -0.327  0.00  0.00    +0.153 HD
ATOM     20  H   UNL     1       1.064   3.154   0.009  0.00  0.00    +0.171 HD
ENDROOT
BRANCH   1  23
ATOM     21  C   UNL     1       5.969   0.116  -2.959  0.00  0.00    +0.162 A 
ATOM     22  C   UNL     1       5.446   0.059  -1.677  0.00  0.00    +0.054 A 
ATOM     23  C   UNL     1       4.251  -0.598  -1.447  0.00  0.00    -0.032 A 
ATOM     24  C   UNL     1       3.571  -1.191  -2.495  0.00  0.00    +0.008 A 
ATOM     25  C   UNL     1       4.085  -1.134  -3.777  0.00  0.00    +0.049 A 
ATOM     26  C   UNL     1       5.284  -0.481  -4.014  0.00  0.00    +0.158 A 
BRANCH  26  27
ATOM     27  O   UNL     1       5.792  -0.424  -5.274  0.00  0.00    -0.503 OA
ATOM     28  H   UNL     1       5.250  -0.896  -6.107  0.00  0.00    +0.292 HD
ENDBRANCH  26  27
BRANCH  21  29
ATOM     29  O   UNL     1       7.146   0.757  -3.187  0.00  0.00    -0.489 OA
BRANCH  29  31
ATOM     30  C   UNL     1       9.092   2.017  -2.506  0.00  0.00    +0.048 C 
ATOM     31  C   UNL     1       7.793   1.346  -2.057  0.00  0.00    +0.226 C 
ENDBRANCH  29  31
ENDBRANCH  21  29
ENDBRANCH   1  23
BRANCH   5  32
ATOM     32  S   UNL     1      -1.563   2.203   0.021  0.00  0.00    -0.084 S 
BRANCH  32  33
ATOM     33  C   UNL     1      -0.984   3.918   0.028  0.00  0.00    +0.104 C 
BRANCH  33  34
ATOM     34  C   UNL     1      -2.170   4.848   0.039  0.00  0.00    -0.023 C 
ATOM     35  C   UNL     1      -2.384   5.624   1.072  0.00  0.00    +0.005 C 
ENDBRANCH  33  34
ENDBRANCH  32  33
ENDBRANCH   5  32
TORSDOF 7
