REMARK  Name = ZINC62245978
REMARK  6 active torsions:
REMARK  status: ('A' for Active; 'I' for Inactive)
REMARK    1  A    between atoms: C_1  and  C_2
REMARK    2  A    between atoms: C_5  and  N_9
REMARK    3  A    between atoms: C_6  and  C_8
REMARK    4  A    between atoms: C_10  and  C_16
REMARK    5  A    between atoms: C_11  and  C_14
REMARK    6  A    between atoms: C_14  and  N_15
REMARK                            x       y       z     vdW  Elec       q    Type
REMARK                         _______ _______ _______ _____ _____    ______ ____
ROOT
ATOM      1  N   UNL     1       0.423  -4.118  -0.265  0.00  0.00    -0.212 N 
ATOM      2  C   UNL     1       0.400  -4.755  -1.477  0.00  0.00    +0.096 A 
ATOM      3  C   UNL     1       0.508  -6.089  -1.215  0.00  0.00    +0.074 A 
ATOM      4  N   UNL     1       0.594  -6.262   0.102  0.00  0.00    -0.135 NA
ATOM      5  N   UNL     1       0.554  -5.125   0.704  0.00  0.00    -0.060 NA
ENDROOT
BRANCH   1  10
ATOM      6  C   UNL     1       0.081   1.471   0.658  0.00  0.00    +0.044 C 
ATOM      7  C   UNL     1       0.172  -0.013   0.412  0.00  0.00    -0.050 A 
ATOM      8  C   UNL     1      -0.752  -0.635  -0.408  0.00  0.00    +0.005 A 
ATOM      9  C   UNL     1      -0.671  -1.995  -0.634  0.00  0.00    +0.028 A 
ATOM     10  C   UNL     1       0.339  -2.738  -0.037  0.00  0.00    +0.071 A 
ATOM     11  C   UNL     1       1.265  -2.110   0.785  0.00  0.00    -0.025 A 
ATOM     12  C   UNL     1       1.182  -0.749   1.004  0.00  0.00    +0.008 A 
ATOM     13  C   UNL     1       2.362  -2.913   1.435  0.00  0.00    +0.046 C 
ENDBRANCH   1  10
BRANCH   2  14
ATOM     14  C   UNL     1       0.282  -4.121  -2.809  0.00  0.00    +0.005 A 
ATOM     15  C   UNL     1      -0.683  -4.567  -3.713  0.00  0.00    +0.013 A 
ATOM     16  C   UNL     1      -0.791  -3.974  -4.954  0.00  0.00    +0.042 A 
ATOM     17  C   UNL     1       0.057  -2.935  -5.304  0.00  0.00    +0.158 A 
ATOM     18  C   UNL     1       1.018  -2.487  -4.409  0.00  0.00    +0.159 A 
ATOM     19  C   UNL     1       1.130  -3.072  -3.163  0.00  0.00    +0.051 A 
ATOM     20  F   UNL     1       1.843  -1.475  -4.756  0.00  0.00    -0.202 F 
ATOM     21  F   UNL     1      -0.053  -2.357  -6.520  0.00  0.00    -0.202 F 
ENDBRANCH   2  14
BRANCH   3  22
ATOM     22  C   UNL     1       0.527  -7.187  -2.246  0.00  0.00    -0.026 C 
BRANCH  22  23
ATOM     23  N   UNL     1       1.896  -7.363  -2.749  0.00  0.00    +0.382 N 
ATOM     24  H   UNL     1       2.239  -6.484  -3.106  0.00  0.00    -0.090 HD
ATOM     25  H   UNL     1       2.493  -7.677  -1.998  0.00  0.00    -0.090 HD
ATOM     26  H   UNL     1       1.897  -8.050  -3.489  0.00  0.00    -0.090 HD
ENDBRANCH  22  23
ENDBRANCH   3  22
TORSDOF 4
