REMARK  Name = ZINC62530049
REMARK  3 active torsions:
REMARK  status: ('A' for Active; 'I' for Inactive)
REMARK    1  A    between atoms: C_1  and  C_2
REMARK    2  A    between atoms: C_2  and  C_3
REMARK    3  A    between atoms: C_10  and  N_13
REMARK                            x       y       z     vdW  Elec       q    Type
REMARK                         _______ _______ _______ _____ _____    ______ ____
ROOT
ATOM      1  C   UNL     1       0.707  -0.490  -1.238  0.00  0.00    +0.197 A 
ATOM      2  N   UNL     1       1.982  -0.725  -1.323  0.00  0.00    -0.212 NA
ATOM      3  C   UNL     1       2.267  -1.148  -2.584  0.00  0.00    +0.130 A 
ATOM      4  C   UNL     1       1.052  -1.158  -3.286  0.00  0.00    +0.158 A 
ATOM      5  O   UNL     1       0.107  -0.748  -2.411  0.00  0.00    -0.440 OA
ATOM      6  C   UNL     1       1.024  -1.551  -4.616  0.00  0.00    +0.070 A 
ATOM      7  C   UNL     1       2.190  -1.932  -5.247  0.00  0.00    +0.067 A 
ATOM      8  C   UNL     1       3.400  -1.925  -4.557  0.00  0.00    +0.064 A 
ATOM      9  C   UNL     1       3.444  -1.534  -3.230  0.00  0.00    +0.092 A 
ATOM     10 CL   UNL     1       4.953  -1.526  -2.372  0.00  0.00    -0.079 Cl
ATOM     11 CL   UNL     1       2.149  -2.424  -6.912  0.00  0.00    -0.081 Cl
ENDROOT
BRANCH   8  12
ATOM     12  N   UNL     1       4.577  -2.313  -5.209  0.00  0.00    -0.356 N 
ATOM     13  H   UNL     1       4.549  -2.587  -6.139  0.00  0.00    +0.142 HD
ATOM     14  H   UNL     1       5.421  -2.308  -4.730  0.00  0.00    +0.142 HD
ENDBRANCH   8  12
BRANCH   1  16
ATOM     15  C   UNL     1      -0.019   1.526   0.010  0.00  0.00    +0.013 C 
ATOM     16  C   UNL     1       0.002  -0.004   0.002  0.00  0.00    +0.093 C 
ENDBRANCH   1  16
TORSDOF 2
