REMARK  Name = ZINC16478508
REMARK  5 active torsions:
REMARK  status: ('A' for Active; 'I' for Inactive)
REMARK    1  A    between atoms: C_4  and  C_7
REMARK    2  A    between atoms: N_18  and  N_19
REMARK    3  A    between atoms: N_19  and  S_20
REMARK    4  A    between atoms: S_20  and  C_23
REMARK    5  A    between atoms: C_26  and  N_29
REMARK                            x       y       z     vdW  Elec       q    Type
REMARK                         _______ _______ _______ _____ _____    ______ ____
ROOT
ATOM      1  C   UNL     1      -5.592   2.671   5.173  0.00  0.00    +0.170 C 
ATOM      2  C   UNL     1      -6.771   1.815   4.778  0.00  0.00    +0.004 A 
ATOM      3  C   UNL     1      -7.958   1.893   5.471  0.00  0.00    +0.028 A 
ATOM      4  C   UNL     1      -9.028   1.093   5.103  0.00  0.00    +0.041 A 
ATOM      5  C   UNL     1      -8.908   0.214   4.040  0.00  0.00    +0.022 A 
ATOM      6  C   UNL     1      -7.724   0.131   3.336  0.00  0.00    +0.025 A 
ATOM      7  C   UNL     1      -6.643   0.938   3.698  0.00  0.00    +0.039 A 
ATOM      8  N   UNL     1      -5.473   0.879   2.992  0.00  0.00    -0.286 N 
ATOM      9  C   UNL     1      -4.543   1.790   3.144  0.00  0.00    +0.196 C 
ATOM     10  N   UNL     1      -4.749   2.861   3.983  0.00  0.00    -0.242 NA
ATOM     11  N   UNL     1      -3.360   1.679   2.458  0.00  0.00    -0.234 N 
ATOM     12 CL   UNL     1     -10.525   1.194   5.977  0.00  0.00    -0.084 Cl
ATOM     13  H   UNL     1      -2.579   2.444   2.579  0.00  0.00    +0.171 HD
ATOM     14  H   UNL     1      -5.300   0.058   2.282  0.00  0.00    +0.155 HD
ENDROOT
BRANCH   1  18
ATOM     15  C   UNL     1      -3.348   0.718   8.238  0.00  0.00    +0.000 A 
ATOM     16  C   UNL     1      -4.215   1.744   8.564  0.00  0.00    +0.000 A 
ATOM     17  C   UNL     1      -4.942   2.376   7.572  0.00  0.00    +0.006 A 
ATOM     18  C   UNL     1      -4.800   1.982   6.255  0.00  0.00    -0.019 A 
ATOM     19  C   UNL     1      -3.937   0.953   5.929  0.00  0.00    +0.006 A 
ATOM     20  C   UNL     1      -3.207   0.324   6.920  0.00  0.00    +0.000 A 
ENDBRANCH   1  18
BRANCH  11  21
ATOM     21  N   UNL     1      -3.146   0.590   1.602  0.00  0.00    -0.108 NA
ATOM     22  H   UNL     1      -3.243  -0.344   1.947  0.00  0.00    +0.172 HD
BRANCH  21  23
ATOM     23  S   UNL     1      -2.733   0.849   0.020  0.00  0.00    +0.074 S 
ATOM     24  O   UNL     1      -3.722   1.714  -0.522  0.00  0.00    -0.152 OA
ATOM     25  O   UNL     1      -2.447  -0.426  -0.539  0.00  0.00    -0.152 OA
BRANCH  23  26
ATOM     26  C   UNL     1      -1.219   1.751   0.017  0.00  0.00    +0.107 A 
ATOM     27  C   UNL     1      -0.013   1.076   0.008  0.00  0.00    +0.031 A 
ATOM     28  C   UNL     1       1.175   1.783   0.000  0.00  0.00    +0.034 A 
ATOM     29  C   UNL     1       1.156   3.165   0.008  0.00  0.00    +0.126 A 
ATOM     30  C   UNL     1      -0.050   3.840   0.023  0.00  0.00    +0.034 A 
ATOM     31  C   UNL     1      -1.238   3.133   0.030  0.00  0.00    +0.031 A 
BRANCH  29  32
ATOM     32  N   UNL     1       2.428   3.923  -0.001  0.00  0.00    +0.056 N 
ATOM     33  O   UNL     1       3.491   3.328  -0.013  0.00  0.00    -0.126 OA
ATOM     34  O   UNL     1       2.411   5.141   0.006  0.00  0.00    -0.126 OA
ENDBRANCH  29  32
ENDBRANCH  23  26
ENDBRANCH  21  23
ENDBRANCH  11  21
TORSDOF 5
