REMARK  Name = ZINC36610388
REMARK  8 active torsions:
REMARK  status: ('A' for Active; 'I' for Inactive)
REMARK    1  A    between atoms: C_4  and  N_7
REMARK    2  A    between atoms: N_7  and  C_8
REMARK    3  A    between atoms: C_8  and  C_10
REMARK    4  A    between atoms: C_8  and  C_15
REMARK    5  A    between atoms: N_17  and  C_18
REMARK    6  A    between atoms: C_24  and  C_26
REMARK    7  A    between atoms: C_30  and  O_33
REMARK    8  A    between atoms: C_31  and  O_32
REMARK                            x       y       z     vdW  Elec       q    Type
REMARK                         _______ _______ _______ _____ _____    ______ ____
ROOT
ATOM      1  N   UNL     1       3.749  -0.351   0.816  0.00  0.00    -0.248 N 
ATOM      2  C   UNL     1       4.788   0.141   0.112  0.00  0.00    +0.256 C 
ATOM      3  O   UNL     1       4.624   1.091  -0.629  0.00  0.00    -0.269 OA
ENDROOT
BRANCH   1   7
ATOM      4  C   UNL     1      -0.113   1.012   0.059  0.00  0.00    +0.000 A 
ATOM      5  C   UNL     1       0.940   1.456  -0.720  0.00  0.00    +0.002 A 
ATOM      6  C   UNL     1       2.222   1.006  -0.471  0.00  0.00    +0.023 A 
ATOM      7  C   UNL     1       2.453   0.107   0.562  0.00  0.00    +0.038 A 
ATOM      8  C   UNL     1       1.392  -0.337   1.342  0.00  0.00    +0.023 A 
ATOM      9  C   UNL     1       0.113   0.117   1.088  0.00  0.00    +0.002 A 
ENDBRANCH   1   7
BRANCH   2  10
ATOM     10  C   UNL     1       6.123  -0.472   0.241  0.00  0.00    +0.082 A 
ATOM     11  C   UNL     1       6.253  -1.862   0.317  0.00  0.00    +0.017 A 
ATOM     12  C   UNL     1       7.502  -2.432   0.437  0.00  0.00    +0.005 A 
ATOM     13  C   UNL     1       8.633  -1.634   0.483  0.00  0.00    +0.049 A 
ATOM     14  C   UNL     1       8.521  -0.256   0.409  0.00  0.00    +0.159 A 
ATOM     15  C   UNL     1       7.267   0.334   0.282  0.00  0.00    +0.171 A 
BRANCH  15  16
ATOM     16  O   UNL     1       7.153   1.684   0.204  0.00  0.00    -0.503 OA
ATOM     17  H   UNL     1       7.056   2.121   1.061  0.00  0.00    +0.292 HD
ENDBRANCH  15  16
BRANCH  14  18
ATOM     18  O   UNL     1       9.636   0.521   0.456  0.00  0.00    -0.503 OA
ATOM     19  H   UNL     1      10.025   0.704  -0.410  0.00  0.00    +0.292 HD
ENDBRANCH  14  18
ENDBRANCH   2  10
BRANCH   1  20
ATOM     20  C   UNL     1       3.979  -1.365   1.848  0.00  0.00    +0.233 C 
BRANCH  20  21
ATOM     21  C   UNL     1       3.627  -0.797   3.199  0.00  0.00    +0.135 A 
ATOM     22  C   UNL     1       4.314  -0.995   4.338  0.00  0.00    +0.047 A 
ATOM     23  C   UNL     1       3.636  -0.282   5.354  0.00  0.00    +0.041 A 
ATOM     24  C   UNL     1       2.576   0.309   4.774  0.00  0.00    +0.195 A 
ATOM     25  O   UNL     1       2.579  -0.002   3.467  0.00  0.00    -0.465 OA
ENDBRANCH  20  21
BRANCH  20  26
ATOM     26  C   UNL     1       3.116  -2.569   1.569  0.00  0.00    +0.242 C 
ATOM     27  O   UNL     1       2.381  -2.578   0.604  0.00  0.00    -0.273 OA
ATOM     28  N   UNL     1       3.160  -3.635   2.393  0.00  0.00    -0.311 N 
ATOM     29  H   UNL     1       3.747  -3.627   3.165  0.00  0.00    +0.149 HD
BRANCH  28  30
ATOM     30  C   UNL     1       2.321  -4.805   2.122  0.00  0.00    +0.073 C 
ATOM     31  C   UNL     1       0.930  -4.585   2.721  0.00  0.00    +0.022 C 
ATOM     32  C   UNL     1       0.054  -5.807   2.439  0.00  0.00    +0.002 C 
ATOM     33  C   UNL     1       0.690  -7.047   3.069  0.00  0.00    +0.000 C 
ATOM     34  C   UNL     1       2.081  -7.268   2.470  0.00  0.00    +0.002 C 
ATOM     35  C   UNL     1       2.957  -6.045   2.753  0.00  0.00    +0.022 C 
ENDBRANCH  28  30
ENDBRANCH  20  26
ENDBRANCH   1  20
TORSDOF 8
