REMARK  Name = ZINC40947291
REMARK  12 active torsions:
REMARK  status: ('A' for Active; 'I' for Inactive)
REMARK    1  A    between atoms: C_1  and  C_2
REMARK    2  A    between atoms: C_2  and  C_3
REMARK    3  A    between atoms: C_2  and  C_4
REMARK    4  A    between atoms: C_2  and  C_5
REMARK    5  A    between atoms: C_8  and  C_11
REMARK    6  A    between atoms: C_11  and  O_12
REMARK    7  A    between atoms: O_12  and  C_13
REMARK    8  A    between atoms: C_18  and  C_19
REMARK    9  A    between atoms: N_20  and  N_21
REMARK   10  A    between atoms: C_22  and  C_24
REMARK   11  A    between atoms: C_24  and  S_25
REMARK   12  A    between atoms: S_25  and  C_26
REMARK                            x       y       z     vdW  Elec       q    Type
REMARK                         _______ _______ _______ _____ _____    ______ ____
ROOT
ATOM      1  C   UNL     1       3.102  -1.211  -7.002  0.00  0.00    +0.130 A 
ATOM      2  C   UNL     1       3.823  -2.383  -7.160  0.00  0.00    +0.046 A 
ATOM      3  C   UNL     1       4.410  -2.677  -8.376  0.00  0.00    +0.004 A 
ATOM      4  C   UNL     1       4.282  -1.805  -9.444  0.00  0.00    +0.001 A 
ATOM      5  C   UNL     1       3.568  -0.634  -9.304  0.00  0.00    +0.013 A 
ATOM      6  C   UNL     1       2.965  -0.328  -8.082  0.00  0.00    +0.036 A 
ENDROOT
BRANCH   6   7
ATOM      7  C   UNL     1       2.194   0.918  -7.927  0.00  0.00    +0.142 C 
ATOM      8  N   UNL     1       1.640   1.202  -6.787  0.00  0.00    -0.188 NA
BRANCH   8   9
ATOM      9  N   UNL     1       0.908   2.387  -6.640  0.00  0.00    -0.206 N 
ATOM     10  C   UNL     1       0.332   2.681  -5.457  0.00  0.00    +0.242 C 
ATOM     11  O   UNL     1       0.449   1.919  -4.520  0.00  0.00    -0.273 OA
ATOM     12  H   UNL     1       0.815   2.996  -7.389  0.00  0.00    +0.177 HD
BRANCH  10  13
ATOM     13  C   UNL     1      -0.455   3.955  -5.299  0.00  0.00    +0.173 C 
BRANCH  13  14
ATOM     14  S   UNL     1      -1.098   4.062  -3.606  0.00  0.00    -0.088 S 
BRANCH  14  15
ATOM     15  C   UNL     1      -1.983   5.586  -3.581  0.00  0.00    +0.160 A 
ATOM     16  N   UNL     1      -2.163   6.464  -4.549  0.00  0.00    -0.133 NA
ATOM     17  N   UNL     1      -2.898   7.602  -4.312  0.00  0.00    -0.125 NA
ATOM     18  C   UNL     1      -3.420   7.811  -3.119  0.00  0.00    +0.180 A 
ATOM     19  S   UNL     1      -2.883   6.351  -2.241  0.00  0.00    -0.025 S 
ATOM     20  N   UNL     1      -4.186   8.878  -2.668  0.00  0.00    -0.336 N 
ATOM     21  H   UNL     1      -4.404   9.608  -3.269  0.00  0.00    +0.144 HD
ATOM     22  H   UNL     1      -4.504   8.894  -1.751  0.00  0.00    +0.144 HD
ENDBRANCH  14  15
ENDBRANCH  13  14
ENDBRANCH  10  13
ENDBRANCH   8   9
ENDBRANCH   6   7
BRANCH   1  23
ATOM     23  O   UNL     1       2.525  -0.921  -5.807  0.00  0.00    -0.487 OA
BRANCH  23  24
ATOM     24  C   UNL     1       2.707  -1.868  -4.752  0.00  0.00    +0.264 C 
BRANCH  24  28
ATOM     25  C   UNL     1       0.707  -0.490  -1.238  0.00  0.00    -0.042 A 
ATOM     26  C   UNL     1       0.036  -1.284  -2.148  0.00  0.00    +0.004 A 
ATOM     27  C   UNL     1       0.683  -1.730  -3.286  0.00  0.00    +0.007 A 
ATOM     28  C   UNL     1       2.001  -1.381  -3.513  0.00  0.00    -0.010 A 
ATOM     29  C   UNL     1       2.672  -0.586  -2.603  0.00  0.00    +0.007 A 
ATOM     30  C   UNL     1       2.024  -0.137  -1.467  0.00  0.00    +0.004 A 
BRANCH  25  32
ATOM     31  C   UNL     1      -0.019   1.526   0.010  0.00  0.00    +0.015 C 
ATOM     32  C   UNL     1       0.002  -0.004   0.002  0.00  0.00    -0.013 C 
ATOM     33  C   UNL     1       0.742  -0.511   1.242  0.00  0.00    +0.015 C 
ATOM     34  C   UNL     1      -1.433  -0.534   0.013  0.00  0.00    +0.015 C 
ENDBRANCH  25  32
ENDBRANCH  24  28
ENDBRANCH  23  24
ENDBRANCH   1  23
TORSDOF 9
