REMARK  Name = ZINC28053989
REMARK  4 active torsions:
REMARK  status: ('A' for Active; 'I' for Inactive)
REMARK    1  A    between atoms: C_1  and  C_2
REMARK    2  A    between atoms: C_5  and  C_8
REMARK    3  A    between atoms: C_19  and  C_21
REMARK    4  A    between atoms: C_26  and  C_27
REMARK                            x       y       z     vdW  Elec       q    Type
REMARK                         _______ _______ _______ _____ _____    ______ ____
ROOT
ATOM      1  C   UNL     1       1.790  -1.999  -0.074  0.00  0.00    +0.174 C 
ATOM      2  C   UNL     1       1.223  -0.607   0.052  0.00  0.00    +0.025 C 
ATOM      3  C   UNL     1       0.010  -0.285  -0.402  0.00  0.00    +0.050 C 
ATOM      4  C   UNL     1      -0.459   1.111  -0.237  0.00  0.00    +0.038 A 
ATOM      5  C   UNL     1      -1.801   1.448  -0.361  0.00  0.00    +0.013 A 
ATOM      6  C   UNL     1      -2.190   2.763  -0.199  0.00  0.00    +0.001 A 
ATOM      7  C   UNL     1      -1.251   3.741   0.078  0.00  0.00    +0.004 A 
ATOM      8  C   UNL     1       0.088   3.415   0.200  0.00  0.00    +0.046 A 
ATOM      9  C   UNL     1       0.491   2.102   0.045  0.00  0.00    +0.131 A 
ATOM     10  O   UNL     1       1.794   1.740   0.159  0.00  0.00    -0.479 OA
ATOM     11  C   UNL     1       2.064   0.456   0.722  0.00  0.00    +0.234 C 
ATOM     12  N   UNL     1      -0.823  -1.218  -1.032  0.00  0.00    -0.282 N 
ATOM     13  C   UNL     1      -0.250  -2.414  -1.429  0.00  0.00    +0.240 A 
ATOM     14  N   UNL     1       0.980  -2.789  -0.991  0.00  0.00    -0.201 N 
ATOM     15  N   UNL     1       1.233  -4.018  -1.598  0.00  0.00    -0.042 NA
ATOM     16  N   UNL     1       0.194  -4.294  -2.318  0.00  0.00    -0.021 NA
ATOM     17  N   UNL     1      -0.683  -3.353  -2.221  0.00  0.00    -0.092 NA
ATOM     18  H   UNL     1      -1.886  -0.985  -1.193  0.00  0.00    +0.155 HD
ENDROOT
BRANCH   1  23
ATOM     19  C   UNL     1       1.819  -4.532   5.120  0.00  0.00    +0.044 C 
ATOM     20  C   UNL     1       1.812  -3.871   3.766  0.00  0.00    -0.050 A 
ATOM     21  C   UNL     1       2.966  -3.837   3.007  0.00  0.00    +0.004 A 
ATOM     22  C   UNL     1       2.959  -3.231   1.764  0.00  0.00    +0.006 A 
ATOM     23  C   UNL     1       1.797  -2.660   1.281  0.00  0.00    -0.019 A 
ATOM     24  C   UNL     1       0.644  -2.689   2.042  0.00  0.00    +0.006 A 
ATOM     25  C   UNL     1       0.650  -3.299   3.283  0.00  0.00    +0.004 A 
ENDBRANCH   1  23
BRANCH  11  26
ATOM     26  C   UNL     1       1.748   0.485   2.195  0.00  0.00    -0.000 A 
ATOM     27  C   UNL     1       0.556   1.030   2.636  0.00  0.00    +0.008 A 
ATOM     28  C   UNL     1       0.264   1.052   3.987  0.00  0.00    +0.000 A 
ATOM     29  C   UNL     1       1.168   0.537   4.898  0.00  0.00    +0.000 A 
ATOM     30  C   UNL     1       2.361  -0.003   4.457  0.00  0.00    +0.004 A 
ATOM     31  C   UNL     1       2.651  -0.029   3.106  0.00  0.00    -0.043 A 
ATOM     32  C   UNL     1       3.953  -0.618   2.626  0.00  0.00    +0.044 C 
ENDBRANCH  11  26
TORSDOF 2
