REMARK  Name = ZINC14889585
REMARK  8 active torsions:
REMARK  status: ('A' for Active; 'I' for Inactive)
REMARK    1  A    between atoms: C_3  and  C_12
REMARK    2  A    between atoms: C_5  and  O_7
REMARK    3  A    between atoms: O_7  and  C_8
REMARK    4  A    between atoms: C_12  and  N_63
REMARK    5  A    between atoms: C_13  and  N_63
REMARK    6  A    between atoms: N_16  and  C_19
REMARK    7  A    between atoms: C_22  and  C_25
REMARK    8  A    between atoms: C_31  and  O_34
REMARK                            x       y       z     vdW  Elec       q    Type
REMARK                         _______ _______ _______ _____ _____    ______ ____
ROOT
ATOM      1  C   UNL     1      -0.352   7.341  -1.138  0.00  0.00    -0.068 C 
ATOM      2  C   UNL     1      -1.789   7.773  -1.443  0.00  0.00    +0.003 C 
ATOM      3  C   UNL     1      -1.851   9.300  -1.525  0.00  0.00    +0.103 C 
ATOM      4  N   UNL     1      -0.944   9.773  -2.579  0.00  0.00    -0.330 N 
ATOM      5  C   UNL     1       0.448   9.410  -2.283  0.00  0.00    +0.103 C 
ATOM      6  C   UNL     1       0.579   7.886  -2.225  0.00  0.00    +0.003 C 
ENDROOT
BRANCH   4   7
ATOM      7  C   UNL     1      -1.072  11.144  -2.769  0.00  0.00    +0.030 A 
ATOM      8  C   UNL     1       0.045  11.968  -2.661  0.00  0.00    +0.024 A 
ATOM      9  C   UNL     1      -0.077  13.325  -2.853  0.00  0.00    +0.015 A 
ATOM     10  C   UNL     1      -1.327  13.877  -3.147  0.00  0.00    +0.037 A 
ATOM     11  C   UNL     1      -2.448  13.048  -3.249  0.00  0.00    +0.015 A 
ATOM     12  C   UNL     1      -2.318  11.691  -3.060  0.00  0.00    +0.024 A 
BRANCH  10  13
ATOM     13  C   UNL     1      -1.463  15.332  -3.349  0.00  0.00    +0.247 C 
ATOM     14  O   UNL     1      -2.412  15.926  -2.873  0.00  0.00    -0.270 OA
ATOM     15  N   UNL     1      -0.536  16.003  -4.061  0.00  0.00    -0.295 N 
ATOM     16  C   UNL     1       0.548  15.284  -4.744  0.00  0.00    +0.108 C 
ATOM     17  C   UNL     1       0.554  15.700  -6.223  0.00  0.00    +0.021 C 
ATOM     18  C   UNL     1       0.654  17.224  -6.318  0.00  0.00    +0.034 C 
ATOM     19  C   UNL     1      -0.565  17.860  -5.644  0.00  0.00    +0.132 C 
ATOM     20  C   UNL     1      -0.587  17.468  -4.163  0.00  0.00    +0.139 C 
BRANCH  19  21
ATOM     21  O   UNL     1      -0.487  19.282  -5.761  0.00  0.00    -0.390 OA
ATOM     22  H   UNL     1      -1.228  19.751  -5.353  0.00  0.00    +0.210 HD
ENDBRANCH  19  21
ENDBRANCH  10  13
ENDBRANCH   4   7
BRANCH   1  23
ATOM     23  N   UNL     1      -0.272   5.868  -1.125  0.00  0.00    +0.384 N 
ATOM     24  H   UNL     1      -0.917   5.488  -1.827  0.00  0.00    -0.085 HD
ATOM     25  H   UNL     1       0.687   5.579  -1.349  0.00  0.00    -0.085 HD
BRANCH  23  26
ATOM     26  C   UNL     1      -0.639   5.347   0.205  0.00  0.00    -0.046 C 
BRANCH  26  29
ATOM     27  C   UNL     1       0.725   1.839   0.509  0.00  0.00    +0.004 A 
ATOM     28  C   UNL     1       0.638   3.219   0.523  0.00  0.00    +0.002 A 
ATOM     29  C   UNL     1      -0.549   3.843   0.189  0.00  0.00    -0.061 A 
ATOM     30  C   UNL     1      -1.653   3.089  -0.161  0.00  0.00    +0.047 A 
ATOM     31  C   UNL     1      -1.567   1.704  -0.181  0.00  0.00    +0.130 A 
ATOM     32  C   UNL     1      -0.376   1.080   0.161  0.00  0.00    +0.046 A 
BRANCH  31  33
ATOM     33  O   UNL     1      -2.650   0.961  -0.529  0.00  0.00    -0.406 OA
BRANCH  33  34
ATOM     34  C   UNL     1      -2.490  -0.460  -0.523  0.00  0.00    +0.575 C 
ATOM     35  F   UNL     1      -2.142  -0.884   0.764  0.00  0.00    -0.133 F 
ATOM     36  F   UNL     1      -3.693  -1.065  -0.904  0.00  0.00    -0.133 F 
ATOM     37  F   UNL     1      -1.481  -0.820  -1.422  0.00  0.00    -0.133 F 
ENDBRANCH  33  34
ENDBRANCH  31  33
ENDBRANCH  26  29
ENDBRANCH  23  26
ENDBRANCH   1  23
TORSDOF 8
