REMARK  Name = ZINC66135825
REMARK  10 active torsions:
REMARK  status: ('A' for Active; 'I' for Inactive)
REMARK    1  A    between atoms: C_1  and  C_2
REMARK    2  A    between atoms: C_2  and  C_3
REMARK    3  A    between atoms: C_3  and  C_5
REMARK    4  A    between atoms: C_3  and  C_6
REMARK    5  A    between atoms: C_11  and  O_12
REMARK    6  A    between atoms: O_12  and  C_13
REMARK    7  A    between atoms: C_13  and  C_15
REMARK    8  A    between atoms: C_13  and  C_16
REMARK    9  A    between atoms: C_17  and  C_24
REMARK   10  A    between atoms: C_18  and  C_23
REMARK                            x       y       z     vdW  Elec       q    Type
REMARK                         _______ _______ _______ _____ _____    ______ ____
ROOT
ATOM      1  C   UNL     1       5.535  -1.652  -1.891  0.00  0.00    +0.099 A 
ATOM      2  C   UNL     1       6.457  -2.249  -2.760  0.00  0.00    +0.082 A 
ATOM      3  C   UNL     1       7.421  -1.434  -3.368  0.00  0.00    +0.056 A 
ATOM      4  N   UNL     1       7.425  -0.141  -3.103  0.00  0.00    -0.219 NA
ATOM      5  C   UNL     1       6.534   0.387  -2.274  0.00  0.00    +0.213 A 
ATOM      6  N   UNL     1       5.603  -0.351  -1.682  0.00  0.00    -0.215 NA
ATOM      7  N   UNL     1       6.573   1.742  -2.024  0.00  0.00    -0.327 N 
ATOM      8  C   UNL     1       8.437  -2.024  -4.311  0.00  0.00    +0.066 C 
ATOM      9  H   UNL     1       7.246   2.295  -2.452  0.00  0.00    +0.145 HD
ATOM     10  H   UNL     1       5.929   2.143  -1.420  0.00  0.00    +0.145 HD
ENDROOT
BRANCH   2  11
ATOM     11  C   UNL     1       6.416  -3.700  -3.027  0.00  0.00    +0.245 C 
ATOM     12  O   UNL     1       5.745  -4.130  -3.946  0.00  0.00    -0.270 OA
ATOM     13  N   UNL     1       7.121  -4.548  -2.253  0.00  0.00    -0.325 N 
ATOM     14  H   UNL     1       7.656  -4.206  -1.520  0.00  0.00    +0.145 HD
ATOM     15  H   UNL     1       7.093  -5.502  -2.429  0.00  0.00    +0.145 HD
ENDBRANCH   2  11
BRANCH   1  16
ATOM     16  C   UNL     1       4.477  -2.482  -1.210  0.00  0.00    +0.220 C 
ATOM     17  C   UNL     1       4.849  -2.674   0.262  0.00  0.00    +0.059 C 
BRANCH  16  18
ATOM     18  O   UNL     1       3.217  -1.814  -1.300  0.00  0.00    -0.483 OA
BRANCH  18  24
ATOM     19  C   UNL     1       0.850  -2.022  -1.419  0.00  0.00    -0.003 A 
ATOM     20  C   UNL     1      -0.281  -2.812  -1.354  0.00  0.00    +0.007 A 
ATOM     21  C   UNL     1      -0.166  -4.165  -1.094  0.00  0.00    +0.001 A 
ATOM     22  C   UNL     1       1.080  -4.731  -0.900  0.00  0.00    +0.004 A 
ATOM     23  C   UNL     1       2.215  -3.945  -0.965  0.00  0.00    +0.046 A 
ATOM     24  C   UNL     1       2.103  -2.588  -1.230  0.00  0.00    +0.125 A 
BRANCH  19  25
ATOM     25  C   UNL     1       0.725  -0.547  -1.701  0.00  0.00    +0.019 C 
ATOM     26  C   UNL     1       0.047  -0.343  -3.058  0.00  0.00    +0.012 C 
BRANCH  25  28
ATOM     27  C   UNL     1      -0.141   1.626  -0.824  0.00  0.00    +0.004 C 
ATOM     28  C   UNL     1      -0.117   0.112  -0.607  0.00  0.00    +0.004 C 
ENDBRANCH  25  28
ENDBRANCH  19  25
ENDBRANCH  18  24
ENDBRANCH  16  18
ENDBRANCH   1  16
TORSDOF 6
