REMARK  Name = ZINC09396239
REMARK  10 active torsions:
REMARK  status: ('A' for Active; 'I' for Inactive)
REMARK    1  A    between atoms: C_1  and  C_2
REMARK    2  A    between atoms: C_5  and  C_8
REMARK    3  A    between atoms: N_10  and  N_11
REMARK    4  A    between atoms: C_12  and  C_14
REMARK    5  A    between atoms: C_14  and  S_15
REMARK    6  A    between atoms: S_15  and  C_16
REMARK    7  A    between atoms: C_19  and  C_28
REMARK    8  A    between atoms: N_20  and  C_21
REMARK    9  A    between atoms: C_28  and  C_30
REMARK   10  A    between atoms: C_28  and  N_64
REMARK                            x       y       z     vdW  Elec       q    Type
REMARK                         _______ _______ _______ _____ _____    ______ ____
ROOT
ATOM      1  C   UNL     1       7.738   1.657  -0.548  0.00  0.00    +0.197 A 
ATOM      2  N   UNL     1       7.530   0.362  -0.488  0.00  0.00    -0.122 NA
ATOM      3  N   UNL     1       8.647  -0.253  -0.330  0.00  0.00    -0.135 NA
ATOM      4  C   UNL     1       9.628   0.603  -0.280  0.00  0.00    +0.125 A 
ATOM      5  N   UNL     1       9.086   1.853  -0.422  0.00  0.00    -0.275 N 
ENDROOT
BRANCH   5   6
ATOM      6  C   UNL     1       9.770   3.078  -0.433  0.00  0.00    +0.050 A 
ATOM      7  C   UNL     1      10.664   3.365  -1.455  0.00  0.00    +0.029 A 
ATOM      8  C   UNL     1      11.331   4.575  -1.468  0.00  0.00    +0.040 A 
ATOM      9  C   UNL     1      11.118   5.495  -0.455  0.00  0.00    +0.124 A 
ATOM     10  C   UNL     1      10.231   5.207   0.569  0.00  0.00    +0.040 A 
ATOM     11  C   UNL     1       9.557   4.002   0.581  0.00  0.00    +0.029 A 
ATOM     12  F   UNL     1      11.777   6.674  -0.465  0.00  0.00    -0.205 F 
ENDBRANCH   5   6
BRANCH   4  13
ATOM     13  C   UNL     1      11.089   0.279  -0.104  0.00  0.00    -0.002 C 
ATOM     14  C   UNL     1      11.348  -0.140   1.345  0.00  0.00    -0.005 C 
BRANCH  13  20
ATOM     15  C   UNL     1      12.885  -1.146  -0.882  0.00  0.00    -0.078 C 
ATOM     16  C   UNL     1      13.202  -2.385  -1.722  0.00  0.00    -0.019 C 
ATOM     17  C   UNL     1      12.847  -2.108  -3.185  0.00  0.00    -0.004 C 
ATOM     18  C   UNL     1      11.367  -1.726  -3.279  0.00  0.00    -0.019 C 
ATOM     19  C   UNL     1      11.104  -0.505  -2.394  0.00  0.00    -0.078 C 
ATOM     20  N   UNL     1      11.442  -0.845  -0.996  0.00  0.00    +0.386 N 
ATOM     21  H   UNL     1      10.906  -1.674  -0.715  0.00  0.00    -0.081 HD
ENDBRANCH  13  20
ENDBRANCH   4  13
BRANCH   1  22
ATOM     22  S   UNL     1       6.513   2.906  -0.758  0.00  0.00    -0.076 S 
BRANCH  22  23
ATOM     23  C   UNL     1       5.027   1.877  -0.852  0.00  0.00    +0.174 C 
BRANCH  23  25
ATOM     24  N   UNL     1       2.591   2.205  -1.133  0.00  0.00    -0.233 N 
ATOM     25  C   UNL     1       3.817   2.756  -1.037  0.00  0.00    +0.239 C 
ATOM     26  O   UNL     1       3.947   3.961  -1.099  0.00  0.00    -0.273 OA
ATOM     27  H   UNL     1       2.488   1.242  -1.082  0.00  0.00    +0.173 HD
BRANCH  24  30
ATOM     28  C   UNL     1       0.241   2.471  -1.401  0.00  0.00    +0.260 C 
ATOM     29  O   UNL     1       0.111   1.264  -1.338  0.00  0.00    -0.269 OA
ATOM     30  N   UNL     1       1.467   3.022  -1.305  0.00  0.00    -0.230 N 
ATOM     31  H   UNL     1       1.571   3.986  -1.355  0.00  0.00    +0.173 HD
BRANCH  28  36
ATOM     32  C   UNL     1      -4.376   5.828  -2.130  0.00  0.00    +0.044 C 
ATOM     33  C   UNL     1      -3.167   4.949  -1.939  0.00  0.00    -0.050 A 
ATOM     34  C   UNL     1      -3.318   3.575  -1.868  0.00  0.00    +0.004 A 
ATOM     35  C   UNL     1      -2.216   2.765  -1.694  0.00  0.00    +0.013 A 
ATOM     36  C   UNL     1      -0.945   3.333  -1.588  0.00  0.00    +0.038 A 
ATOM     37  C   UNL     1      -0.800   4.720  -1.655  0.00  0.00    +0.013 A 
ATOM     38  C   UNL     1      -1.911   5.518  -1.835  0.00  0.00    +0.004 A 
ENDBRANCH  28  36
ENDBRANCH  24  30
ENDBRANCH  23  25
ENDBRANCH  22  23
ENDBRANCH   1  22
TORSDOF 8
