REMARK  Name = ZINC01063860
REMARK  3 active torsions:
REMARK  status: ('A' for Active; 'I' for Inactive)
REMARK    1  A    between atoms: C_4  and  C_7
REMARK    2  A    between atoms: C_7  and  O_27
REMARK    3  A    between atoms: N_16  and  C_17
REMARK                            x       y       z     vdW  Elec       q    Type
REMARK                         _______ _______ _______ _____ _____    ______ ____
ROOT
ATOM      1  C   UNL     1      -2.514   0.980   0.019  0.00  0.00    +0.193 C 
ATOM      2  C   UNL     1      -2.931   0.664  -1.395  0.00  0.00    +0.019 A 
ATOM      3  C   UNL     1      -2.348  -0.053  -2.413  0.00  0.00    +0.009 A 
ATOM      4  C   UNL     1      -2.990  -0.168  -3.635  0.00  0.00    +0.000 A 
ATOM      5  C   UNL     1      -4.218   0.438  -3.835  0.00  0.00    +0.001 A 
ATOM      6  C   UNL     1      -4.812   1.160  -2.821  0.00  0.00    +0.013 A 
ATOM      7  C   UNL     1      -4.171   1.281  -1.587  0.00  0.00    +0.045 A 
ATOM      8  C   UNL     1      -4.543   1.971  -0.337  0.00  0.00    +0.254 C 
ATOM      9  O   UNL     1      -5.567   2.604  -0.172  0.00  0.00    -0.270 OA
ATOM     10  N   UNL     1      -3.588   1.799   0.593  0.00  0.00    -0.230 N 
ENDROOT
BRANCH  10  11
ATOM     11  C   UNL     1      -3.613   2.316   1.893  0.00  0.00    +0.044 A 
ATOM     12  C   UNL     1      -2.559   2.065   2.762  0.00  0.00    +0.027 A 
ATOM     13  C   UNL     1      -2.584   2.575   4.045  0.00  0.00    +0.051 A 
ATOM     14  C   UNL     1      -3.661   3.338   4.471  0.00  0.00    +0.162 A 
ATOM     15  C   UNL     1      -4.717   3.592   3.604  0.00  0.00    +0.164 A 
ATOM     16  C   UNL     1      -4.689   3.084   2.314  0.00  0.00    +0.073 A 
ATOM     17  O   UNL     1      -5.781   4.342   4.003  0.00  0.00    -0.485 OA
ATOM     18  C   UNL     1      -5.948   4.524   5.413  0.00  0.00    +0.270 C 
ATOM     19  C   UNL     1      -4.585   4.895   6.014  0.00  0.00    +0.270 C 
ATOM     20  O   UNL     1      -3.670   3.828   5.742  0.00  0.00    -0.485 OA
ENDBRANCH  10  11
BRANCH   1  24
ATOM     21  C   UNL     1       1.156   3.165   0.008  0.00  0.00    +0.000 A 
ATOM     22  C   UNL     1       1.175   1.783   0.000  0.00  0.00    +0.000 A 
ATOM     23  C   UNL     1      -0.013   1.076   0.008  0.00  0.00    +0.008 A 
ATOM     24  C   UNL     1      -1.219   1.751   0.017  0.00  0.00    +0.007 A 
ATOM     25  C   UNL     1      -1.238   3.133   0.029  0.00  0.00    +0.008 A 
ATOM     26  C   UNL     1      -0.050   3.840   0.023  0.00  0.00    +0.000 A 
ENDBRANCH   1  24
BRANCH   1  27
ATOM     27  O   UNL     1      -2.364  -0.228   0.768  0.00  0.00    -0.364 OA
ATOM     28  H   UNL     1      -1.677  -0.819   0.430  0.00  0.00    +0.213 HD
ENDBRANCH   1  27
TORSDOF 3
