REMARK  Name = ZINC08964136
REMARK  9 active torsions:
REMARK  status: ('A' for Active; 'I' for Inactive)
REMARK    1  A    between atoms: C_1  and  C_2
REMARK    2  A    between atoms: C_2  and  C_3
REMARK    3  A    between atoms: C_6  and  N_9
REMARK    4  A    between atoms: C_10  and  C_12
REMARK    5  A    between atoms: N_14  and  C_15
REMARK    6  A    between atoms: C_15  and  C_16
REMARK    7  A    between atoms: C_16  and  C_18
REMARK    8  A    between atoms: C_16  and  N_63
REMARK    9  A    between atoms: N_26  and  C_27
REMARK                            x       y       z     vdW  Elec       q    Type
REMARK                         _______ _______ _______ _____ _____    ______ ____
ROOT
ATOM      1  C   UNL     1      -3.816   6.341   8.398  0.00  0.00    +0.094 C 
ENDROOT
BRANCH   1   4
ATOM      2  C   UNL     1      -4.056   4.106   9.340  0.00  0.00    +0.299 C 
ATOM      3  O   UNL     1      -4.602   3.763   8.312  0.00  0.00    -0.265 OA
ATOM      4  N   UNL     1      -3.625   5.375   9.483  0.00  0.00    -0.309 N 
ATOM      5  H   UNL     1      -3.188   5.649  10.305  0.00  0.00    +0.149 HD
BRANCH   2   7
ATOM      6  N   UNL     1      -4.291   1.853  10.302  0.00  0.00    -0.278 N 
ATOM      7  C   UNL     1      -3.861   3.122  10.446  0.00  0.00    +0.303 C 
ATOM      8  O   UNL     1      -3.314   3.465  11.474  0.00  0.00    -0.265 OA
ATOM      9  H   UNL     1      -4.663   1.560   9.456  0.00  0.00    +0.155 HD
BRANCH   6  13
ATOM     10  C   UNL     1      -4.022  -0.810  13.493  0.00  0.00    -0.048 A 
ATOM     11  C   UNL     1      -4.265   0.530  13.732  0.00  0.00    +0.005 A 
ATOM     12  C   UNL     1      -4.350   1.417  12.676  0.00  0.00    +0.023 A 
ATOM     13  C   UNL     1      -4.201   0.959  11.373  0.00  0.00    +0.034 A 
ATOM     14  C   UNL     1      -3.963  -0.389  11.136  0.00  0.00    +0.023 A 
ATOM     15  C   UNL     1      -3.874  -1.269  12.197  0.00  0.00    +0.005 A 
BRANCH  10  17
ATOM     16  C   UNL     1      -2.472  -1.863  15.117  0.00  0.00    +0.009 C 
ATOM     17  C   UNL     1      -3.925  -1.774  14.648  0.00  0.00    +0.032 C 
ENDBRANCH  10  17
ENDBRANCH   6  13
ENDBRANCH   2   7
ENDBRANCH   1   4
BRANCH   1  18
ATOM     18  C   UNL     1      -3.151   7.667   8.773  0.00  0.00    -0.020 C 
BRANCH  18  19
ATOM     19  C   UNL     1      -3.860   8.267   9.960  0.00  0.00    -0.059 A 
ATOM     20  C   UNL     1      -5.045   8.958   9.782  0.00  0.00    +0.004 A 
ATOM     21  C   UNL     1      -5.698   9.507  10.866  0.00  0.00    +0.023 A 
ATOM     22  C   UNL     1      -5.162   9.378  12.146  0.00  0.00    +0.033 A 
ATOM     23  C   UNL     1      -3.971   8.683  12.314  0.00  0.00    -0.025 A 
ATOM     24  C   UNL     1      -3.323   8.133  11.227  0.00  0.00    +0.007 A 
ATOM     25  C   UNL     1      -3.630   8.688  13.791  0.00  0.00    +0.056 C 
ATOM     26  C   UNL     1      -4.967   9.099  14.450  0.00  0.00    +0.109 C 
ATOM     27  N   UNL     1      -5.638   9.859  13.373  0.00  0.00    -0.332 N 
ATOM     28  C   UNL     1      -7.098   9.720  13.462  0.00  0.00    +0.129 C 
ENDBRANCH  18  19
BRANCH  18  33
ATOM     29  C   UNL     1      -2.604   9.898   7.966  0.00  0.00    -0.078 C 
ATOM     30  C   UNL     1      -2.306  10.511   6.575  0.00  0.00    -0.020 C 
ATOM     31  C   UNL     1      -1.880   9.282   5.739  0.00  0.00    -0.020 C 
ATOM     32  C   UNL     1      -2.483   8.069   6.472  0.00  0.00    -0.078 C 
ATOM     33  N   UNL     1      -3.220   8.609   7.615  0.00  0.00    +0.385 N 
ATOM     34  H   UNL     1      -4.203   8.753   7.357  0.00  0.00    -0.081 HD
ENDBRANCH  18  33
ENDBRANCH   1  18
TORSDOF 7
