REMARK  Name = ZINC02786958
REMARK  4 active torsions:
REMARK  status: ('A' for Active; 'I' for Inactive)
REMARK    1  A    between atoms: C_6  and  N_7
REMARK    2  A    between atoms: C_8  and  C_10
REMARK    3  A    between atoms: C_10  and  N_11
REMARK    4  A    between atoms: N_18  and  C_21
REMARK                            x       y       z     vdW  Elec       q    Type
REMARK                         _______ _______ _______ _____ _____    ______ ____
ROOT
ATOM      1  N   UNL     1      -5.568  -0.481  -0.981  0.00  0.00    -0.214 N 
ATOM      2  C   UNL     1      -4.397   0.235  -0.694  0.00  0.00    +0.216 C 
ATOM      3  C   UNL     1      -4.075  -0.373   0.728  0.00  0.00    +0.246 C 
ATOM      4  C   UNL     1      -3.075   0.657   1.146  0.00  0.00    +0.255 C 
ATOM      5  O   UNL     1      -2.872   1.059   2.272  0.00  0.00    -0.272 OA
ATOM      6  N   UNL     1      -2.436   1.054   0.006  0.00  0.00    -0.205 N 
ATOM      7  C   UNL     1      -3.103   0.672  -1.131  0.00  0.00    +0.251 C 
ATOM      8  O   UNL     1      -2.685   0.697  -2.269  0.00  0.00    -0.273 OA
ATOM      9  N   UNL     1      -5.426  -0.402   1.252  0.00  0.00    -0.156 NA
ATOM     10  N   UNL     1      -6.234  -0.497   0.288  0.00  0.00    -0.082 NA
ENDROOT
BRANCH   6  11
ATOM     11  C   UNL     1      -1.234   1.776  -0.002  0.00  0.00    +0.062 A 
ATOM     12  C   UNL     1      -0.019   1.105  -0.018  0.00  0.00    +0.027 A 
ATOM     13  C   UNL     1       1.163   1.819  -0.031  0.00  0.00    +0.022 A 
ATOM     14  C   UNL     1       1.138   3.203  -0.024  0.00  0.00    +0.042 A 
ATOM     15  C   UNL     1      -0.071   3.875  -0.002  0.00  0.00    +0.042 A 
ATOM     16  C   UNL     1      -1.257   3.165   0.011  0.00  0.00    +0.064 A 
ATOM     17 CL   UNL     1      -2.774   4.009   0.037  0.00  0.00    -0.082 Cl
ATOM     18 CL   UNL     1       2.627   4.096  -0.040  0.00  0.00    -0.083 Cl
ENDBRANCH   6  11
BRANCH   1  19
ATOM     19  C   UNL     1      -5.991  -1.072  -2.253  0.00  0.00    +0.224 C 
BRANCH  19  21
ATOM     20  N   UNL     1      -5.732  -3.224  -3.445  0.00  0.00    -0.284 N 
ATOM     21  C   UNL     1      -5.466  -2.481  -2.353  0.00  0.00    +0.236 C 
ATOM     22  O   UNL     1      -4.803  -2.946  -1.450  0.00  0.00    -0.274 OA
ATOM     23  H   UNL     1      -6.317  -2.877  -4.137  0.00  0.00    +0.155 HD
BRANCH  20  29
ATOM     24  C   UNL     1      -4.973  -5.295  -2.463  0.00  0.00    +0.025 A 
ATOM     25  C   UNL     1      -4.413  -6.551  -2.600  0.00  0.00    +0.023 A 
ATOM     26  C   UNL     1      -4.043  -7.012  -3.850  0.00  0.00    +0.059 A 
ATOM     27  C   UNL     1      -4.233  -6.217  -4.968  0.00  0.00    +0.061 A 
ATOM     28  C   UNL     1      -4.798  -4.962  -4.837  0.00  0.00    +0.044 A 
ATOM     29  C   UNL     1      -5.165  -4.496  -3.582  0.00  0.00    +0.035 A 
ATOM     30 CL   UNL     1      -3.767  -6.799  -6.536  0.00  0.00    -0.082 Cl
ATOM     31 CL   UNL     1      -3.338  -8.590  -4.019  0.00  0.00    -0.082 Cl
ENDBRANCH  20  29
ENDBRANCH  19  21
ENDBRANCH   1  19
TORSDOF 4
