REMARK  Name = ZINC22473190
REMARK  10 active torsions:
REMARK  status: ('A' for Active; 'I' for Inactive)
REMARK    1  A    between atoms: C_4  and  C_7
REMARK    2  A    between atoms: C_7  and  N_8
REMARK    3  A    between atoms: N_8  and  C_9
REMARK    4  A    between atoms: C_9  and  C_10
REMARK    5  A    between atoms: C_10  and  C_11
REMARK    6  A    between atoms: C_11  and  N_12
REMARK    7  A    between atoms: C_15  and  O_16
REMARK    8  A    between atoms: C_24  and  C_26
REMARK    9  A    between atoms: C_26  and  O_27
REMARK   10  A    between atoms: O_27  and  C_28
REMARK                            x       y       z     vdW  Elec       q    Type
REMARK                         _______ _______ _______ _____ _____    ______ ____
ROOT
ATOM      1  N   UNL     1      -5.940   2.597   0.058  0.00  0.00    -0.294 N 
ATOM      2  C   UNL     1      -6.618   2.958  -1.049  0.00  0.00    +0.253 C 
ATOM      3  O   UNL     1      -6.147   2.744  -2.146  0.00  0.00    -0.272 OA
ENDROOT
BRANCH   1   4
ATOM      4  C   UNL     1      -6.455   2.954   1.382  0.00  0.00    +0.143 C 
BRANCH   4   8
ATOM      5  C   UNL     1      -8.677  -0.327   2.978  0.00  0.00    +0.000 A 
ATOM      6  C   UNL     1      -7.301  -0.293   3.112  0.00  0.00    +0.000 A 
ATOM      7  C   UNL     1      -6.582   0.769   2.596  0.00  0.00    +0.005 A 
ATOM      8  C   UNL     1      -7.239   1.796   1.945  0.00  0.00    -0.030 A 
ATOM      9  C   UNL     1      -8.615   1.765   1.815  0.00  0.00    +0.005 A 
ATOM     10  C   UNL     1      -9.333   0.701   2.327  0.00  0.00    +0.000 A 
ENDBRANCH   4   8
ENDBRANCH   1   4
BRANCH   1  11
ATOM     11  C   UNL     1      -4.686   1.847  -0.063  0.00  0.00    +0.110 C 
BRANCH  11  12
ATOM     12  C   UNL     1      -3.514   2.826  -0.152  0.00  0.00    +0.040 C 
BRANCH  12  13
ATOM     13  C   UNL     1      -2.205   2.043  -0.278  0.00  0.00    +0.114 C 
BRANCH  13  14
ATOM     14  N   UNL     1      -1.082   2.980  -0.364  0.00  0.00    -0.384 N 
ATOM     15  C   UNL     1       0.205   2.504  -0.484  0.00  0.00    +0.053 A 
ATOM     16  C   UNL     1       0.459   1.157  -0.525  0.00  0.00    +0.113 A 
ATOM     17  C   UNL     1       1.777   0.703  -0.653  0.00  0.00    +0.286 A 
ATOM     18  O   UNL     1       2.815   1.552  -0.738  0.00  0.00    -0.425 OA
ATOM     19  C   UNL     1       2.642   2.891  -0.704  0.00  0.00    +0.141 A 
ATOM     20  C   UNL     1       1.349   3.425  -0.578  0.00  0.00    +0.041 A 
ATOM     21  C   UNL     1       1.166   4.808  -0.543  0.00  0.00    +0.013 A 
ATOM     22  C   UNL     1       2.258   5.643  -0.634  0.00  0.00    +0.001 A 
ATOM     23  C   UNL     1       3.534   5.114  -0.760  0.00  0.00    +0.004 A 
ATOM     24  C   UNL     1       3.729   3.749  -0.794  0.00  0.00    +0.047 A 
ATOM     25  H   UNL     1      -1.267   4.064  -0.333  0.00  0.00    +0.160 HD
BRANCH  17  26
ATOM     26  O   UNL     1       1.990  -0.497  -0.688  0.00  0.00    -0.480 OA
ATOM     27  H   UNL     1       3.019  -0.870  -0.789  0.00  0.00    +0.295 HD
ENDBRANCH  17  26
ENDBRANCH  13  14
ENDBRANCH  12  13
ENDBRANCH  11  12
ENDBRANCH   1  11
BRANCH   2  28
ATOM     28  C   UNL     1      -7.962   3.627  -0.924  0.00  0.00    +0.324 C 
BRANCH  28  29
ATOM     29  O   UNL     1      -8.521   3.821  -2.225  0.00  0.00    -0.483 OA
BRANCH  29  30
ATOM     30  C   UNL     1      -9.740   4.418  -2.291  0.00  0.00    +0.121 A 
ATOM     31  C   UNL     1     -10.389   4.803  -1.127  0.00  0.00    +0.047 A 
ATOM     32  C   UNL     1     -11.625   5.415  -1.196  0.00  0.00    +0.019 A 
ATOM     33  C   UNL     1     -12.223   5.632  -2.424  0.00  0.00    +0.018 A 
ATOM     34  C   UNL     1     -11.581   5.244  -3.586  0.00  0.00    +0.019 A 
ATOM     35  C   UNL     1     -10.341   4.637  -3.522  0.00  0.00    +0.047 A 
ATOM     36 BR   UNL     1     -13.919   6.463  -2.515  0.00  0.00    -0.050 Br
ENDBRANCH  29  30
ENDBRANCH  28  29
ENDBRANCH   2  28
TORSDOF 10
