REMARK  Name = ZINC08835200
REMARK  8 active torsions:
REMARK  status: ('A' for Active; 'I' for Inactive)
REMARK    1  A    between atoms: C_1  and  C_2
REMARK    2  A    between atoms: C_2  and  C_3
REMARK    3  A    between atoms: C_10  and  C_12
REMARK    4  A    between atoms: C_14  and  N_19
REMARK    5  A    between atoms: C_17  and  O_18
REMARK    6  A    between atoms: N_19  and  C_20
REMARK    7  A    between atoms: C_20  and  N_22
REMARK    8  A    between atoms: C_23  and  C_25
REMARK                            x       y       z     vdW  Elec       q    Type
REMARK                         _______ _______ _______ _____ _____    ______ ____
ROOT
ATOM      1  C   UNL     1       3.547   1.915   0.200  0.00  0.00    +0.080 A 
ATOM      2  C   UNL     1       2.390   1.136   0.163  0.00  0.00    +0.040 A 
ATOM      3  C   UNL     1       1.152   1.746   0.045  0.00  0.00    +0.034 A 
ATOM      4  C   UNL     1       1.062   3.131  -0.042  0.00  0.00    +0.027 A 
ATOM      5  C   UNL     1       2.203   3.907  -0.001  0.00  0.00    +0.048 A 
ATOM      6  C   UNL     1       3.448   3.310   0.117  0.00  0.00    +0.129 A 
ENDROOT
BRANCH   1  14
ATOM      7  C   UNL     1       9.169  -0.036   0.692  0.00  0.00    -0.045 A 
ATOM      8  C   UNL     1       8.566  -1.285   0.719  0.00  0.00    +0.007 A 
ATOM      9  C   UNL     1       7.195  -1.403   0.631  0.00  0.00    +0.049 A 
ATOM     10  C   UNL     1       6.410  -0.266   0.515  0.00  0.00    +0.156 A 
ATOM     11  C   UNL     1       7.015   1.001   0.488  0.00  0.00    +0.110 A 
ATOM     12  C   UNL     1       8.406   1.104   0.578  0.00  0.00    +0.035 A 
ATOM     13  N   UNL     1       6.014   1.909   0.364  0.00  0.00    -0.209 NA
ATOM     14  C   UNL     1       4.870   1.272   0.326  0.00  0.00    +0.232 A 
ATOM     15  O   UNL     1       5.079  -0.055   0.412  0.00  0.00    -0.435 OA
BRANCH   7  17
ATOM     16  C   UNL     1      11.078   0.189   2.259  0.00  0.00    +0.009 C 
ATOM     17  C   UNL     1      10.669   0.074   0.789  0.00  0.00    +0.032 C 
ENDBRANCH   7  17
ENDBRANCH   1  14
BRANCH   6  18
ATOM     18  O   UNL     1       4.569   4.075   0.153  0.00  0.00    -0.506 OA
ATOM     19  H   UNL     1       4.954   4.249  -0.717  0.00  0.00    +0.292 HD
ENDBRANCH   6  18
BRANCH   3  20
ATOM     20  N   UNL     1      -0.011   0.966   0.007  0.00  0.00    -0.297 N 
ATOM     21  H   UNL     1      -0.047   0.176  -0.554  0.00  0.00    +0.154 HD
BRANCH  20  22
ATOM     22  C   UNL     1      -1.082   1.316   0.747  0.00  0.00    +0.141 C 
ATOM     23  S   UNL     1      -1.058   2.768   1.654  0.00  0.00    -0.018 S 
BRANCH  22  24
ATOM     24  N   UNL     1      -2.171   0.523   0.773  0.00  0.00    -0.264 N 
ATOM     25  C   UNL     1      -3.242   0.874   1.513  0.00  0.00    +0.251 C 
ATOM     26  O   UNL     1      -3.225   1.904   2.157  0.00  0.00    -0.270 OA
ATOM     27  H   UNL     1      -2.185  -0.299   0.259  0.00  0.00    +0.157 HD
BRANCH  25  28
ATOM     28  C   UNL     1      -4.436   0.005   1.542  0.00  0.00    +0.057 A 
ATOM     29  C   UNL     1      -4.462  -1.177   0.798  0.00  0.00    +0.034 A 
ATOM     30  C   UNL     1      -5.579  -1.987   0.834  0.00  0.00    +0.042 A 
ATOM     31  C   UNL     1      -6.677  -1.624   1.596  0.00  0.00    +0.021 A 
ATOM     32  C   UNL     1      -6.662  -0.453   2.329  0.00  0.00    +0.022 A 
ATOM     33  C   UNL     1      -5.548   0.365   2.308  0.00  0.00    +0.053 A 
ATOM     34 CL   UNL     1      -5.530   1.835   3.230  0.00  0.00    -0.083 Cl
ATOM     35 CL   UNL     1      -5.609  -3.460  -0.084  0.00  0.00    -0.084 Cl
ENDBRANCH  25  28
ENDBRANCH  22  24
ENDBRANCH  20  22
ENDBRANCH   3  20
TORSDOF 7
