REMARK  Name = ZINC00629635
REMARK  10 active torsions:
REMARK  status: ('A' for Active; 'I' for Inactive)
REMARK    1  A    between atoms: C_1  and  O_2
REMARK    2  A    between atoms: O_2  and  C_3
REMARK    3  A    between atoms: C_6  and  N_9
REMARK    4  A    between atoms: N_9  and  C_10
REMARK    5  A    between atoms: N_9  and  S_28
REMARK    6  A    between atoms: C_10  and  C_11
REMARK    7  A    between atoms: C_11  and  C_13
REMARK    8  A    between atoms: C_11  and  O_27
REMARK    9  A    between atoms: C_13  and  N_14
REMARK   10  A    between atoms: S_28  and  C_31
REMARK                            x       y       z     vdW  Elec       q    Type
REMARK                         _______ _______ _______ _____ _____    ______ ____
ROOT
ATOM      1  N   UNL     1       2.630   5.601   2.831  0.00  0.00    -0.200 N 
ENDROOT
BRANCH   1   5
ATOM      2  C   UNL     1      -0.418   7.148   5.216  0.00  0.00    +0.120 A 
ATOM      3  C   UNL     1       0.384   6.123   5.694  0.00  0.00    +0.047 A 
ATOM      4  C   UNL     1       1.394   5.609   4.905  0.00  0.00    +0.028 A 
ATOM      5  C   UNL     1       1.607   6.120   3.631  0.00  0.00    +0.052 A 
ATOM      6  C   UNL     1       0.807   7.151   3.155  0.00  0.00    +0.028 A 
ATOM      7  C   UNL     1      -0.206   7.659   3.943  0.00  0.00    +0.047 A 
BRANCH   2   9
ATOM      8  C   UNL     1      -2.199   8.709   5.437  0.00  0.00    +0.277 C 
ATOM      9  O   UNL     1      -1.412   7.654   5.994  0.00  0.00    -0.495 OA
ENDBRANCH   2   9
ENDBRANCH   1   5
BRANCH   1  10
ATOM     10  S   UNL     1       4.202   5.667   3.349  0.00  0.00    +0.075 S 
ATOM     11  O   UNL     1       4.157   5.886   4.753  0.00  0.00    -0.150 OA
ATOM     12  O   UNL     1       4.867   4.551   2.773  0.00  0.00    -0.150 OA
BRANCH  10  13
ATOM     13  C   UNL     1       4.925   7.107   2.637  0.00  0.00    +0.109 A 
ATOM     14  C   UNL     1       5.554   7.029   1.409  0.00  0.00    +0.030 A 
ATOM     15  C   UNL     1       6.117   8.160   0.847  0.00  0.00    +0.022 A 
ATOM     16  C   UNL     1       6.060   9.367   1.520  0.00  0.00    +0.041 A 
ATOM     17  C   UNL     1       5.434   9.444   2.752  0.00  0.00    +0.022 A 
ATOM     18  C   UNL     1       4.867   8.314   3.310  0.00  0.00    +0.030 A 
ATOM     19 CL   UNL     1       6.772  10.787   0.818  0.00  0.00    -0.084 Cl
ENDBRANCH  10  13
ENDBRANCH   1  10
BRANCH   1  20
ATOM     20  C   UNL     1       2.312   4.998   1.534  0.00  0.00    +0.164 C 
BRANCH  20  21
ATOM     21  C   UNL     1       1.924   3.532   1.735  0.00  0.00    +0.153 C 
BRANCH  21  22
ATOM     22  O   UNL     1       0.715   3.458   2.493  0.00  0.00    -0.388 OA
ATOM     23  H   UNL     1      -0.038   3.898   2.076  0.00  0.00    +0.210 HD
ENDBRANCH  21  22
BRANCH  21  24
ATOM     24  C   UNL     1       1.712   2.869   0.372  0.00  0.00    +0.155 C 
BRANCH  24  25
ATOM     25  N   UNL     1       1.458   1.438   0.559  0.00  0.00    -0.337 N 
ATOM     26  C   UNL     1       0.207   0.873   0.732  0.00  0.00    +0.050 A 
ATOM     27  C   UNL     1      -1.070   1.423   0.784  0.00  0.00    +0.026 A 
ATOM     28  C   UNL     1      -2.165   0.606   0.968  0.00  0.00    +0.002 A 
ATOM     29  C   UNL     1      -2.008  -0.763   1.112  0.00  0.00    +0.001 A 
ATOM     30  C   UNL     1      -0.750  -1.326   1.068  0.00  0.00    +0.010 A 
ATOM     31  C   UNL     1       0.365  -0.513   0.878  0.00  0.00    +0.008 A 
ATOM     32  C   UNL     1       1.812  -0.782   0.784  0.00  0.00    +0.008 A 
ATOM     33  C   UNL     1       2.435   0.459   0.587  0.00  0.00    +0.050 A 
ATOM     34  C   UNL     1       3.820   0.513   0.461  0.00  0.00    +0.026 A 
ATOM     35  C   UNL     1       4.565  -0.645   0.531  0.00  0.00    +0.002 A 
ATOM     36  C   UNL     1       3.947  -1.870   0.725  0.00  0.00    +0.001 A 
ATOM     37  C   UNL     1       2.576  -1.944   0.851  0.00  0.00    +0.010 A 
ENDBRANCH  24  25
ENDBRANCH  21  24
ENDBRANCH  20  21
ENDBRANCH   1  20
TORSDOF 9
