REMARK  Name = ZINC23265042
REMARK  9 active torsions:
REMARK  status: ('A' for Active; 'I' for Inactive)
REMARK    1  A    between atoms: C_2  and  C_3
REMARK    2  A    between atoms: C_3  and  N_4
REMARK    3  A    between atoms: C_5  and  C_7
REMARK    4  A    between atoms: C_7  and  N_8
REMARK    5  A    between atoms: N_11  and  C_14
REMARK    6  A    between atoms: C_14  and  C_15
REMARK    7  A    between atoms: N_17  and  C_18
REMARK    8  A    between atoms: N_17  and  C_26
REMARK    9  A    between atoms: C_18  and  C_19
REMARK                            x       y       z     vdW  Elec       q    Type
REMARK                         _______ _______ _______ _____ _____    ______ ____
ROOT
ATOM      1  C   UNL     1       2.224   4.083   2.077  0.00  0.00    +0.230 C 
ATOM      2  O   UNL     1       3.256   3.899   1.466  0.00  0.00    -0.274 OA
ATOM      3  N   UNL     1       1.070   4.271   1.407  0.00  0.00    -0.290 N 
ENDROOT
BRANCH   3   4
ATOM      4  C   UNL     1      -0.148   4.637   2.135  0.00  0.00    +0.039 C 
ATOM      5  C   UNL     1       0.016   6.036   2.733  0.00  0.00    +0.029 C 
ATOM      6  C   UNL     1      -1.256   6.418   3.493  0.00  0.00    -0.008 C 
ATOM      7  C   UNL     1      -2.446   6.410   2.532  0.00  0.00    +0.007 C 
ATOM      8  C   UNL     1      -2.610   5.011   1.935  0.00  0.00    -0.008 C 
ATOM      9  C   UNL     1      -1.338   4.629   1.175  0.00  0.00    +0.029 C 
ATOM     10  C   UNL     1      -2.855   4.002   3.059  0.00  0.00    +0.007 C 
ATOM     11  C   UNL     1      -1.664   4.010   4.020  0.00  0.00    -0.008 C 
ATOM     12  C   UNL     1      -1.500   5.409   4.617  0.00  0.00    +0.007 C 
ATOM     13  C   UNL     1      -0.392   3.628   3.259  0.00  0.00    +0.029 C 
ENDBRANCH   3   4
BRANCH   1  14
ATOM     14  C   UNL     1       2.234   4.103   3.584  0.00  0.00    +0.180 C 
BRANCH  14  18
ATOM     15  N   UNL     1       5.901   3.590   5.617  0.00  0.00    +0.387 N 
ATOM     16  C   UNL     1       5.086   4.766   5.953  0.00  0.00    -0.063 C 
ATOM     17  C   UNL     1       3.641   4.525   5.509  0.00  0.00    +0.066 C 
ATOM     18  N   UNL     1       3.613   4.265   4.063  0.00  0.00    -0.298 NA
ATOM     19  C   UNL     1       4.428   3.089   3.727  0.00  0.00    +0.066 C 
ATOM     20  C   UNL     1       5.873   3.329   4.171  0.00  0.00    -0.063 C 
ATOM     21  H   UNL     1       5.467   2.718   6.128  0.00  0.00    -0.081 HD
BRANCH  15  22
ATOM     22  C   UNL     1       7.280   3.752   6.096  0.00  0.00    +0.019 C 
BRANCH  22  24
ATOM     23  N   UNL     1       9.307   2.354   6.336  0.00  0.00    -0.313 N 
ATOM     24  C   UNL     1       8.017   2.445   5.957  0.00  0.00    +0.197 C 
ATOM     25  O   UNL     1       7.449   1.474   5.503  0.00  0.00    -0.278 OA
ATOM     26  H   UNL     1       9.822   3.234   6.748  0.00  0.00    +0.149 HD
BRANCH  23  27
ATOM     27  C   UNL     1      10.023   1.083   6.201  0.00  0.00    +0.131 C 
BRANCH  27  29
ATOM     28  C   UNL     1      11.905   0.454   7.623  0.00  0.00    +0.005 C 
ATOM     29  C   UNL     1      11.438   1.249   6.692  0.00  0.00    -0.016 C 
ENDBRANCH  27  29
ENDBRANCH  23  27
ENDBRANCH  22  24
ENDBRANCH  15  22
ENDBRANCH  14  18
ENDBRANCH   1  14
BRANCH   3  30
ATOM     30  C   UNL     1       1.032   4.110  -0.048  0.00  0.00    +0.143 C 
BRANCH  30  31
ATOM     31  C   UNL     1       0.848   2.653  -0.387  0.00  0.00    -0.030 A 
ATOM     32  C   UNL     1      -0.414   2.163  -0.665  0.00  0.00    +0.006 A 
ATOM     33  C   UNL     1      -0.583   0.827  -0.977  0.00  0.00    +0.020 A 
ATOM     34  C   UNL     1       0.510  -0.019  -1.011  0.00  0.00    +0.041 A 
ATOM     35  C   UNL     1       1.774   0.472  -0.733  0.00  0.00    +0.020 A 
ATOM     36  C   UNL     1       1.942   1.808  -0.421  0.00  0.00    +0.006 A 
ATOM     37 CL   UNL     1       0.298  -1.698  -1.402  0.00  0.00    -0.084 Cl
ENDBRANCH  30  31
ENDBRANCH   3  30
TORSDOF 9
