REMARK  Name = ZINC51127973
REMARK  7 active torsions:
REMARK  status: ('A' for Active; 'I' for Inactive)
REMARK    1  A    between atoms: C_1  and  C_2
REMARK    2  A    between atoms: C_2  and  C_4
REMARK    3  A    between atoms: C_2  and  N_9
REMARK    4  A    between atoms: C_10  and  C_12
REMARK    5  A    between atoms: C_15  and  N_21
REMARK    6  A    between atoms: C_16  and  N_18
REMARK    7  A    between atoms: N_21  and  N_22
REMARK                            x       y       z     vdW  Elec       q    Type
REMARK                         _______ _______ _______ _____ _____    ______ ____
ROOT
ATOM      1  C   UNL     1       0.809  -1.073   3.546  0.00  0.00    +0.039 A 
ATOM      2  C   UNL     1       2.082  -1.642   3.444  0.00  0.00    +0.015 A 
ATOM      3  C   UNL     1       2.700  -2.146   4.565  0.00  0.00    +0.027 A 
ATOM      4  C   UNL     1       2.060  -2.090   5.800  0.00  0.00    +0.071 A 
ATOM      5  C   UNL     1       0.793  -1.524   5.905  0.00  0.00    +0.149 A 
ATOM      6  C   UNL     1       0.171  -1.012   4.788  0.00  0.00    +0.047 A 
ENDROOT
BRANCH   1   8
ATOM      7  N   UNL     1       0.760  -0.590   1.149  0.00  0.00    -0.304 N 
ATOM      8  C   UNL     1       0.143  -0.531   2.346  0.00  0.00    +0.245 C 
ATOM      9  O   UNL     1      -0.961  -0.031   2.437  0.00  0.00    -0.270 OA
ATOM     10  H   UNL     1       1.641  -0.989   1.077  0.00  0.00    +0.150 HD
BRANCH   7  12
ATOM     11  C   UNL     1       0.370   1.450  -0.141  0.00  0.00    +0.033 C 
ATOM     12  C   UNL     1       0.099  -0.052  -0.042  0.00  0.00    +0.107 C 
BRANCH  12  13
ATOM     13  C   UNL     1       0.636  -0.742  -1.270  0.00  0.00    +0.010 A 
ATOM     14  C   UNL     1      -0.028  -1.155  -2.377  0.00  0.00    +0.013 A 
ATOM     15  C   UNL     1       0.679  -1.772  -3.392  0.00  0.00    +0.008 A 
ATOM     16  C   UNL     1       2.016  -1.946  -3.250  0.00  0.00    +0.045 A 
ATOM     17  S   UNL     1       2.315  -1.219  -1.646  0.00  0.00    -0.100 S 
ENDBRANCH  12  13
ENDBRANCH   7  12
ENDBRANCH   1   8
BRANCH   5  18
ATOM     18  N   UNL     1       0.115  -1.466   7.220  0.00  0.00    +0.058 N 
ATOM     19  O   UNL     1      -1.080  -1.638   7.292  0.00  0.00    -0.126 OA
ATOM     20  O   UNL     1       0.756  -1.248   8.221  0.00  0.00    -0.126 OA
ENDBRANCH   5  18
BRANCH   4  21
ATOM     21  N   UNL     1       2.688  -2.600   6.931  0.00  0.00    -0.281 N 
ATOM     22  H   UNL     1       2.212  -2.633   7.776  0.00  0.00    +0.166 HD
BRANCH  21  23
ATOM     23  N   UNL     1       3.973  -3.055   6.852  0.00  0.00    -0.256 NA
ATOM     24  H   UNL     1       4.589  -2.340   6.496  0.00  0.00    +0.140 HD
ATOM     25  H   UNL     1       4.292  -3.394   7.747  0.00  0.00    +0.140 HD
ENDBRANCH  21  23
ENDBRANCH   4  21
TORSDOF 6
