REMARK  Name = ZINC34659477
REMARK  9 active torsions:
REMARK  status: ('A' for Active; 'I' for Inactive)
REMARK    1  A    between atoms: C_1  and  C_2
REMARK    2  A    between atoms: C_2  and  N_3
REMARK    3  A    between atoms: N_3  and  C_4
REMARK    4  A    between atoms: C_4  and  C_5
REMARK    5  A    between atoms: C_10  and  O_11
REMARK    6  A    between atoms: O_11  and  C_12
REMARK    7  A    between atoms: C_12  and  C_14
REMARK    8  A    between atoms: C_12  and  C_15
REMARK    9  A    between atoms: N_20  and  C_21
REMARK                            x       y       z     vdW  Elec       q    Type
REMARK                         _______ _______ _______ _____ _____    ______ ____
ROOT
ATOM      1  C   UNL     1      -2.863  -2.306   0.045  0.00  0.00    -0.022 A 
ATOM      2  C   UNL     1      -3.505  -2.538   1.246  0.00  0.00    +0.020 A 
ATOM      3  C   UNL     1      -4.861  -2.810   1.265  0.00  0.00    +0.018 A 
ATOM      4  C   UNL     1      -5.577  -2.852   0.081  0.00  0.00    +0.019 A 
ATOM      5  C   UNL     1      -4.938  -2.620  -1.121  0.00  0.00    +0.047 A 
ATOM      6  C   UNL     1      -3.579  -2.341  -1.142  0.00  0.00    +0.123 A 
ATOM      7 BR   UNL     1      -5.738  -3.128   2.910  0.00  0.00    -0.050 Br
ENDROOT
BRANCH   1   8
ATOM      8  C   UNL     1      -1.385  -2.009   0.025  0.00  0.00    -0.043 C 
BRANCH   8   9
ATOM      9  N   UNL     1      -1.179  -0.560  -0.100  0.00  0.00    +0.382 N 
ATOM     10  H   UNL     1      -1.606  -0.090   0.685  0.00  0.00    -0.085 HD
ATOM     11  H   UNL     1      -1.599  -0.233  -0.957  0.00  0.00    -0.085 HD
BRANCH   9  13
ATOM     12  C   UNL     1       0.476   1.239  -0.249  0.00  0.00    -0.017 C 
ATOM     13  C   UNL     1       0.261  -0.270  -0.119  0.00  0.00    -0.086 C 
ENDBRANCH   9  13
ENDBRANCH   8   9
ENDBRANCH   1   8
BRANCH   6  14
ATOM     14  O   UNL     1      -2.950  -2.109  -2.324  0.00  0.00    -0.480 OA
BRANCH  14  15
ATOM     15  C   UNL     1      -3.720  -2.284  -3.515  0.00  0.00    +0.256 C 
ATOM     16  C   UNL     1      -4.500  -1.002  -3.811  0.00  0.00    +0.062 C 
BRANCH  15  17
ATOM     17  C   UNL     1      -2.800  -2.590  -4.668  0.00  0.00    +0.261 C 
ATOM     18  O   UNL     1      -1.603  -2.652  -4.488  0.00  0.00    -0.271 OA
ATOM     19  N   UNL     1      -3.308  -2.795  -5.899  0.00  0.00    -0.237 N 
ATOM     20  C   UNL     1      -2.485  -3.069  -6.931  0.00  0.00    +0.306 C 
ATOM     21  O   UNL     1      -1.285  -3.131  -6.751  0.00  0.00    -0.252 OA
ATOM     22  N   UNL     1      -2.993  -3.274  -8.162  0.00  0.00    -0.302 N 
ATOM     23  C   UNL     1      -2.098  -3.572  -9.284  0.00  0.00    +0.129 C 
ATOM     24  H   UNL     1      -4.266  -2.746  -6.043  0.00  0.00    +0.159 HD
ATOM     25  H   UNL     1      -3.951  -3.225  -8.306  0.00  0.00    +0.150 HD
ENDBRANCH  15  17
ENDBRANCH  14  15
ENDBRANCH   6  14
TORSDOF 6
