REMARK  Name = ZINC10353232
REMARK  8 active torsions:
REMARK  status: ('A' for Active; 'I' for Inactive)
REMARK    1  A    between atoms: C_1  and  C_2
REMARK    2  A    between atoms: C_5  and  N_8
REMARK    3  A    between atoms: C_9  and  C_28
REMARK    4  A    between atoms: C_10  and  C_24
REMARK    5  A    between atoms: C_11  and  C_16
REMARK    6  A    between atoms: C_20  and  C_22
REMARK    7  A    between atoms: C_24  and  O_26
REMARK    8  A    between atoms: O_26  and  C_27
REMARK                            x       y       z     vdW  Elec       q    Type
REMARK                         _______ _______ _______ _____ _____    ______ ____
ROOT
ATOM      1  N   UNL     1      -1.204   2.156  -0.131  0.00  0.00    -0.228 N 
ATOM      2  C   UNL     1      -0.143   1.595   0.525  0.00  0.00    +0.029 C 
ATOM      3  C   UNL     1       1.004   2.283   0.711  0.00  0.00    +0.078 C 
ATOM      4  C   UNL     1       1.073   3.698   0.173  0.00  0.00    +0.144 C 
ATOM      5  N   UNL     1      -0.126   4.210  -0.512  0.00  0.00    -0.288 N 
ATOM      6  C   UNL     1      -1.199   3.402  -0.620  0.00  0.00    +0.311 C 
ATOM      7  O   UNL     1      -2.193   3.816  -1.184  0.00  0.00    -0.252 OA
ATOM      8  C   UNL     1      -0.254   0.184   1.044  0.00  0.00    +0.062 C 
ATOM      9  H   UNL     1      -0.143   5.109  -0.877  0.00  0.00    +0.151 HD
ENDROOT
BRANCH   1  14
ATOM     10  C   UNL     1      -5.897  -0.964  -0.795  0.00  0.00    +0.044 C 
ATOM     11  C   UNL     1      -4.651  -0.136  -0.619  0.00  0.00    -0.050 A 
ATOM     12  C   UNL     1      -3.666  -0.155  -1.589  0.00  0.00    +0.005 A 
ATOM     13  C   UNL     1      -2.523   0.604  -1.431  0.00  0.00    +0.024 A 
ATOM     14  C   UNL     1      -2.362   1.385  -0.294  0.00  0.00    +0.042 A 
ATOM     15  C   UNL     1      -3.350   1.398   0.681  0.00  0.00    +0.024 A 
ATOM     16  C   UNL     1      -4.494   0.642   0.514  0.00  0.00    +0.005 A 
ENDBRANCH   1  14
BRANCH   4  17
ATOM     17  C   UNL     1       2.227   3.772  -0.792  0.00  0.00    -0.021 A 
ATOM     18  C   UNL     1       2.079   3.299  -2.084  0.00  0.00    +0.006 A 
ATOM     19  C   UNL     1       3.132   3.368  -2.978  0.00  0.00    +0.002 A 
ATOM     20  C   UNL     1       4.342   3.901  -2.584  0.00  0.00    +0.019 A 
ATOM     21  C   UNL     1       4.501   4.375  -1.281  0.00  0.00    +0.052 A 
ATOM     22  C   UNL     1       3.431   4.307  -0.385  0.00  0.00    +0.024 A 
BRANCH  21  23
ATOM     23  C   UNL     1       5.753   4.930  -0.865  0.00  0.00    +0.099 C 
ATOM     24  N   UNL     1       6.747   5.370  -0.534  0.00  0.00    -0.191 NA
ENDBRANCH  21  23
ENDBRANCH   4  17
BRANCH   3  25
ATOM     25  C   UNL     1       2.104   1.702   1.383  0.00  0.00    +0.339 C 
ATOM     26  O   UNL     1       1.998   0.597   1.882  0.00  0.00    -0.245 OA
BRANCH  25  27
ATOM     27  O   UNL     1       3.272   2.373   1.472  0.00  0.00    -0.465 OA
ATOM     28  C   UNL     1       4.341   1.726   2.165  0.00  0.00    +0.280 C 
ENDBRANCH  25  27
ENDBRANCH   3  25
TORSDOF 5
