REMARK  Name = ZINC36341948
REMARK  14 active torsions:
REMARK  status: ('A' for Active; 'I' for Inactive)
REMARK    1  A    between atoms: C_1  and  C_2
REMARK    2  A    between atoms: C_3  and  C_21
REMARK    3  A    between atoms: C_4  and  O_13
REMARK    4  A    between atoms: N_5  and  C_7
REMARK    5  A    between atoms: O_13  and  C_14
REMARK    6  A    between atoms: C_21  and  N_22
REMARK    7  A    between atoms: N_22  and  C_23
REMARK    8  A    between atoms: N_22  and  C_28
REMARK    9  A    between atoms: C_23  and  C_24
REMARK   10  A    between atoms: C_24  and  C_26
REMARK   11  A    between atoms: C_24  and  O_27
REMARK   12  A    between atoms: C_28  and  C_29
REMARK   13  A    between atoms: C_29  and  C_30
REMARK   14  A    between atoms: C_29  and  C_31
REMARK                            x       y       z     vdW  Elec       q    Type
REMARK                         _______ _______ _______ _____ _____    ______ ____
ROOT
ATOM      1  C   UNL     1       0.298   1.830   1.018  0.00  0.00    +0.068 C 
ATOM      2  C   UNL     1       0.565   0.362   0.803  0.00  0.00    +0.065 A 
ATOM      3  C   UNL     1       0.438  -0.323  -0.410  0.00  0.00    +0.021 A 
ATOM      4  C   UNL     1       0.767  -1.623  -0.191  0.00  0.00    +0.225 A 
ATOM      5  N   UNL     1       1.091  -1.747   1.124  0.00  0.00    -0.200 N 
ATOM      6  N   UNL     1       0.959  -0.486   1.718  0.00  0.00    -0.168 NA
ENDROOT
BRANCH   5   7
ATOM      7  C   UNL     1       1.491  -2.926   1.769  0.00  0.00    +0.069 A 
ATOM      8  C   UNL     1       0.821  -4.117   1.520  0.00  0.00    +0.028 A 
ATOM      9  C   UNL     1       1.217  -5.276   2.156  0.00  0.00    +0.002 A 
ATOM     10  C   UNL     1       2.279  -5.253   3.042  0.00  0.00    +0.000 A 
ATOM     11  C   UNL     1       2.948  -4.069   3.292  0.00  0.00    +0.002 A 
ATOM     12  C   UNL     1       2.561  -2.907   2.654  0.00  0.00    +0.028 A 
ENDBRANCH   5   7
BRANCH   4  13
ATOM     13  O   UNL     1       0.772  -2.617  -1.116  0.00  0.00    -0.438 OA
BRANCH  13  14
ATOM     14  C   UNL     1      -0.393  -3.279  -1.347  0.00  0.00    +0.130 A 
ATOM     15  C   UNL     1      -1.564  -2.859  -0.733  0.00  0.00    +0.048 A 
ATOM     16  C   UNL     1      -2.746  -3.533  -0.969  0.00  0.00    +0.023 A 
ATOM     17  C   UNL     1      -2.763  -4.626  -1.817  0.00  0.00    +0.041 A 
ATOM     18  C   UNL     1      -1.596  -5.047  -2.429  0.00  0.00    +0.023 A 
ATOM     19  C   UNL     1      -0.413  -4.372  -2.201  0.00  0.00    +0.048 A 
ATOM     20 CL   UNL     1      -4.250  -5.472  -2.112  0.00  0.00    -0.084 Cl
ENDBRANCH  13  14
ENDBRANCH   4  13
BRANCH   3  21
ATOM     21  C   UNL     1       0.011   0.275  -1.726  0.00  0.00    -0.036 C 
BRANCH  21  22
ATOM     22  N   UNL     1       1.194   0.754  -2.453  0.00  0.00    +0.384 N 
ATOM     23  H   UNL     1       1.693   1.420  -1.882  0.00  0.00    -0.081 HD
BRANCH  22  24
ATOM     24  C   UNL     1       0.772   1.401  -3.703  0.00  0.00    -0.047 C 
BRANCH  24  25
ATOM     25  C   UNL     1       0.009   2.687  -3.379  0.00  0.00    +0.095 C 
ATOM     26  C   UNL     1      -0.235   3.473  -4.669  0.00  0.00    +0.035 C 
BRANCH  25  27
ATOM     27  O   UNL     1      -1.245   2.357  -2.778  0.00  0.00    -0.394 OA
ATOM     28  H   UNL     1      -1.820   1.817  -3.337  0.00  0.00    +0.210 HD
ENDBRANCH  25  27
ENDBRANCH  24  25
ENDBRANCH  22  24
BRANCH  22  29
ATOM     29  C   UNL     1       2.073  -0.382  -2.761  0.00  0.00    -0.075 C 
BRANCH  29  30
ATOM     30  C   UNL     1       3.354   0.129  -3.423  0.00  0.00    -0.034 C 
ATOM     31  C   UNL     1       4.086   1.067  -2.461  0.00  0.00    +0.005 C 
ATOM     32  C   UNL     1       4.258  -1.056  -3.767  0.00  0.00    +0.005 C 
ENDBRANCH  29  30
ENDBRANCH  22  29
ENDBRANCH  21  22
ENDBRANCH   3  21
TORSDOF 10
