REMARK  Name = ZINC39688652
REMARK  6 active torsions:
REMARK  status: ('A' for Active; 'I' for Inactive)
REMARK    1  A    between atoms: C_1  and  C_2
REMARK    2  A    between atoms: C_2  and  C_4
REMARK    3  A    between atoms: C_2  and  N_12
REMARK    4  A    between atoms: C_4  and  C_5
REMARK    5  A    between atoms: C_13  and  C_15
REMARK    6  A    between atoms: C_26  and  C_28
REMARK                            x       y       z     vdW  Elec       q    Type
REMARK                         _______ _______ _______ _____ _____    ______ ____
ROOT
ATOM      1  C   UNL     1       0.291  -0.846   3.378  0.00  0.00    +0.100 C 
ATOM      2  C   UNL     1       1.609  -0.104   3.690  0.00  0.00    +0.121 C 
ATOM      3  N   UNL     1       1.275   0.795   4.820  0.00  0.00    -0.296 N 
ATOM      4  C   UNL     1       0.375  -0.012   5.678  0.00  0.00    +0.115 C 
ATOM      5  C   UNL     1      -0.515  -0.787   4.686  0.00  0.00    -0.004 C 
ATOM      6  C   UNL     1      -0.783  -2.196   5.206  0.00  0.00    -0.010 C 
ATOM      7  C   UNL     1      -1.635  -2.114   6.476  0.00  0.00    -0.082 C 
ATOM      8  N   UNL     1      -2.900  -1.433   6.175  0.00  0.00    +0.379 N 
ATOM      9  C   UNL     1      -2.639  -0.049   5.764  0.00  0.00    -0.082 C 
ATOM     10  C   UNL     1      -1.829  -0.043   4.465  0.00  0.00    -0.010 C 
ATOM     11  C   UNL     1       1.694   2.059   5.022  0.00  0.00    +0.249 C 
ATOM     12  O   UNL     1       1.406   2.638   6.052  0.00  0.00    -0.270 OA
ATOM     13  H   UNL     1      -3.373  -1.920   5.428  0.00  0.00    -0.086 HD
ATOM     14  H   UNL     1      -3.485  -1.435   6.997  0.00  0.00    -0.086 HD
ENDROOT
BRANCH  11  15
ATOM     15  C   UNL     1       2.504   2.742   3.993  0.00  0.00    +0.073 A 
ATOM     16  C   UNL     1       3.424   2.019   3.230  0.00  0.00    +0.036 A 
ATOM     17  C   UNL     1       4.177   2.663   2.270  0.00  0.00    +0.042 A 
ATOM     18  C   UNL     1       4.023   4.024   2.061  0.00  0.00    +0.023 A 
ATOM     19  C   UNL     1       3.115   4.747   2.811  0.00  0.00    +0.040 A 
ATOM     20  C   UNL     1       2.349   4.114   3.773  0.00  0.00    +0.136 A 
ATOM     21  F   UNL     1       1.458   4.821   4.503  0.00  0.00    -0.205 F 
ATOM     22 CL   UNL     1       5.321   1.766   1.322  0.00  0.00    -0.084 Cl
ENDBRANCH  11  15
BRANCH   1  24
ATOM     23  N   UNL     1      -1.215  -0.860   1.415  0.00  0.00    -0.312 N 
ATOM     24  C   UNL     1      -0.455  -0.147   2.270  0.00  0.00    +0.218 C 
ATOM     25  O   UNL     1      -0.372   1.056   2.148  0.00  0.00    -0.275 OA
ATOM     26  H   UNL     1      -1.282  -1.823   1.513  0.00  0.00    +0.149 HD
BRANCH  23  28
ATOM     27  C   UNL     1      -1.014  -0.001  -0.865  0.00  0.00    +0.028 C 
ATOM     28  C   UNL     1      -1.940  -0.181   0.339  0.00  0.00    +0.074 C 
BRANCH  28  29
ATOM     29  C   UNL     1      -3.151  -1.022  -0.070  0.00  0.00    +0.057 C 
BRANCH  29  30
ATOM     30  C   UNL     1      -4.122  -1.097   1.079  0.00  0.00    -0.045 A 
ATOM     31  C   UNL     1      -4.015  -2.114   2.010  0.00  0.00    +0.006 A 
ATOM     32  C   UNL     1      -4.905  -2.183   3.065  0.00  0.00    +0.038 A 
ATOM     33  C   UNL     1      -5.905  -1.234   3.189  0.00  0.00    +0.123 A 
ATOM     34  C   UNL     1      -6.012  -0.216   2.257  0.00  0.00    +0.038 A 
ATOM     35  C   UNL     1      -5.117  -0.145   1.206  0.00  0.00    +0.006 A 
ATOM     36  F   UNL     1      -6.776  -1.301   4.220  0.00  0.00    -0.205 F 
ENDBRANCH  29  30
ENDBRANCH  28  29
ENDBRANCH  23  28
ENDBRANCH   1  24
TORSDOF 5
