REMARK  Name = ZINC02660462
REMARK  8 active torsions:
REMARK  status: ('A' for Active; 'I' for Inactive)
REMARK    1  A    between atoms: C_4  and  C_7
REMARK    2  A    between atoms: C_7  and  N_8
REMARK    3  A    between atoms: C_9  and  C_29
REMARK    4  A    between atoms: C_12  and  S_13
REMARK    5  A    between atoms: S_13  and  C_14
REMARK    6  A    between atoms: C_14  and  C_15
REMARK    7  A    between atoms: C_15  and  C_17
REMARK    8  A    between atoms: C_17  and  C_27
REMARK                            x       y       z     vdW  Elec       q    Type
REMARK                         _______ _______ _______ _____ _____    ______ ____
ROOT
ATOM      1  S   UNL     1       3.530   8.001  -0.393  0.00  0.00    -0.078 S 
ENDROOT
BRANCH   1   6
ATOM      2  N   UNL     1       2.193   5.545  -0.270  0.00  0.00    -0.297 N 
ATOM      3  C   UNL     1       0.914   5.126   0.021  0.00  0.00    +0.172 A 
ATOM      4  N   UNL     1       0.212   6.201   0.307  0.00  0.00    -0.128 NA
ATOM      5  N   UNL     1       0.953   7.246   0.212  0.00  0.00    -0.122 NA
ATOM      6  C   UNL     1       2.172   6.907  -0.141  0.00  0.00    +0.193 A 
BRANCH   3   7
ATOM      7  C   UNL     1       0.426   3.737   0.017  0.00  0.00    +0.056 A 
ATOM      8  C   UNL     1      -0.866   3.275   0.027  0.00  0.00    +0.019 A 
ATOM      9  C   UNL     1      -1.081   1.915   0.017  0.00  0.00    +0.008 A 
ATOM     10  C   UNL     1      -0.013   1.076   0.008  0.00  0.00    +0.046 A 
ATOM     11  S   UNL     1       1.361   2.216   0.001  0.00  0.00    -0.094 S 
ENDBRANCH   3   7
BRANCH   2  12
ATOM     12  C   UNL     1       3.336   4.709  -0.643  0.00  0.00    +0.161 C 
BRANCH  12  16
ATOM     13  C   UNL     1       3.447   4.257  -4.889  0.00  0.00    +0.000 A 
ATOM     14  C   UNL     1       4.116   5.307  -4.288  0.00  0.00    +0.000 A 
ATOM     15  C   UNL     1       4.080   5.453  -2.914  0.00  0.00    +0.005 A 
ATOM     16  C   UNL     1       3.375   4.549  -2.141  0.00  0.00    -0.028 A 
ATOM     17  C   UNL     1       2.711   3.497  -2.741  0.00  0.00    +0.005 A 
ATOM     18  C   UNL     1       2.742   3.353  -4.116  0.00  0.00    +0.000 A 
ENDBRANCH  12  16
ENDBRANCH   2  12
ENDBRANCH   1   6
BRANCH   1  19
ATOM     19  C   UNL     1       2.730   9.584  -0.032  0.00  0.00    +0.157 C 
BRANCH  19  20
ATOM     20  C   UNL     1       3.730  10.700  -0.189  0.00  0.00    +0.187 C 
ATOM     21  O   UNL     1       4.875  10.449  -0.513  0.00  0.00    -0.290 OA
BRANCH  20  22
ATOM     22  C   UNL     1       3.340  12.030   0.041  0.00  0.00    +0.131 C 
ATOM     23  C   UNL     1       4.274  13.072  -0.105  0.00  0.00    +0.114 C 
ATOM     24  N   UNL     1       5.577  12.916  -0.456  0.00  0.00    -0.300 N 
ATOM     25  C   UNL     1       6.170  14.173  -0.496  0.00  0.00    +0.054 A 
ATOM     26  C   UNL     1       7.456  14.605  -0.792  0.00  0.00    +0.025 A 
ATOM     27  C   UNL     1       7.757  15.951  -0.742  0.00  0.00    +0.002 A 
ATOM     28  C   UNL     1       6.782  16.873  -0.399  0.00  0.00    +0.002 A 
ATOM     29  C   UNL     1       5.501  16.454  -0.103  0.00  0.00    +0.025 A 
ATOM     30  C   UNL     1       5.187  15.103  -0.151  0.00  0.00    +0.054 A 
ATOM     31  N   UNL     1       4.017  14.391   0.088  0.00  0.00    -0.300 N 
ATOM     32  H   UNL     1       6.018  12.073  -0.647  0.00  0.00    +0.153 HD
ATOM     33  H   UNL     1       3.163  14.771   0.347  0.00  0.00    +0.153 HD
BRANCH  22  34
ATOM     34  C   UNL     1       1.992  12.325   0.422  0.00  0.00    +0.106 C 
ATOM     35  N   UNL     1       0.922  12.559   0.725  0.00  0.00    -0.191 NA
ENDBRANCH  22  34
ENDBRANCH  20  22
ENDBRANCH  19  20
ENDBRANCH   1  19
TORSDOF 8
