REMARK  Name = ZINC39466461
REMARK  6 active torsions:
REMARK  status: ('A' for Active; 'I' for Inactive)
REMARK    1  A    between atoms: C_4  and  C_7
REMARK    2  A    between atoms: C_7  and  C_8
REMARK    3  A    between atoms: P_17  and  C_33
REMARK    4  A    between atoms: C_25  and  C_26
REMARK    5  A    between atoms: C_26  and  C_27
REMARK    6  A    between atoms: C_33  and  C_34
REMARK                            x       y       z     vdW  Elec       q    Type
REMARK                         _______ _______ _______ _____ _____    ______ ____
ROOT
ATOM      1  C   UNL     1       4.164  -0.959   1.377  0.00  0.00    -0.043 C 
ATOM      2  C   UNL     1       3.894  -2.120   1.972  0.00  0.00    -0.019 C 
ATOM      3  C   UNL     1       4.345  -2.346   3.389  0.00  0.00    +0.022 C 
ATOM      4  C   UNL     1       3.502  -3.423   4.058  0.00  0.00    +0.030 C 
ATOM      5  C   UNL     1       2.043  -2.971   4.189  0.00  0.00    +0.100 C 
ATOM      6  C   UNL     1       1.289  -4.091   4.918  0.00  0.00    +0.189 C 
ATOM      7  O   UNL     1      -0.098  -3.736   5.051  0.00  0.00    -0.314 OA
ATOM      8  P   UNL     1      -0.450  -2.274   5.674  0.00  0.00    +0.289 P 
ATOM      9  O   UNL     1      -0.337  -2.305   7.149  0.00  0.00    -0.271 OA
ATOM     10  N   UNL     1       0.675  -1.250   5.034  0.00  0.00    -0.179 NA
ATOM     11  N   UNL     1       1.972  -1.708   4.931  0.00  0.00    -0.230 NA
ATOM     12  C   UNL     1       2.756  -0.649   4.274  0.00  0.00    +0.111 C 
ATOM     13  C   UNL     1       4.209  -1.044   4.184  0.00  0.00    +0.034 C 
ATOM     14  C   UNL     1       4.938   0.052   3.443  0.00  0.00    -0.018 C 
ATOM     15  C   UNL     1       4.916   0.073   2.112  0.00  0.00    -0.043 C 
ATOM     16  H   UNL     1       0.432  -0.357   4.743  0.00  0.00    +0.151 HD
ENDROOT
BRANCH   1  17
ATOM     17  C   UNL     1       3.711  -0.707  -0.038  0.00  0.00    +0.070 C 
BRANCH  17  21
ATOM     18  C   UNL     1      -0.017   1.378   0.010  0.00  0.00    +0.000 A 
ATOM     19  C   UNL     1       1.171   2.086   0.002  0.00  0.00    +0.000 A 
ATOM     20  C   UNL     1       2.377   1.411  -0.013  0.00  0.00    +0.004 A 
ATOM     21  C   UNL     1       2.396   0.029  -0.020  0.00  0.00    -0.043 A 
ATOM     22  C   UNL     1       1.208  -0.679  -0.012  0.00  0.00    +0.004 A 
ATOM     23  C   UNL     1       0.002  -0.004   0.002  0.00  0.00    +0.000 A 
ENDBRANCH  17  21
ENDBRANCH   1  17
BRANCH  15  24
ATOM     24  C   UNL     1       5.651   1.152   1.358  0.00  0.00    +0.070 C 
BRANCH  24  25
ATOM     25  C   UNL     1       7.015   0.647   0.962  0.00  0.00    -0.043 A 
ATOM     26  C   UNL     1       8.090   0.823   1.813  0.00  0.00    +0.004 A 
ATOM     27  C   UNL     1       9.341   0.360   1.450  0.00  0.00    +0.000 A 
ATOM     28  C   UNL     1       9.517  -0.279   0.236  0.00  0.00    +0.000 A 
ATOM     29  C   UNL     1       8.441  -0.455  -0.614  0.00  0.00    +0.000 A 
ATOM     30  C   UNL     1       7.189   0.004  -0.249  0.00  0.00    +0.004 A 
ENDBRANCH  24  25
ENDBRANCH  15  24
BRANCH   8  31
ATOM     31  C   UNL     1      -2.129  -1.764   5.180  0.00  0.00    +0.150 C 
BRANCH  31  32
ATOM     32  C   UNL     1      -3.130  -2.770   5.689  0.00  0.00    -0.037 A 
ATOM     33  C   UNL     1      -3.474  -3.857   4.908  0.00  0.00    +0.004 A 
ATOM     34  C   UNL     1      -4.392  -4.780   5.374  0.00  0.00    +0.000 A 
ATOM     35  C   UNL     1      -4.965  -4.615   6.622  0.00  0.00    +0.000 A 
ATOM     36  C   UNL     1      -4.619  -3.529   7.403  0.00  0.00    +0.000 A 
ATOM     37  C   UNL     1      -3.698  -2.608   6.938  0.00  0.00    +0.004 A 
ENDBRANCH  31  32
ENDBRANCH   8  31
TORSDOF 6
