REMARK  Name = ZINC15672602
REMARK  8 active torsions:
REMARK  status: ('A' for Active; 'I' for Inactive)
REMARK    1  A    between atoms: C_1  and  C_2
REMARK    2  A    between atoms: C_5  and  S_8
REMARK    3  A    between atoms: S_8  and  N_11
REMARK    4  A    between atoms: N_11  and  C_12
REMARK    5  A    between atoms: C_12  and  C_13
REMARK    6  A    between atoms: C_21  and  C_23
REMARK    7  A    between atoms: C_25  and  C_30
REMARK    8  A    between atoms: C_27  and  C_29
REMARK                            x       y       z     vdW  Elec       q    Type
REMARK                         _______ _______ _______ _____ _____    ______ ____
ROOT
ATOM      1  C   UNL     1      -0.767   2.213   1.208  0.00  0.00    -0.053 C 
ATOM      2  C   UNL     1      -0.597   3.700   0.886  0.00  0.00    -0.010 C 
ATOM      3  C   UNL     1      -1.977   4.370   0.901  0.00  0.00    -0.007 C 
ATOM      4  C   UNL     1      -2.600   4.175   2.289  0.00  0.00    -0.015 C 
ATOM      5  C   UNL     1      -2.715   2.674   2.572  0.00  0.00    -0.078 C 
ATOM      6  C   UNL     1      -2.976   2.192   0.213  0.00  0.00    -0.068 C 
ATOM      7  C   UNL     1      -2.869   3.679  -0.138  0.00  0.00    +0.024 C 
ATOM      8  N   UNL     1      -2.193   1.892   1.431  0.00  0.00    +0.383 N 
ATOM      9  H   UNL     1      -2.280   0.891   1.645  0.00  0.00    -0.081 HD
ENDROOT
BRANCH   7  10
ATOM     10  C   UNL     1      -2.259   3.832  -1.508  0.00  0.00    +0.047 A 
ATOM     11  C   UNL     1      -2.552   2.924  -2.508  0.00  0.00    +0.055 A 
ATOM     12  C   UNL     1      -1.961   3.108  -3.764  0.00  0.00    +0.110 A 
ATOM     13  N   UNL     1      -1.143   4.147  -3.945  0.00  0.00    -0.229 NA
ATOM     14  C   UNL     1      -0.895   4.985  -2.960  0.00  0.00    +0.127 A 
ATOM     15  N   UNL     1      -1.441   4.840  -1.768  0.00  0.00    -0.237 NA
ATOM     16  C   UNL     1       0.035   6.146  -3.204  0.00  0.00    +0.088 C 
BRANCH  12  17
ATOM     17  C   UNL     1      -2.238   2.171  -4.869  0.00  0.00    +0.153 A 
ATOM     18  C   UNL     1      -1.652   2.188  -6.098  0.00  0.00    +0.051 A 
ATOM     19  C   UNL     1      -2.211   1.122  -6.828  0.00  0.00    +0.042 A 
ATOM     20  C   UNL     1      -3.102   0.513  -6.019  0.00  0.00    +0.196 A 
ATOM     21  O   UNL     1      -3.111   1.145  -4.835  0.00  0.00    -0.461 OA
ENDBRANCH  12  17
ENDBRANCH   7  10
BRANCH   1  22
ATOM     22  C   UNL     1      -0.246   1.374   0.039  0.00  0.00    +0.090 C 
BRANCH  22  23
ATOM     23  N   UNL     1      -0.505  -0.043   0.301  0.00  0.00    -0.191 NA
ATOM     24  H   UNL     1      -0.725  -0.339   1.199  0.00  0.00    +0.148 HD
BRANCH  23  25
ATOM     25  S   UNL     1      -0.423  -1.143  -0.935  0.00  0.00    +0.058 S 
ATOM     26  O   UNL     1      -0.667  -2.419  -0.360  0.00  0.00    -0.153 OA
ATOM     27  O   UNL     1      -1.213  -0.621  -1.994  0.00  0.00    -0.153 OA
BRANCH  25  32
ATOM     28  C   UNL     1       5.281  -1.195  -2.900  0.00  0.00    +0.044 C 
ATOM     29  C   UNL     1       3.856  -1.183  -2.409  0.00  0.00    -0.050 A 
ATOM     30  C   UNL     1       3.490  -1.962  -1.328  0.00  0.00    +0.005 A 
ATOM     31  C   UNL     1       2.184  -1.950  -0.878  0.00  0.00    +0.029 A 
ATOM     32  C   UNL     1       1.242  -1.158  -1.509  0.00  0.00    +0.105 A 
ATOM     33  C   UNL     1       1.607  -0.382  -2.593  0.00  0.00    +0.029 A 
ATOM     34  C   UNL     1       2.915  -0.391  -3.041  0.00  0.00    +0.005 A 
ENDBRANCH  25  32
ENDBRANCH  23  25
ENDBRANCH  22  23
ENDBRANCH   1  22
TORSDOF 6
