REMARK  Name = ZINC39154629
REMARK  6 active torsions:
REMARK  status: ('A' for Active; 'I' for Inactive)
REMARK    1  A    between atoms: C_1  and  C_2
REMARK    2  A    between atoms: C_2  and  O_3
REMARK    3  A    between atoms: O_3  and  C_4
REMARK    4  A    between atoms: C_7  and  C_10
REMARK    5  A    between atoms: C_26  and  C_28
REMARK    6  A    between atoms: C_26  and  C_29
REMARK                            x       y       z     vdW  Elec       q    Type
REMARK                         _______ _______ _______ _____ _____    ______ ____
ROOT
ATOM      1  C   UNL     1       1.109  -6.040  -1.847  0.00  0.00    +0.222 C 
ATOM      2  N   UNL     1       1.235  -6.705  -0.544  0.00  0.00    -0.242 NA
ATOM      3  C   UNL     1       2.385  -7.325  -0.520  0.00  0.00    +0.150 C 
ATOM      4  C   UNL     1       2.989  -8.144   0.568  0.00  0.00    +0.048 A 
ATOM      5  C   UNL     1       2.437  -8.452   1.884  0.00  0.00    -0.020 A 
ATOM      6  C   UNL     1       3.190  -9.225   2.700  0.00  0.00    +0.021 A 
ATOM      7  S   UNL     1       4.652  -9.576   1.767  0.00  0.00    -0.075 S 
ATOM      8  C   UNL     1       4.242  -8.682   0.290  0.00  0.00    +0.084 A 
ATOM      9  N   UNL     1       4.870  -8.467  -0.908  0.00  0.00    -0.262 N 
ATOM     10  C   UNL     1       4.296  -7.721  -1.868  0.00  0.00    +0.326 C 
ATOM     11  O   UNL     1       4.885  -7.551  -2.918  0.00  0.00    -0.251 OA
ATOM     12  N   UNL     1       3.082  -7.157  -1.695  0.00  0.00    -0.168 N 
ATOM     13  N   UNL     1       2.355  -6.375  -2.561  0.00  0.00    -0.203 NA
ATOM     14  C   UNL     1       2.831  -9.664   4.085  0.00  0.00    +0.203 C 
ATOM     15  O   UNL     1       1.712  -8.876   4.521  0.00  0.00    -0.368 OA
ATOM     16  C   UNL     1       0.654  -8.809   3.562  0.00  0.00    +0.068 C 
ATOM     17  C   UNL     1       1.078  -7.952   2.366  0.00  0.00    +0.071 C 
ATOM     18  C   UNL     1       0.317 -10.221   3.079  0.00  0.00    +0.041 C 
ATOM     19  C   UNL     1      -0.584  -8.190   4.215  0.00  0.00    +0.041 C 
ATOM     20  H   UNL     1       2.158  -6.869  -3.419  0.00  0.00    +0.148 HD
ATOM     21  H   UNL     1       5.743  -8.859  -1.066  0.00  0.00    +0.157 HD
ENDROOT
BRANCH   1  25
ATOM     22  C   UNL     1       0.777  -1.810  -1.336  0.00  0.00    +0.121 A 
ATOM     23  C   UNL     1       0.243  -2.669  -0.386  0.00  0.00    +0.046 A 
ATOM     24  C   UNL     1       0.351  -4.036  -0.554  0.00  0.00    +0.010 A 
ATOM     25  C   UNL     1       0.992  -4.548  -1.667  0.00  0.00    -0.007 A 
ATOM     26  C   UNL     1       1.525  -3.694  -2.615  0.00  0.00    +0.010 A 
ATOM     27  C   UNL     1       1.414  -2.327  -2.455  0.00  0.00    +0.046 A 
BRANCH  22  28
ATOM     28  O   UNL     1       0.671  -0.465  -1.174  0.00  0.00    -0.492 OA
BRANCH  28  30
ATOM     29  C   UNL     1      -0.019   1.526   0.010  0.00  0.00    +0.048 C 
ATOM     30  C   UNL     1       0.002  -0.004   0.002  0.00  0.00    +0.225 C 
ENDBRANCH  28  30
ENDBRANCH  22  28
ENDBRANCH   1  25
TORSDOF 3
