REMARK  Name = ZINC64074502
REMARK  7 active torsions:
REMARK  status: ('A' for Active; 'I' for Inactive)
REMARK    1  A    between atoms: C_1  and  C_2
REMARK    2  A    between atoms: C_4  and  C_16
REMARK    3  A    between atoms: N_7  and  C_8
REMARK    4  A    between atoms: C_16  and  C_18
REMARK    5  A    between atoms: C_16  and  N_19
REMARK    6  A    between atoms: N_19  and  C_20
REMARK    7  A    between atoms: C_20  and  C_21
REMARK                            x       y       z     vdW  Elec       q    Type
REMARK                         _______ _______ _______ _____ _____    ______ ____
ROOT
ATOM      1  C   UNL     1      -2.352  -0.506  -1.013  0.00  0.00    +0.080 C 
ATOM      2  C   UNL     1      -2.677   0.973  -1.234  0.00  0.00    +0.029 C 
ENDROOT
BRANCH   1   5
ATOM      3  C   UNL     1      -2.617  -1.062   2.165  0.00  0.00    +0.035 C 
ATOM      4  C   UNL     1      -1.491  -0.247   1.526  0.00  0.00    +0.120 C 
ATOM      5  C   UNL     1      -1.317  -0.636   0.074  0.00  0.00    -0.016 C 
ATOM      6  C   UNL     1      -0.097  -1.109  -0.066  0.00  0.00    +0.090 C 
ATOM      7  N   UNL     1       0.601  -1.095   1.127  0.00  0.00    -0.271 N 
ATOM      8  N   UNL     1      -0.200  -0.572   2.155  0.00  0.00    -0.244 N 
ATOM      9  H   UNL     1       1.515  -1.401   1.238  0.00  0.00    +0.169 HD
BRANCH   8  10
ATOM     10  C   UNL     1       0.153  -0.396   3.499  0.00  0.00    +0.083 A 
ATOM     11  C   UNL     1      -0.622  -0.963   4.501  0.00  0.00    +0.030 A 
ATOM     12  C   UNL     1      -0.272  -0.789   5.826  0.00  0.00    +0.040 A 
ATOM     13  C   UNL     1       0.851  -0.050   6.156  0.00  0.00    +0.126 A 
ATOM     14  C   UNL     1       1.627   0.517   5.159  0.00  0.00    +0.078 A 
ATOM     15  C   UNL     1       1.284   0.341   3.831  0.00  0.00    +0.149 A 
ATOM     16  F   UNL     1       2.043   0.890   2.857  0.00  0.00    -0.203 F 
ATOM     17  F   UNL     1       1.191   0.118   7.452  0.00  0.00    -0.205 F 
ENDBRANCH   8  10
ENDBRANCH   1   5
BRANCH   1  18
ATOM     18  N   UNL     1      -1.829  -1.084  -2.258  0.00  0.00    -0.306 NA
ATOM     19  H   UNL     1      -1.223  -0.432  -2.733  0.00  0.00    +0.123 HD
BRANCH  18  20
ATOM     20  C   UNL     1      -2.924  -1.520  -3.136  0.00  0.00    +0.128 C 
BRANCH  20  21
ATOM     21  C   UNL     1      -2.341  -2.115  -4.420  0.00  0.00    +0.188 C 
ATOM     22  N   UNL     1      -1.449  -3.236  -4.097  0.00  0.00    -0.362 N 
ATOM     23  C   UNL     1      -0.264  -2.932  -4.538  0.00  0.00    +0.060 A 
ATOM     24  C   UNL     1       1.024  -3.642  -4.512  0.00  0.00    +0.030 A 
ATOM     25  C   UNL     1       2.111  -3.067  -5.061  0.00  0.00    +0.040 A 
ATOM     26  C   UNL     1       2.073  -1.796  -5.669  0.00  0.00    +0.125 A 
ATOM     27  C   UNL     1       0.941  -1.061  -5.745  0.00  0.00    +0.065 A 
ATOM     28  C   UNL     1      -0.305  -1.589  -5.180  0.00  0.00    +0.063 A 
ATOM     29  N   UNL     1      -1.518  -1.115  -5.111  0.00  0.00    -0.362 N 
ATOM     30  F   UNL     1       3.211  -1.292  -6.194  0.00  0.00    -0.205 F 
ATOM     31  H   UNL     1      -1.699  -4.053  -3.638  0.00  0.00    +0.162 HD
ATOM     32  H   UNL     1      -1.820  -0.259  -5.452  0.00  0.00    +0.162 HD
ENDBRANCH  20  21
ENDBRANCH  18  20
ENDBRANCH   1  18
TORSDOF 5
