REMARK  Name = ZINC45590969
REMARK  6 active torsions:
REMARK  status: ('A' for Active; 'I' for Inactive)
REMARK    1  A    between atoms: C_4  and  C_7
REMARK    2  A    between atoms: C_9  and  C_12
REMARK    3  A    between atoms: C_12  and  C_13
REMARK    4  A    between atoms: C_13  and  C_14
REMARK    5  A    between atoms: N_16  and  N_17
REMARK    6  A    between atoms: C_18  and  C_20
REMARK                            x       y       z     vdW  Elec       q    Type
REMARK                         _______ _______ _______ _____ _____    ______ ____
ROOT
ATOM      1  C   UNL     1       6.446  -5.575  -1.547  0.00  0.00    +0.230 C 
ATOM      2  O   UNL     1       6.684  -6.145  -0.504  0.00  0.00    -0.274 OA
ATOM      3  N   UNL     1       6.692  -6.188  -2.722  0.00  0.00    -0.234 N 
ATOM      4  H   UNL     1       6.501  -5.732  -3.557  0.00  0.00    +0.173 HD
ENDROOT
BRANCH   3   5
ATOM      5  N   UNL     1       7.224  -7.484  -2.738  0.00  0.00    -0.230 N 
ATOM      6  C   UNL     1       7.470  -8.097  -3.913  0.00  0.00    +0.267 C 
ATOM      7  O   UNL     1       7.230  -7.524  -4.960  0.00  0.00    -0.268 OA
ATOM      8  H   UNL     1       7.415  -7.940  -1.904  0.00  0.00    +0.173 HD
BRANCH   6   9
ATOM      9  C   UNL     1       8.026  -9.453  -3.930  0.00  0.00    +0.076 A 
ATOM     10  C   UNL     1       8.354 -10.247  -5.007  0.00  0.00    +0.024 A 
ATOM     11  C   UNL     1       8.848 -11.525  -4.727  0.00  0.00    -0.036 A 
ATOM     12  C   UNL     1       8.922 -11.879  -3.430  0.00  0.00    -0.006 A 
ATOM     13  S   UNL     1       8.466 -10.507  -2.564  0.00  0.00    -0.088 S 
ATOM     14  C   UNL     1       9.239 -13.187  -2.747  0.00  0.00    +0.043 C 
ATOM     15  C   UNL     1       9.508 -14.312  -3.746  0.00  0.00    +0.005 C 
ATOM     16  C   UNL     1      10.922 -14.223  -4.297  0.00  0.00    +0.000 C 
ATOM     17  C   UNL     1      11.373 -12.796  -4.533  0.00  0.00    +0.000 C 
ATOM     18  C   UNL     1      10.847 -12.385  -5.912  0.00  0.00    +0.005 C 
ATOM     19  C   UNL     1       9.318 -12.397  -5.882  0.00  0.00    +0.036 C 
ENDBRANCH   6   9
ENDBRANCH   3   5
BRANCH   1  20
ATOM     20  C   UNL     1       5.873  -4.181  -1.530  0.00  0.00    +0.107 C 
BRANCH  20  21
ATOM     21  C   UNL     1       5.692  -3.722  -0.082  0.00  0.00    +0.108 C 
BRANCH  21  24
ATOM     22  C   UNL     1       3.699  -0.689  -0.037  0.00  0.00    +0.202 A 
ATOM     23  N   UNL     1       3.853  -2.025  -0.051  0.00  0.00    -0.191 NA
ATOM     24  C   UNL     1       5.120  -2.328  -0.065  0.00  0.00    +0.228 A 
ATOM     25  O   UNL     1       5.828  -1.191  -0.059  0.00  0.00    -0.338 OA
ATOM     26  N   UNL     1       4.884  -0.131  -0.046  0.00  0.00    -0.056 NA
BRANCH  22  30
ATOM     27  C   UNL     1      -0.017   1.379   0.010  0.00  0.00    +0.000 A 
ATOM     28  C   UNL     1       1.169   2.092   0.002  0.00  0.00    +0.001 A 
ATOM     29  C   UNL     1       2.377   1.426  -0.013  0.00  0.00    +0.012 A 
ATOM     30  C   UNL     1       2.402   0.033  -0.021  0.00  0.00    +0.022 A 
ATOM     31  C   UNL     1       1.205  -0.680  -0.013  0.00  0.00    +0.012 A 
ATOM     32  C   UNL     1       0.002  -0.004   0.002  0.00  0.00    +0.001 A 
ENDBRANCH  22  30
ENDBRANCH  21  24
ENDBRANCH  20  21
ENDBRANCH   1  20
TORSDOF 6
