REMARK  Name = ZINC22798517
REMARK  7 active torsions:
REMARK  status: ('A' for Active; 'I' for Inactive)
REMARK    1  A    between atoms: C_1  and  C_2
REMARK    2  A    between atoms: C_2  and  N_3
REMARK    3  A    between atoms: N_6  and  C_9
REMARK    4  A    between atoms: C_9  and  C_11
REMARK    5  A    between atoms: C_9  and  C_18
REMARK    6  A    between atoms: C_19  and  O_31
REMARK    7  A    between atoms: C_24  and  C_26
REMARK                            x       y       z     vdW  Elec       q    Type
REMARK                         _______ _______ _______ _____ _____    ______ ____
ROOT
ATOM      1  C   UNL     1       1.530  -2.584   4.772  0.00  0.00    +0.132 C 
ENDROOT
BRANCH   1   2
ATOM      2  C   UNL     1       2.999  -2.258   4.865  0.00  0.00    +0.076 A 
ATOM      3  C   UNL     1       3.683  -1.732   5.887  0.00  0.00    +0.228 A 
ATOM      4  N   UNL     1       5.034  -1.504   5.783  0.00  0.00    -0.173 N 
ATOM      5  C   UNL     1       5.633  -1.838   4.600  0.00  0.00    +0.200 A 
ATOM      6  S   UNL     1       4.282  -2.479   3.641  0.00  0.00    -0.047 S 
ATOM      7  N   UNL     1       6.907  -1.564   4.658  0.00  0.00    -0.197 NA
ATOM      8  C   UNL     1       7.194  -1.048   5.861  0.00  0.00    +0.218 A 
ATOM      9  N   UNL     1       6.092  -0.991   6.578  0.00  0.00    -0.138 NA
BRANCH   8  10
ATOM     10  C   UNL     1       8.532  -0.612   6.310  0.00  0.00    +0.173 A 
ATOM     11  C   UNL     1       9.675  -0.661   5.575  0.00  0.00    +0.053 A 
ATOM     12  C   UNL     1      10.704  -0.148   6.391  0.00  0.00    +0.042 A 
ATOM     13  C   UNL     1      10.144   0.184   7.570  0.00  0.00    +0.196 A 
ATOM     14  O   UNL     1       8.831  -0.092   7.516  0.00  0.00    -0.460 OA
ENDBRANCH   8  10
BRANCH   3  15
ATOM     15  O   UNL     1       3.035  -1.418   7.041  0.00  0.00    -0.492 OA
ATOM     16  H   UNL     1       3.607  -1.044   7.725  0.00  0.00    +0.294 HD
ENDBRANCH   3  15
ENDBRANCH   1   2
BRANCH   1  20
ATOM     17  N   UNL     1      -0.759   0.082   2.423  0.00  0.00    +0.381 N 
ATOM     18  C   UNL     1      -1.083  -1.349   2.356  0.00  0.00    -0.063 C 
ATOM     19  C   UNL     1      -0.516  -2.058   3.588  0.00  0.00    +0.067 C 
ATOM     20  N   UNL     1       0.941  -1.869   3.632  0.00  0.00    -0.294 NA
ATOM     21  C   UNL     1       1.281  -0.440   3.674  0.00  0.00    +0.067 C 
ATOM     22  C   UNL     1       0.700   0.255   2.441  0.00  0.00    -0.063 C 
ATOM     23  H   UNL     1      -1.155   0.477   3.262  0.00  0.00    -0.082 HD
BRANCH  17  25
ATOM     24  C   UNL     1      -2.846   0.691   1.296  0.00  0.00    -0.017 C 
ATOM     25  C   UNL     1      -1.319   0.765   1.249  0.00  0.00    -0.082 C 
ENDBRANCH  17  25
ENDBRANCH   1  20
BRANCH   1  26
ATOM     26  C   UNL     1       1.357  -4.069   4.578  0.00  0.00    +0.010 A 
ATOM     27  C   UNL     1       1.250  -4.592   3.303  0.00  0.00    +0.008 A 
ATOM     28  C   UNL     1       1.091  -5.953   3.125  0.00  0.00    +0.000 A 
ATOM     29  C   UNL     1       1.039  -6.793   4.222  0.00  0.00    +0.003 A 
ATOM     30  C   UNL     1       1.147  -6.273   5.497  0.00  0.00    +0.039 A 
ATOM     31  C   UNL     1       1.311  -4.910   5.677  0.00  0.00    +0.128 A 
ATOM     32  F   UNL     1       1.421  -4.400   6.923  0.00  0.00    -0.205 F 
ENDBRANCH   1  26
TORSDOF 6
