REMARK  Name = ZINC12455855
REMARK  8 active torsions:
REMARK  status: ('A' for Active; 'I' for Inactive)
REMARK    1  A    between atoms: C_5  and  N_7
REMARK    2  A    between atoms: C_12  and  C_13
REMARK    3  A    between atoms: C_12  and  N_71
REMARK    4  A    between atoms: C_17  and  O_19
REMARK    5  A    between atoms: O_19  and  C_20
REMARK    6  A    between atoms: C_20  and  C_21
REMARK    7  A    between atoms: C_28  and  C_30
REMARK    8  A    between atoms: C_31  and  C_32
REMARK                            x       y       z     vdW  Elec       q    Type
REMARK                         _______ _______ _______ _____ _____    ______ ____
ROOT
ATOM      1  C   UNL     1       1.173   1.776  -0.035  0.00  0.00    -0.060 A 
ATOM      2  C   UNL     1      -0.016   1.070  -0.027  0.00  0.00    +0.002 A 
ATOM      3  C   UNL     1      -1.222   1.745  -0.011  0.00  0.00    +0.004 A 
ATOM      4  C   UNL     1      -1.243   3.126   0.008  0.00  0.00    +0.045 A 
ATOM      5  C   UNL     1      -0.051   3.836   0.001  0.00  0.00    +0.121 A 
ATOM      6  C   UNL     1       1.159   3.157  -0.021  0.00  0.00    +0.047 A 
ENDROOT
BRANCH   1   7
ATOM      7  C   UNL     1       2.487   1.037  -0.058  0.00  0.00    -0.043 C 
BRANCH   7  13
ATOM      8  N   UNL     1       3.765  -0.757  -3.662  0.00  0.00    -0.331 N 
ATOM      9  C   UNL     1       4.691   0.161  -2.984  0.00  0.00    +0.086 C 
ATOM     10  C   UNL     1       4.276   0.308  -1.518  0.00  0.00    -0.059 C 
ATOM     11  C   UNL     1       1.971  -0.107  -2.129  0.00  0.00    -0.059 C 
ATOM     12  C   UNL     1       2.386  -0.255  -3.594  0.00  0.00    +0.086 C 
ATOM     13  N   UNL     1       2.896   0.835  -1.464  0.00  0.00    +0.384 N 
ATOM     14  H   UNL     1       2.863   1.736  -1.954  0.00  0.00    -0.081 HD
BRANCH   8  19
ATOM     15  C   UNL     1       4.623  -0.122  -7.181  0.00  0.00    +0.002 A 
ATOM     16  C   UNL     1       4.926  -1.400  -7.612  0.00  0.00    +0.003 A 
ATOM     17  C   UNL     1       4.846  -2.467  -6.736  0.00  0.00    +0.040 A 
ATOM     18  C   UNL     1       4.461  -2.258  -5.424  0.00  0.00    +0.144 A 
ATOM     19  C   UNL     1       4.155  -0.973  -4.988  0.00  0.00    +0.065 A 
ATOM     20  C   UNL     1       4.233   0.094  -5.873  0.00  0.00    +0.026 A 
ATOM     21  F   UNL     1       4.381  -3.300  -4.568  0.00  0.00    -0.204 F 
ENDBRANCH   8  19
ENDBRANCH   7  13
ENDBRANCH   1   7
BRANCH   5  22
ATOM     22  O   UNL     1      -0.068   5.195   0.015  0.00  0.00    -0.492 OA
BRANCH  22  23
ATOM     23  C   UNL     1      -1.350   5.827   0.036  0.00  0.00    +0.234 C 
BRANCH  23  24
ATOM     24  C   UNL     1      -1.168   7.347   0.050  0.00  0.00    +0.044 C 
ATOM     25  C   UNL     1      -2.533   8.023   0.198  0.00  0.00    +0.010 C 
ATOM     26  C   UNL     1      -2.350   9.541   0.245  0.00  0.00    +0.019 C 
ATOM     27  C   UNL     1      -1.716  10.015  -1.067  0.00  0.00    +0.108 C 
ATOM     28  N   UNL     1      -0.473   9.264  -1.290  0.00  0.00    -0.298 N 
ATOM     29  C   UNL     1      -0.521   7.796  -1.264  0.00  0.00    +0.115 C 
ATOM     30  C   UNL     1       0.688   9.910  -1.514  0.00  0.00    +0.239 C 
ATOM     31  O   UNL     1       1.727   9.280  -1.602  0.00  0.00    -0.271 OA
BRANCH  30  32
ATOM     32  C   UNL     1       0.701  11.318  -1.647  0.00  0.00    +0.068 C 
ATOM     33  C   UNL     1       1.852  11.959  -1.972  0.00  0.00    +0.020 C 
BRANCH  33  34
ATOM     34  C   UNL     1       1.864  13.368  -2.104  0.00  0.00    +0.012 A 
ATOM     35  C   UNL     1       2.923  14.208  -2.427  0.00  0.00    +0.015 A 
ATOM     36  C   UNL     1       2.655  15.553  -2.490  0.00  0.00    +0.008 A 
ATOM     37  C   UNL     1       1.393  15.991  -2.239  0.00  0.00    +0.046 A 
ATOM     38  S   UNL     1       0.523  14.528  -1.909  0.00  0.00    -0.097 S 
ENDBRANCH  33  34
ENDBRANCH  30  32
ENDBRANCH  23  24
ENDBRANCH  22  23
ENDBRANCH   5  22
TORSDOF 8
