REMARK  Name = ZINC02193995
REMARK  10 active torsions:
REMARK  status: ('A' for Active; 'I' for Inactive)
REMARK    1  A    between atoms: C_1  and  C_2
REMARK    2  A    between atoms: C_2  and  O_3
REMARK    3  A    between atoms: O_3  and  C_4
REMARK    4  A    between atoms: C_9  and  O_10
REMARK    5  A    between atoms: O_10  and  C_11
REMARK    6  A    between atoms: C_16  and  C_17
REMARK    7  A    between atoms: C_20  and  O_24
REMARK    8  A    between atoms: C_22  and  O_23
REMARK    9  A    between atoms: O_24  and  C_25
REMARK   10  A    between atoms: C_25  and  C_26
REMARK                            x       y       z     vdW  Elec       q    Type
REMARK                         _______ _______ _______ _____ _____    ______ ____
ROOT
ATOM      1  C   UNL     1      -7.263   5.534   1.052  0.00  0.00    +0.173 A 
ATOM      2  C   UNL     1      -8.308   6.386   1.380  0.00  0.00    +0.162 A 
ATOM      3  N   UNL     1      -8.711   6.461   2.639  0.00  0.00    -0.219 NA
ATOM      4  C   UNL     1      -8.136   5.733   3.585  0.00  0.00    +0.213 A 
ATOM      5  N   UNL     1      -7.139   4.904   3.318  0.00  0.00    -0.211 NA
ATOM      6  C   UNL     1      -6.678   4.774   2.075  0.00  0.00    +0.122 A 
ATOM      7  N   UNL     1      -8.590   5.844   4.890  0.00  0.00    -0.327 N 
ATOM      8  H   UNL     1      -8.178   5.318   5.593  0.00  0.00    +0.145 HD
ATOM      9  H   UNL     1      -9.319   6.448   5.100  0.00  0.00    +0.145 HD
ENDROOT
BRANCH   6  10
ATOM     10  C   UNL     1      -5.563   3.846   1.780  0.00  0.00    +0.046 A 
ATOM     11  C   UNL     1      -5.659   2.955   0.711  0.00  0.00    +0.017 A 
ATOM     12  C   UNL     1      -4.617   2.096   0.436  0.00  0.00    +0.046 A 
ATOM     13  C   UNL     1      -3.475   2.106   1.227  0.00  0.00    +0.124 A 
ATOM     14  C   UNL     1      -3.371   2.989   2.292  0.00  0.00    +0.091 A 
ATOM     15  C   UNL     1      -4.410   3.859   2.573  0.00  0.00    +0.130 A 
BRANCH  15  16
ATOM     16  O   UNL     1      -4.310   4.724   3.616  0.00  0.00    -0.506 OA
ATOM     17  H   UNL     1      -3.921   5.578   3.383  0.00  0.00    +0.292 HD
ENDBRANCH  15  16
BRANCH  13  18
ATOM     18  O   UNL     1      -2.454   1.253   0.953  0.00  0.00    -0.487 OA
BRANCH  18  19
ATOM     19  C   UNL     1      -2.626   0.371  -0.158  0.00  0.00    +0.264 C 
BRANCH  19  20
ATOM     20  C   UNL     1      -1.401  -0.493  -0.308  0.00  0.00    -0.010 A 
ATOM     21  C   UNL     1      -0.353  -0.074  -1.106  0.00  0.00    +0.010 A 
ATOM     22  C   UNL     1       0.769  -0.869  -1.249  0.00  0.00    +0.039 A 
ATOM     23  C   UNL     1       0.843  -2.085  -0.591  0.00  0.00    +0.123 A 
ATOM     24  C   UNL     1      -0.207  -2.504   0.208  0.00  0.00    +0.039 A 
ATOM     25  C   UNL     1      -1.328  -1.708   0.349  0.00  0.00    +0.010 A 
ATOM     26  F   UNL     1       1.939  -2.863  -0.730  0.00  0.00    -0.205 F 
ENDBRANCH  19  20
ENDBRANCH  18  19
ENDBRANCH  13  18
ENDBRANCH   6  10
BRANCH   1  27
ATOM     27  O   UNL     1      -6.820   5.435  -0.230  0.00  0.00    -0.449 OA
BRANCH  27  33
ATOM     28  C   UNL     1      -5.319   6.190  -1.921  0.00  0.00    +0.163 A 
ATOM     29  C   UNL     1      -4.255   6.992  -2.299  0.00  0.00    +0.049 A 
ATOM     30  C   UNL     1      -3.650   7.821  -1.373  0.00  0.00    +0.004 A 
ATOM     31  C   UNL     1      -4.103   7.851  -0.067  0.00  0.00    +0.004 A 
ATOM     32  C   UNL     1      -5.168   7.057   0.317  0.00  0.00    +0.050 A 
ATOM     33  C   UNL     1      -5.776   6.220  -0.606  0.00  0.00    +0.170 A 
BRANCH  28  34
ATOM     34  O   UNL     1      -5.916   5.375  -2.831  0.00  0.00    -0.489 OA
BRANCH  34  36
ATOM     35  C   UNL     1      -6.186   4.422  -5.035  0.00  0.00    +0.048 C 
ATOM     36  C   UNL     1      -5.394   5.396  -4.161  0.00  0.00    +0.226 C 
ENDBRANCH  34  36
ENDBRANCH  28  34
ENDBRANCH  27  33
ENDBRANCH   1  27
TORSDOF 9
