REMARK  Name = ZINC19083554
REMARK  12 active torsions:
REMARK  status: ('A' for Active; 'I' for Inactive)
REMARK    1  A    between atoms: C_1  and  C_2
REMARK    2  A    between atoms: C_2  and  C_3
REMARK    3  A    between atoms: C_2  and  C_4
REMARK    4  A    between atoms: C_2  and  C_5
REMARK    5  A    between atoms: C_8  and  C_23
REMARK    6  A    between atoms: N_14  and  C_16
REMARK    7  A    between atoms: C_23  and  N_54
REMARK    8  A    between atoms: C_24  and  C_25
REMARK    9  A    between atoms: C_24  and  N_54
REMARK   10  A    between atoms: C_25  and  C_26
REMARK   11  A    between atoms: C_26  and  O_27
REMARK   12  A    between atoms: O_27  and  C_28
REMARK                            x       y       z     vdW  Elec       q    Type
REMARK                         _______ _______ _______ _____ _____    ______ ____
ROOT
ATOM      1  C   UNL     1      -5.726   1.516   0.080  0.00  0.00    +0.078 A 
ATOM      2  C   UNL     1      -4.489   1.076  -0.447  0.00  0.00    +0.041 A 
ATOM      3  C   UNL     1      -3.191   1.635  -0.473  0.00  0.00    +0.020 A 
ATOM      4  C   UNL     1      -2.186   0.947  -1.076  0.00  0.00    +0.001 A 
ATOM      5  C   UNL     1      -2.442  -0.309  -1.655  0.00  0.00    +0.252 A 
ATOM      6  O   UNL     1      -1.534  -0.922  -2.191  0.00  0.00    -0.268 OA
ATOM      7  N   UNL     1      -3.678  -0.844  -1.625  0.00  0.00    -0.307 N 
ATOM      8  H   UNL     1      -3.836  -1.711  -2.030  0.00  0.00    +0.170 HD
ATOM      9  C   UNL     1      -4.712  -0.173  -1.030  0.00  0.00    +0.145 A 
ATOM     10  N   UNL     1      -6.028  -0.461  -0.855  0.00  0.00    -0.216 N 
ATOM     11  N   UNL     1      -6.623   0.603  -0.166  0.00  0.00    -0.168 NA
ENDROOT
BRANCH  10  12
ATOM     12  C   UNL     1      -6.679  -1.624  -1.290  0.00  0.00    +0.068 A 
ATOM     13  C   UNL     1      -6.307  -2.223  -2.485  0.00  0.00    +0.030 A 
ATOM     14  C   UNL     1      -6.946  -3.372  -2.909  0.00  0.00    +0.040 A 
ATOM     15  C   UNL     1      -7.965  -3.919  -2.148  0.00  0.00    +0.124 A 
ATOM     16  C   UNL     1      -8.342  -3.319  -0.959  0.00  0.00    +0.040 A 
ATOM     17  C   UNL     1      -7.702  -2.174  -0.528  0.00  0.00    +0.030 A 
ATOM     18  F   UNL     1      -8.593  -5.040  -2.568  0.00  0.00    -0.205 F 
ENDBRANCH  10  12
BRANCH   1  20
ATOM     19  C   UNL     1      -5.616   3.985  -0.122  0.00  0.00    +0.017 C 
ATOM     20  C   UNL     1      -5.965   2.816   0.803  0.00  0.00    +0.007 C 
ATOM     21  C   UNL     1      -7.436   2.910   1.210  0.00  0.00    +0.017 C 
ATOM     22  C   UNL     1      -5.085   2.875   2.053  0.00  0.00    +0.017 C 
ENDBRANCH   1  20
BRANCH   4  23
ATOM     23  C   UNL     1      -0.795   1.527  -1.120  0.00  0.00    -0.041 C 
BRANCH  23  24
ATOM     24  N   UNL     1      -0.015   0.998   0.015  0.00  0.00    +0.382 N 
ATOM     25  H   UNL     1       0.032  -0.025  -0.054  0.00  0.00    -0.085 HD
ATOM     26  H   UNL     1      -0.475   1.261   0.894  0.00  0.00    -0.085 HD
BRANCH  24  27
ATOM     27  C   UNL     1       1.353   1.550  -0.003  0.00  0.00    -0.080 C 
BRANCH  27  28
ATOM     28  C   UNL     1       2.136   0.985   1.184  0.00  0.00    +0.009 C 
BRANCH  28  29
ATOM     29  C   UNL     1       3.557   1.552   1.173  0.00  0.00    +0.157 C 
BRANCH  29  30
ATOM     30  O   UNL     1       4.289   1.024   2.281  0.00  0.00    -0.383 OA
ATOM     31  C   UNL     1       5.636   1.494   2.364  0.00  0.00    +0.193 C 
ENDBRANCH  29  30
ENDBRANCH  28  29
ENDBRANCH  27  28
ENDBRANCH  24  27
ENDBRANCH  23  24
ENDBRANCH   4  23
TORSDOF 8
