REMARK  Name = ZINC20504082
REMARK  8 active torsions:
REMARK  status: ('A' for Active; 'I' for Inactive)
REMARK    1  A    between atoms: C_1  and  C_2
REMARK    2  A    between atoms: C_5  and  C_8
REMARK    3  A    between atoms: C_11  and  N_34
REMARK    4  A    between atoms: C_17  and  C_30
REMARK    5  A    between atoms: C_30  and  O_32
REMARK    6  A    between atoms: O_32  and  C_33
REMARK    7  A    between atoms: N_34  and  C_35
REMARK    8  A    between atoms: C_35  and  C_36
REMARK                            x       y       z     vdW  Elec       q    Type
REMARK                         _______ _______ _______ _____ _____    ______ ____
ROOT
ATOM      1  C   UNL     1      -1.185   2.979  -0.122  0.00  0.00    -0.034 C 
ATOM      2  C   UNL     1      -0.288   2.297   0.916  0.00  0.00    +0.008 C 
ATOM      3  C   UNL     1      -0.131   0.816   0.563  0.00  0.00    +0.052 C 
ATOM      4  C   UNL     1       0.436   0.689  -0.855  0.00  0.00    +0.009 C 
ATOM      5  C   UNL     1      -0.493   1.412  -1.832  0.00  0.00    -0.017 C 
ATOM      6  N   UNL     1      -0.586   2.829  -1.453  0.00  0.00    +0.399 N 
ATOM      7  C   UNL     1      -1.301   3.616  -2.464  0.00  0.00    +0.049 C 
ATOM      8  C   UNL     1      -0.430   3.747  -3.721  0.00  0.00    +0.033 C 
ATOM      9  C   UNL     1       0.089   2.377  -4.079  0.00  0.00    -0.022 A 
ATOM     10  C   UNL     1       0.063   1.323  -3.231  0.00  0.00    +0.007 A 
ATOM     11  N   UNL     1       0.603   0.225  -3.843  0.00  0.00    -0.359 N 
ATOM     12  H   UNL     1       0.668  -0.731  -3.301  0.00  0.00    +0.166 HD
ATOM     13  C   UNL     1       0.991   0.546  -5.112  0.00  0.00    +0.047 A 
ATOM     14  C   UNL     1       0.683   1.917  -5.314  0.00  0.00    +0.003 A 
ATOM     15  C   UNL     1       0.963   2.551  -6.529  0.00  0.00    +0.010 A 
ATOM     16  C   UNL     1       1.545   1.787  -7.509  0.00  0.00    +0.001 A 
ATOM     17  C   UNL     1       1.848   0.449  -7.317  0.00  0.00    +0.002 A 
ATOM     18  C   UNL     1       1.583  -0.204  -6.125  0.00  0.00    +0.026 A 
ATOM     19  H   UNL     1       0.437   3.233  -1.404  0.00  0.00    -0.079 HD
ENDROOT
BRANCH   1  24
ATOM     20  C   UNL     1      -1.684   8.594   1.150  0.00  0.00    +0.044 C 
ATOM     21  C   UNL     1      -1.553   7.129   0.819  0.00  0.00    -0.050 A 
ATOM     22  C   UNL     1      -2.564   6.251   1.161  0.00  0.00    +0.003 A 
ATOM     23  C   UNL     1      -2.445   4.907   0.857  0.00  0.00    +0.002 A 
ATOM     24  C   UNL     1      -1.315   4.443   0.210  0.00  0.00    -0.061 A 
ATOM     25  C   UNL     1      -0.302   5.321  -0.127  0.00  0.00    +0.002 A 
ATOM     26  C   UNL     1      -0.423   6.665   0.173  0.00  0.00    +0.003 A 
ENDBRANCH   1  24
BRANCH   7  27
ATOM     27  C   UNL     1      -2.592   2.924  -2.817  0.00  0.00    +0.294 C 
ATOM     28  O   UNL     1      -2.985   1.999  -2.147  0.00  0.00    -0.253 OA
BRANCH  27  29
ATOM     29  O   UNL     1      -3.306   3.335  -3.877  0.00  0.00    -0.469 OA
ATOM     30  C   UNL     1      -4.539   2.622  -4.159  0.00  0.00    +0.280 C 
ENDBRANCH  27  29
ENDBRANCH   7  27
BRANCH   3  31
ATOM     31  N   UNL     1       0.787   0.178   1.516  0.00  0.00    -0.309 NA
ATOM     32  H   UNL     1       1.249  -0.703   1.047  0.00  0.00    +0.123 HD
BRANCH  31  33
ATOM     33  C   UNL     1       0.073  -0.253   2.725  0.00  0.00    +0.118 C 
BRANCH  33  34
ATOM     34  C   UNL     1       1.044  -0.902   3.678  0.00  0.00    -0.015 A 
ATOM     35  C   UNL     1       1.278  -2.268   3.620  0.00  0.00    +0.008 A 
ATOM     36  C   UNL     1       2.183  -2.820   4.513  0.00  0.00    +0.020 A 
ATOM     37  C   UNL     1       2.810  -1.999   5.431  0.00  0.00    +0.111 A 
ATOM     38  N   UNL     1       2.559  -0.705   5.461  0.00  0.00    -0.263 NA
ATOM     39  C   UNL     1       1.708  -0.144   4.623  0.00  0.00    +0.115 A 
ENDBRANCH  33  34
ENDBRANCH  31  33
ENDBRANCH   3  31
TORSDOF 6
