REMARK  Name = ZINC48630684
REMARK  3 active torsions:
REMARK  status: ('A' for Active; 'I' for Inactive)
REMARK    1  A    between atoms: C_1  and  C_2
REMARK    2  A    between atoms: C_2  and  C_3
REMARK    3  A    between atoms: C_5  and  C_9
REMARK                            x       y       z     vdW  Elec       q    Type
REMARK                         _______ _______ _______ _____ _____    ______ ____
ROOT
ATOM      1  C   UNL     1       0.776  -1.530  -4.681  0.00  0.00    +0.137 A 
ATOM      2  C   UNL     1      -0.525  -1.521  -5.362  0.00  0.00    +0.030 A 
ATOM      3  C   UNL     1      -1.822  -1.189  -4.967  0.00  0.00    +0.012 A 
ATOM      4  C   UNL     1      -2.850  -1.287  -5.861  0.00  0.00    +0.001 A 
ATOM      5  C   UNL     1      -2.617  -1.714  -7.162  0.00  0.00    +0.002 A 
ATOM      6  C   UNL     1      -1.347  -2.046  -7.574  0.00  0.00    +0.028 A 
ATOM      7  C   UNL     1      -0.283  -1.954  -6.679  0.00  0.00    +0.066 A 
ATOM      8  N   UNL     1       1.062  -2.204  -6.777  0.00  0.00    -0.276 N 
ATOM      9  N   UNL     1       1.674  -1.931  -5.550  0.00  0.00    -0.170 NA
ATOM     10  H   UNL     1       1.517  -2.516  -7.575  0.00  0.00    +0.189 HD
ENDROOT
BRANCH   1  13
ATOM     11  C   UNL     1       0.707  -0.490  -1.238  0.00  0.00    +0.151 A 
ATOM     12  N   UNL     1       0.125  -0.743  -2.406  0.00  0.00    -0.210 NA
ATOM     13  C   UNL     1       1.028  -1.151  -3.276  0.00  0.00    +0.177 A 
ATOM     14  N   UNL     1       2.228  -1.161  -2.650  0.00  0.00    -0.257 N 
ATOM     15  H   UNL     1       3.082  -1.415  -3.033  0.00  0.00    +0.191 HD
ATOM     16  N   UNL     1       1.990  -0.724  -1.337  0.00  0.00    -0.157 NA
BRANCH  11  18
ATOM     17  C   UNL     1      -0.019   1.526   0.010  0.00  0.00    +0.012 C 
ATOM     18  C   UNL     1       0.002  -0.004   0.002  0.00  0.00    +0.075 C 
ENDBRANCH  11  18
ENDBRANCH   1  13
TORSDOF 2
