REMARK  Name = ZINC02282358
REMARK  7 active torsions:
REMARK  status: ('A' for Active; 'I' for Inactive)
REMARK    1  A    between atoms: C_1  and  C_2
REMARK    2  A    between atoms: C_2  and  O_3
REMARK    3  A    between atoms: O_3  and  C_4
REMARK    4  A    between atoms: C_4  and  C_6
REMARK    5  A    between atoms: C_7  and  N_28
REMARK    6  A    between atoms: C_19  and  C_21
REMARK    7  A    between atoms: C_25  and  O_27
REMARK                            x       y       z     vdW  Elec       q    Type
REMARK                         _______ _______ _______ _____ _____    ______ ____
ROOT
ATOM      1  C   UNL     1       1.425  -2.322  -2.464  0.00  0.00    +0.105 C 
ATOM      2  C   UNL     1       1.607  -3.664  -2.574  0.00  0.00    +0.195 C 
ATOM      3  O   UNL     1       2.213  -4.207  -3.641  0.00  0.00    -0.441 OA
ATOM      4  C   UNL     1       3.007  -3.443  -4.434  0.00  0.00    +0.135 A 
ATOM      5  C   UNL     1       3.942  -4.080  -5.264  0.00  0.00    +0.047 A 
ATOM      6  C   UNL     1       4.763  -3.366  -6.078  0.00  0.00    +0.012 A 
ATOM      7  C   UNL     1       4.680  -1.963  -6.093  0.00  0.00    -0.017 A 
ATOM      8  C   UNL     1       5.513  -1.192  -6.921  0.00  0.00    +0.008 A 
ATOM      9  C   UNL     1       5.404   0.165  -6.908  0.00  0.00    +0.001 A 
ATOM     10  C   UNL     1       4.478   0.803  -6.085  0.00  0.00    +0.001 A 
ATOM     11  C   UNL     1       3.655   0.088  -5.271  0.00  0.00    +0.009 A 
ATOM     12  C   UNL     1       3.738  -1.315  -5.257  0.00  0.00    -0.010 A 
ATOM     13  C   UNL     1       2.901  -2.083  -4.428  0.00  0.00    +0.015 A 
ATOM     14  C   UNL     1       1.895  -1.390  -3.545  0.00  0.00    +0.095 C 
ENDROOT
BRANCH  14  15
ATOM     15  C   UNL     1       0.716  -0.952  -4.375  0.00  0.00    -0.032 A 
ATOM     16  C   UNL     1      -0.046  -1.893  -5.043  0.00  0.00    +0.005 A 
ATOM     17  C   UNL     1      -1.129  -1.494  -5.804  0.00  0.00    +0.004 A 
ATOM     18  C   UNL     1      -1.452  -0.154  -5.900  0.00  0.00    +0.045 A 
ATOM     19  C   UNL     1      -0.690   0.791  -5.230  0.00  0.00    +0.117 A 
ATOM     20  C   UNL     1       0.393   0.388  -4.462  0.00  0.00    +0.050 A 
BRANCH  19  21
ATOM     21  O   UNL     1      -1.005   2.110  -5.322  0.00  0.00    -0.507 OA
ATOM     22  H   UNL     1      -1.622   2.415  -4.643  0.00  0.00    +0.292 HD
ENDBRANCH  19  21
ENDBRANCH  14  15
BRANCH   2  23
ATOM     23  N   UNL     1       1.162  -4.483  -1.571  0.00  0.00    -0.329 N 
ATOM     24  H   UNL     1       0.656  -4.112  -0.831  0.00  0.00    +0.145 HD
ATOM     25  H   UNL     1       1.352  -5.434  -1.600  0.00  0.00    +0.145 HD
ENDBRANCH   2  23
BRANCH   1  26
ATOM     26  C   UNL     1       0.785  -1.801  -1.331  0.00  0.00    +0.341 C 
ATOM     27  O   UNL     1       1.443  -1.298  -0.437  0.00  0.00    -0.245 OA
BRANCH  26  28
ATOM     28  O   UNL     1      -0.561  -1.856  -1.230  0.00  0.00    -0.462 OA
BRANCH  28  30
ATOM     29  C   UNL     1      -2.667  -1.458  -0.113  0.00  0.00    +0.048 C 
ATOM     30  C   UNL     1      -1.146  -1.306  -0.047  0.00  0.00    +0.229 C 
ENDBRANCH  28  30
ENDBRANCH  26  28
ENDBRANCH   1  26
TORSDOF 6
