REMARK  Name = ZINC13999826
REMARK  9 active torsions:
REMARK  status: ('A' for Active; 'I' for Inactive)
REMARK    1  A    between atoms: C_1  and  C_2
REMARK    2  A    between atoms: C_2  and  C_4
REMARK    3  A    between atoms: C_2  and  N_10
REMARK    4  A    between atoms: C_11  and  C_13
REMARK    5  A    between atoms: C_18  and  N_19
REMARK    6  A    between atoms: N_19  and  C_20
REMARK    7  A    between atoms: C_20  and  N_22
REMARK    8  A    between atoms: C_23  and  C_25
REMARK    9  A    between atoms: C_26  and  C_27
REMARK                            x       y       z     vdW  Elec       q    Type
REMARK                         _______ _______ _______ _____ _____    ______ ____
ROOT
ATOM      1  N   UNL     1       9.591   4.199  -0.093  0.00  0.00    -0.296 N 
ATOM      2  H   UNL     1       9.435   4.927  -0.714  0.00  0.00    +0.154 HD
ENDROOT
BRANCH   1   8
ATOM      3  C   UNL     1      11.996   4.421   0.095  0.00  0.00    +0.058 A 
ATOM      4  C   UNL     1      13.256   3.823   0.180  0.00  0.00    +0.015 A 
ATOM      5  C   UNL     1      13.367   2.450   0.165  0.00  0.00    +0.001 A 
ATOM      6  C   UNL     1      12.235   1.657   0.065  0.00  0.00    +0.002 A 
ATOM      7  C   UNL     1      10.984   2.233  -0.015  0.00  0.00    +0.024 A 
ATOM      8  C   UNL     1      10.852   3.615  -0.007  0.00  0.00    +0.045 A 
BRANCH   3  10
ATOM      9  N   UNL     1      12.975   6.662   0.094  0.00  0.00    -0.305 N 
ATOM     10  C   UNL     1      11.870   5.891   0.110  0.00  0.00    +0.246 C 
ATOM     11  O   UNL     1      10.769   6.406   0.137  0.00  0.00    -0.270 OA
ATOM     12  H   UNL     1      13.853   6.251   0.073  0.00  0.00    +0.150 HD
BRANCH   9  14
ATOM     13  C   UNL     1      12.709   8.606   1.554  0.00  0.00    +0.033 C 
ATOM     14  C   UNL     1      12.849   8.122   0.110  0.00  0.00    +0.100 C 
BRANCH  14  15
ATOM     15  C   UNL     1      14.077   8.738  -0.510  0.00  0.00    -0.027 A 
ATOM     16  C   UNL     1      15.326   8.210  -0.243  0.00  0.00    +0.005 A 
ATOM     17  C   UNL     1      16.451   8.772  -0.815  0.00  0.00    +0.000 A 
ATOM     18  C   UNL     1      16.328   9.869  -1.647  0.00  0.00    +0.000 A 
ATOM     19  C   UNL     1      15.080  10.401  -1.911  0.00  0.00    +0.000 A 
ATOM     20  C   UNL     1      13.954   9.835  -1.342  0.00  0.00    +0.005 A 
ENDBRANCH  14  15
ENDBRANCH   9  14
ENDBRANCH   3  10
ENDBRANCH   1   8
BRANCH   1  21
ATOM     21  C   UNL     1       8.587   3.751   0.687  0.00  0.00    +0.141 C 
ATOM     22  S   UNL     1       8.828   2.388   1.694  0.00  0.00    -0.018 S 
BRANCH  21  23
ATOM     23  N   UNL     1       7.393   4.377   0.674  0.00  0.00    -0.264 N 
ATOM     24  C   UNL     1       6.389   3.930   1.453  0.00  0.00    +0.242 C 
ATOM     25  O   UNL     1       6.561   2.961   2.170  0.00  0.00    -0.270 OA
ATOM     26  H   UNL     1       7.257   5.149   0.103  0.00  0.00    +0.157 HD
BRANCH  24  27
ATOM     27  C   UNL     1       5.095   4.608   1.439  0.00  0.00    +0.068 C 
ATOM     28  C   UNL     1       4.088   4.159   2.221  0.00  0.00    +0.013 C 
BRANCH  28  29
ATOM     29  C   UNL     1       2.789   4.840   2.207  0.00  0.00    -0.017 A 
ATOM     30  C   UNL     1       2.576   5.950   1.393  0.00  0.00    +0.008 A 
ATOM     31  C   UNL     1       1.346   6.591   1.382  0.00  0.00    +0.001 A 
ATOM     32  C   UNL     1       0.308   6.168   2.156  0.00  0.00    +0.008 A 
ATOM     33  C   UNL     1       0.450   5.056   3.002  0.00  0.00    -0.017 A 
ATOM     34  C   UNL     1       1.688   4.368   3.047  0.00  0.00    -0.011 A 
ATOM     35  C   UNL     1       1.833   3.259   3.887  0.00  0.00    +0.009 A 
ATOM     36  C   UNL     1       0.781   2.852   4.654  0.00  0.00    +0.001 A 
ATOM     37  C   UNL     1      -0.439   3.522   4.608  0.00  0.00    +0.001 A 
ATOM     38  C   UNL     1      -0.612   4.608   3.806  0.00  0.00    +0.008 A 
ENDBRANCH  28  29
ENDBRANCH  24  27
ENDBRANCH  21  23
ENDBRANCH   1  21
TORSDOF 8
