REMARK  Name = ZINC11463510
REMARK  13 active torsions:
REMARK  status: ('A' for Active; 'I' for Inactive)
REMARK    1  A    between atoms: C_1  and  C_2
REMARK    2  A    between atoms: C_2  and  C_3
REMARK    3  A    between atoms: C_3  and  N_53
REMARK    4  A    between atoms: C_4  and  C_5
REMARK    5  A    between atoms: C_4  and  N_53
REMARK    6  A    between atoms: N_7  and  C_8
REMARK    7  A    between atoms: C_17  and  C_18
REMARK    8  A    between atoms: C_17  and  N_53
REMARK    9  A    between atoms: N_20  and  C_21
REMARK   10  A    between atoms: C_22  and  C_26
REMARK   11  A    between atoms: C_26  and  O_28
REMARK   12  A    between atoms: O_28  and  C_29
REMARK   13  A    between atoms: C_29  and  C_30
REMARK                            x       y       z     vdW  Elec       q    Type
REMARK                         _______ _______ _______ _____ _____    ______ ____
ROOT
ATOM      1  N   UNL     1      -2.497   3.754   0.068  0.00  0.00    +0.391 N 
ATOM      2  H   UNL     1      -2.963   3.238   0.822  0.00  0.00    -0.080 HD
ENDROOT
BRANCH   1   3
ATOM      3  C   UNL     1      -3.125   3.394  -1.221  0.00  0.00    -0.078 C 
BRANCH   3   5
ATOM      4  C   UNL     1      -3.927   1.475  -2.606  0.00  0.00    +0.002 C 
ATOM      5  C   UNL     1      -3.373   1.884  -1.240  0.00  0.00    -0.022 C 
ENDBRANCH   3   5
ENDBRANCH   1   3
BRANCH   1   6
ATOM      6  C   UNL     1      -2.647   5.204   0.314  0.00  0.00    +0.020 C 
BRANCH   6   7
ATOM      7  C   UNL     1      -4.104   5.510   0.546  0.00  0.00    +0.201 C 
ATOM      8  O   UNL     1      -4.926   4.620   0.493  0.00  0.00    -0.278 OA
ATOM      9  N   UNL     1      -4.494   6.772   0.811  0.00  0.00    -0.285 N 
ATOM     10  H   UNL     1      -3.831   7.473   0.913  0.00  0.00    +0.155 HD
BRANCH   9  11
ATOM     11  C   UNL     1      -5.857   7.072   0.941  0.00  0.00    +0.072 A 
ATOM     12  C   UNL     1      -6.723   6.142   1.498  0.00  0.00    +0.029 A 
ATOM     13  C   UNL     1      -8.066   6.440   1.629  0.00  0.00    +0.043 A 
ATOM     14  C   UNL     1      -8.552   7.662   1.196  0.00  0.00    +0.161 A 
ATOM     15  C   UNL     1      -7.691   8.592   0.634  0.00  0.00    +0.195 A 
ATOM     16  C   UNL     1      -6.343   8.299   0.506  0.00  0.00    +0.182 A 
ATOM     17  F   UNL     1      -5.503   9.205  -0.041  0.00  0.00    -0.200 F 
ATOM     18  F   UNL     1      -8.166   9.784   0.212  0.00  0.00    -0.199 F 
ATOM     19  F   UNL     1      -9.866   7.949   1.321  0.00  0.00    -0.202 F 
ENDBRANCH   9  11
ENDBRANCH   6   7
ENDBRANCH   1   6
BRANCH   1  20
ATOM     20  C   UNL     1      -1.065   3.390   0.051  0.00  0.00    +0.020 C 
BRANCH  20  21
ATOM     21  C   UNL     1      -0.566   3.326   1.471  0.00  0.00    +0.201 C 
ATOM     22  O   UNL     1      -1.293   3.655   2.385  0.00  0.00    -0.278 OA
ATOM     23  N   UNL     1       0.689   2.905   1.727  0.00  0.00    -0.281 N 
ATOM     24  H   UNL     1       1.269   2.639   0.996  0.00  0.00    +0.155 HD
BRANCH  23  25
ATOM     25  C   UNL     1       1.147   2.846   3.033  0.00  0.00    +0.086 A 
ATOM     26  C   UNL     1       2.393   2.433   3.494  0.00  0.00    +0.087 A 
ATOM     27  C   UNL     1       2.604   2.478   4.922  0.00  0.00    +0.024 A 
ATOM     28  C   UNL     1       1.579   2.905   5.681  0.00  0.00    +0.048 A 
ATOM     29  S   UNL     1       0.307   3.263   4.488  0.00  0.00    -0.081 S 
BRANCH  26  30
ATOM     30  C   UNL     1       3.439   1.978   2.576  0.00  0.00    +0.342 C 
ATOM     31  O   UNL     1       3.230   1.955   1.378  0.00  0.00    -0.245 OA
BRANCH  30  32
ATOM     32  O   UNL     1       4.636   1.583   3.060  0.00  0.00    -0.461 OA
BRANCH  32  33
ATOM     33  C   UNL     1       5.625   1.145   2.092  0.00  0.00    +0.229 C 
ATOM     34  C   UNL     1       6.908   0.740   2.822  0.00  0.00    +0.048 C 
ENDBRANCH  32  33
ENDBRANCH  30  32
ENDBRANCH  26  30
ENDBRANCH  23  25
ENDBRANCH  20  21
ENDBRANCH   1  20
TORSDOF 11
