REMARK  Name = ZINC59169615
REMARK  17 active torsions:
REMARK  status: ('A' for Active; 'I' for Inactive)
REMARK    1  A    between atoms: C_1  and  C_2
REMARK    2  A    between atoms: C_2  and  C_34
REMARK    3  A    between atoms: C_4  and  N_10
REMARK    4  A    between atoms: C_6  and  C_8
REMARK    5  A    between atoms: C_6  and  C_9
REMARK    6  A    between atoms: N_10  and  C_11
REMARK    7  A    between atoms: N_10  and  C_21
REMARK    8  A    between atoms: C_11  and  C_12
REMARK    9  A    between atoms: C_15  and  N_18
REMARK   10  A    between atoms: N_18  and  C_19
REMARK   11  A    between atoms: N_18  and  C_20
REMARK   12  A    between atoms: C_21  and  N_23
REMARK   13  A    between atoms: N_23  and  C_24
REMARK   14  A    between atoms: C_26  and  O_32
REMARK   15  A    between atoms: C_28  and  O_30
REMARK   16  A    between atoms: O_30  and  C_31
REMARK   17  A    between atoms: O_32  and  C_33
REMARK                            x       y       z     vdW  Elec       q    Type
REMARK                         _______ _______ _______ _____ _____    ______ ____
ROOT
ATOM      1  N   UNL     1      -2.926  -1.014   0.810  0.00  0.00    -0.305 N 
ENDROOT
BRANCH   1   5
ATOM      2  C   UNL     1       0.718  -1.847   3.138  0.00  0.00    -0.010 C 
ATOM      3  C   UNL     1       0.065  -0.462   3.078  0.00  0.00    -0.072 C 
ATOM      4  C   UNL     1      -1.398  -0.599   2.672  0.00  0.00    +0.009 C 
ATOM      5  C   UNL     1      -1.509  -0.918   1.181  0.00  0.00    +0.073 C 
ATOM      6  C   UNL     1      -0.860   0.225   0.399  0.00  0.00    +0.009 C 
ATOM      7  C   UNL     1       0.608   0.368   0.789  0.00  0.00    -0.072 C 
ATOM      8  N   UNL     1       0.818   0.440   2.224  0.00  0.00    +0.386 N 
ATOM      9  C   UNL     1       1.122   1.690   0.172  0.00  0.00    -0.010 C 
ATOM     10  C   UNL     1       1.424  -0.767   0.162  0.00  0.00    -0.010 C 
ATOM     11  C   UNL     1       0.094   0.115   4.513  0.00  0.00    -0.010 C 
ATOM     12  H   UNL     1       0.629   1.400   2.528  0.00  0.00    -0.084 HD
ATOM     13  H   UNL     1       1.816   0.300   2.410  0.00  0.00    -0.084 HD
ENDBRANCH   1   5
BRANCH   1  14
ATOM     14  C   UNL     1      -3.404  -2.147   0.260  0.00  0.00    +0.138 C 
ATOM     15  S   UNL     1      -5.035  -2.229  -0.254  0.00  0.00    -0.018 S 
BRANCH  14  16
ATOM     16  N   UNL     1      -2.598  -3.217   0.114  0.00  0.00    -0.297 N 
ATOM     17  H   UNL     1      -2.723  -3.999   0.675  0.00  0.00    +0.154 HD
BRANCH  16  18
ATOM     18  C   UNL     1      -1.580  -3.200  -0.845  0.00  0.00    +0.040 A 
ATOM     19  C   UNL     1      -1.420  -2.095  -1.669  0.00  0.00    +0.069 A 
ATOM     20  C   UNL     1      -0.411  -2.078  -2.619  0.00  0.00    +0.125 A 
ATOM     21  C   UNL     1       0.439  -3.167  -2.748  0.00  0.00    +0.091 A 
ATOM     22  C   UNL     1       0.280  -4.272  -1.925  0.00  0.00    +0.125 A 
ATOM     23  C   UNL     1      -0.725  -4.287  -0.970  0.00  0.00    +0.069 A 
BRANCH  22  24
ATOM     24  O   UNL     1       1.112  -5.339  -2.052  0.00  0.00    -0.495 OA
ATOM     25  C   UNL     1       2.128  -5.253  -3.053  0.00  0.00    +0.277 C 
ENDBRANCH  22  24
BRANCH  20  26
ATOM     26  O   UNL     1      -0.255  -0.996  -3.426  0.00  0.00    -0.495 OA
ATOM     27  C   UNL     1       0.805  -1.047  -4.383  0.00  0.00    +0.277 C 
ENDBRANCH  20  26
ENDBRANCH  16  18
ENDBRANCH  14  16
ENDBRANCH   1  14
BRANCH   1  28
ATOM     28  C   UNL     1      -3.822   0.123   1.038  0.00  0.00    +0.142 C 
BRANCH  28  29
ATOM     29  C   UNL     1      -3.864   0.985  -0.197  0.00  0.00    -0.030 A 
ATOM     30  C   UNL     1      -3.064   2.110  -0.281  0.00  0.00    +0.007 A 
ATOM     31  C   UNL     1      -3.100   2.902  -1.412  0.00  0.00    +0.023 A 
ATOM     32  C   UNL     1      -3.941   2.568  -2.465  0.00  0.00    +0.029 A 
ATOM     33  C   UNL     1      -4.743   1.438  -2.378  0.00  0.00    +0.023 A 
ATOM     34  C   UNL     1      -4.698   0.647  -1.247  0.00  0.00    +0.007 A 
BRANCH  32  35
ATOM     35  N   UNL     1      -3.981   3.367  -3.610  0.00  0.00    -0.336 N 
ATOM     36  C   UNL     1      -3.134   4.560  -3.701  0.00  0.00    +0.129 C 
ATOM     37  C   UNL     1      -4.868   3.013  -4.721  0.00  0.00    +0.129 C 
ENDBRANCH  32  35
ENDBRANCH  28  29
ENDBRANCH   1  28
TORSDOF 9
