REMARK  Name = ZINC63987249
REMARK  8 active torsions:
REMARK  status: ('A' for Active; 'I' for Inactive)
REMARK    1  A    between atoms: C_1  and  C_2
REMARK    2  A    between atoms: C_2  and  C_4
REMARK    3  A    between atoms: C_2  and  N_16
REMARK    4  A    between atoms: C_7  and  C_10
REMARK    5  A    between atoms: C_17  and  C_19
REMARK    6  A    between atoms: C_19  and  C_20
REMARK    7  A    between atoms: C_20  and  C_21
REMARK    8  A    between atoms: C_25  and  C_27
REMARK                            x       y       z     vdW  Elec       q    Type
REMARK                         _______ _______ _______ _____ _____    ______ ____
ROOT
ATOM      1  N   UNL     1       0.928  -1.131   0.888  0.00  0.00    -0.306 N 
ATOM      2  C   UNL     1       0.256  -1.112   2.056  0.00  0.00    +0.214 C 
ATOM      3  O   UNL     1      -0.906  -0.766   2.081  0.00  0.00    -0.276 OA
ATOM      4  H   UNL     1       1.858  -1.408   0.869  0.00  0.00    +0.149 HD
ENDROOT
BRANCH   1   6
ATOM      5  C   UNL     1       0.326   0.787  -0.504  0.00  0.00    +0.036 C 
ATOM      6  C   UNL     1       0.256  -0.734  -0.351  0.00  0.00    +0.134 C 
BRANCH   6   7
ATOM      7  C   UNL     1       0.938  -1.388  -1.525  0.00  0.00    +0.105 A 
ATOM      8  N   UNL     1       0.341  -1.735  -2.685  0.00  0.00    -0.342 N 
ATOM      9  H   UNL     1      -0.594  -1.610  -2.912  0.00  0.00    +0.167 HD
ATOM     10  C   UNL     1       1.308  -2.300  -3.485  0.00  0.00    +0.064 A 
ATOM     11  C   UNL     1       2.465  -2.272  -2.770  0.00  0.00    +0.110 A 
ATOM     12  N   UNL     1       2.203  -1.706  -1.586  0.00  0.00    -0.348 N 
ATOM     13  H   UNL     1       2.852  -1.558  -0.881  0.00  0.00    +0.167 HD
BRANCH  10  14
ATOM     14  C   UNL     1       1.125  -2.833  -4.853  0.00  0.00    -0.000 A 
ATOM     15  C   UNL     1      -0.130  -2.787  -5.461  0.00  0.00    +0.010 A 
ATOM     16  C   UNL     1      -0.293  -3.285  -6.737  0.00  0.00    +0.001 A 
ATOM     17  C   UNL     1       0.784  -3.831  -7.413  0.00  0.00    +0.000 A 
ATOM     18  C   UNL     1       2.030  -3.880  -6.816  0.00  0.00    +0.001 A 
ATOM     19  C   UNL     1       2.209  -3.379  -5.542  0.00  0.00    +0.010 A 
ENDBRANCH  10  14
ENDBRANCH   6   7
ENDBRANCH   1   6
BRANCH   2  20
ATOM     20  C   UNL     1       0.947  -1.521   3.331  0.00  0.00    +0.100 C 
BRANCH  20  21
ATOM     21  C   UNL     1      -0.032  -1.411   4.501  0.00  0.00    +0.065 C 
BRANCH  21  22
ATOM     22  C   UNL     1       0.670  -1.826   5.795  0.00  0.00    +0.236 C 
ATOM     23  N   UNL     1      -0.238  -1.662   6.936  0.00  0.00    -0.262 NA
ATOM     24  C   UNL     1      -0.152  -2.681   7.706  0.00  0.00    +0.117 C 
ATOM     25  C   UNL     1       0.855  -3.645   7.119  0.00  0.00    +0.197 C 
ATOM     26  O   UNL     1       1.011  -3.224   5.747  0.00  0.00    -0.342 OA
BRANCH  25  27
ATOM     27  C   UNL     1       2.168  -3.541   7.850  0.00  0.00    +0.057 A 
ATOM     28  C   UNL     1       2.223  -2.938   9.094  0.00  0.00    +0.132 A 
ATOM     29  C   UNL     1       3.430  -2.843   9.766  0.00  0.00    +0.039 A 
ATOM     30  C   UNL     1       4.581  -3.351   9.194  0.00  0.00    +0.006 A 
ATOM     31  C   UNL     1       4.528  -3.954   7.951  0.00  0.00    +0.039 A 
ATOM     32  C   UNL     1       3.321  -4.055   7.281  0.00  0.00    +0.132 A 
ATOM     33  F   UNL     1       3.268  -4.650   6.069  0.00  0.00    -0.205 F 
ATOM     34  F   UNL     1       1.098  -2.440   9.654  0.00  0.00    -0.205 F 
ENDBRANCH  25  27
ENDBRANCH  21  22
ENDBRANCH  20  21
ENDBRANCH   2  20
TORSDOF 7
