REMARK  Name = ZINC13414443
REMARK  11 active torsions:
REMARK  status: ('A' for Active; 'I' for Inactive)
REMARK    1  A    between atoms: C_1  and  C_2
REMARK    2  A    between atoms: C_2  and  O_3
REMARK    3  A    between atoms: O_3  and  C_4
REMARK    4  A    between atoms: C_9  and  N_10
REMARK    5  A    between atoms: C_11  and  S_15
REMARK    6  A    between atoms: S_15  and  C_16
REMARK    7  A    between atoms: C_16  and  C_17
REMARK    8  A    between atoms: N_19  and  CA_20
REMARK    9  A    between atoms: CA_20  and  CB_22
REMARK   10  A    between atoms: CA_20  and  C_33
REMARK   11  A    between atoms: CB_22  and  CG_23
REMARK                            x       y       z     vdW  Elec       q    Type
REMARK                         _______ _______ _______ _____ _____    ______ ____
ROOT
ATOM      1  C   UNK A   0       4.534  -4.513  -7.077  0.00  0.00    +0.224 C 
ATOM      2  O   UNK A   0       4.250  -5.533  -6.486  0.00  0.00    -0.275 OA
ATOM      3  N   TRP A   1       5.258  -4.572  -8.212  0.00  0.00    -0.301 N 
ATOM      4  H   TRP A   1       5.486  -3.756  -8.685  0.00  0.00    +0.150 HD
ENDROOT
BRANCH   1   5
ATOM      5  C   UNK A   0       4.078  -3.180  -6.543  0.00  0.00    +0.173 C 
BRANCH   5   6
ATOM      6  S   UNK A   0       3.133  -3.432  -5.015  0.00  0.00    -0.075 S 
BRANCH   6   8
ATOM      7  N   UNK A   0       1.953  -1.466  -3.426  0.00  0.00    -0.184 N 
ATOM      8  C   UNK A   0       2.677  -1.803  -4.522  0.00  0.00    +0.215 A 
ATOM      9  N   UNK A   0       2.975  -0.685  -5.147  0.00  0.00    -0.101 NA
ATOM     10  N   UNK A   0       2.488   0.325  -4.520  0.00  0.00    -0.022 NA
ATOM     11  N   UNK A   0       1.850  -0.064  -3.470  0.00  0.00    -0.038 NA
BRANCH   7  17
ATOM     12  C   UNK A   0       0.090  -2.190  -2.057  0.00  0.00    +0.146 A 
ATOM     13  C   UNK A   0      -0.436  -3.050  -1.106  0.00  0.00    +0.048 A 
ATOM     14  C   UNK A   0       0.357  -4.040  -0.555  0.00  0.00    +0.004 A 
ATOM     15  C   UNK A   0       1.675  -4.176  -0.950  0.00  0.00    +0.002 A 
ATOM     16  C   UNK A   0       2.207  -3.322  -1.898  0.00  0.00    +0.031 A 
ATOM     17  C   UNK A   0       1.416  -2.330  -2.459  0.00  0.00    +0.111 A 
BRANCH  12  18
ATOM     18  O   UNK A   0      -0.687  -1.216  -2.599  0.00  0.00    -0.490 OA
BRANCH  18  20
ATOM     19  C   UNK A   0      -2.751   0.015  -2.856  0.00  0.00    +0.048 C 
ATOM     20  C   UNK A   0      -2.037  -1.132  -2.138  0.00  0.00    +0.226 C 
ENDBRANCH  18  20
ENDBRANCH  12  18
ENDBRANCH   7  17
ENDBRANCH   6   8
ENDBRANCH   5   6
ENDBRANCH   1   5
BRANCH   3  21
ATOM     21  CA  TRP A   1       5.702  -5.868  -8.732  0.00  0.00    +0.191 C 
BRANCH  21  22
ATOM     22  C   TRP A   1       6.991  -6.265  -8.060  0.00  0.00    +0.376 C 
ATOM     23  O   TRP A   1       7.256  -7.444  -7.897  0.00  0.00    -0.244 OA
ATOM     24  OXT TRP A   1       7.769  -5.407  -7.679  0.00  0.00    -0.244 OA
ENDBRANCH  21  22
BRANCH  21  25
ATOM     25  CB  TRP A   1       5.925  -5.763 -10.242  0.00  0.00    +0.071 C 
BRANCH  25  26
ATOM     26  CG  TRP A   1       4.611  -5.487 -10.926  0.00  0.00    -0.020 A 
ATOM     27  CD1 TRP A   1       3.786  -6.398 -11.466  0.00  0.00    +0.087 A 
ATOM     28  NE1 TRP A   1       2.689  -5.776 -11.998  0.00  0.00    -0.360 N 
ATOM     29  HE1 TRP A   1       1.954  -6.226 -12.442  0.00  0.00    +0.165 HD
ATOM     30  CE2 TRP A   1       2.784  -4.415 -11.808  0.00  0.00    +0.047 A 
ATOM     31  CD2 TRP A   1       3.990  -4.175 -11.123  0.00  0.00    +0.003 A 
ATOM     32  CE3 TRP A   1       4.351  -2.870 -10.787  0.00  0.00    +0.010 A 
ATOM     33  CZ3 TRP A   1       3.530  -1.830 -11.121  0.00  0.00    +0.001 A 
ATOM     34  CH2 TRP A   1       2.338  -2.062 -11.794  0.00  0.00    +0.002 A 
ATOM     35  CZ2 TRP A   1       1.966  -3.342 -12.144  0.00  0.00    +0.026 A 
ENDBRANCH  25  26
ENDBRANCH  21  25
ENDBRANCH   3  21
TORSDOF 10
