REMARK  Name = ZINC12662916
REMARK  11 active torsions:
REMARK  status: ('A' for Active; 'I' for Inactive)
REMARK    1  A    between atoms: C_1  and  C_2
REMARK    2  A    between atoms: N_4  and  C_5
REMARK    3  A    between atoms: C_11  and  O_36
REMARK    4  A    between atoms: C_12  and  O_34
REMARK    5  A    between atoms: C_13  and  O_32
REMARK    6  A    between atoms: C_20  and  N_23
REMARK    7  A    between atoms: N_23  and  C_24
REMARK    8  A    between atoms: C_24  and  C_25
REMARK    9  A    between atoms: O_32  and  C_33
REMARK   10  A    between atoms: O_34  and  C_35
REMARK   11  A    between atoms: O_36  and  C_37
REMARK                            x       y       z     vdW  Elec       q    Type
REMARK                         _______ _______ _______ _____ _____    ______ ____
ROOT
ATOM      1  C   UNL     1       1.322  -0.760  -0.190  0.00  0.00    +0.104 C 
ATOM      2  C   UNL     1       1.092  -2.087   0.505  0.00  0.00    +0.032 C 
ATOM      3  C   UNL     1       2.281  -3.024   0.308  0.00  0.00    +0.038 C 
ATOM      4  C   UNL     1       3.565  -2.263   0.517  0.00  0.00    -0.032 A 
ATOM      5  C   UNL     1       4.281  -2.418   1.686  0.00  0.00    +0.054 A 
ATOM      6  C   UNL     1       5.469  -1.724   1.871  0.00  0.00    +0.165 A 
ATOM      7  C   UNL     1       5.946  -0.872   0.881  0.00  0.00    +0.204 A 
ATOM      8  C   UNL     1       5.229  -0.708  -0.297  0.00  0.00    +0.173 A 
ATOM      9  C   UNL     1       4.030  -1.406  -0.474  0.00  0.00    +0.031 A 
ATOM     10  C   UNL     1       3.241  -1.214  -1.727  0.00  0.00    -0.009 A 
ATOM     11  C   UNL     1       1.880  -0.946  -1.587  0.00  0.00    -0.016 A 
ATOM     12  C   UNL     1       1.000  -0.840  -2.599  0.00  0.00    +0.058 A 
ATOM     13  C   UNL     1       1.131  -0.915  -3.955  0.00  0.00    +0.200 A 
ATOM     14  O   UNL     1       0.090  -0.848  -4.595  0.00  0.00    -0.286 OA
ATOM     15  C   UNL     1       2.295  -1.060  -4.707  0.00  0.00    +0.075 A 
ATOM     16  C   UNL     1       3.547  -1.232  -4.198  0.00  0.00    +0.027 A 
ATOM     17  C   UNL     1       3.929  -1.310  -2.910  0.00  0.00    +0.011 A 
ENDROOT
BRANCH   1  21
ATOM     18  C   UNL     1      -1.267   2.046  -0.466  0.00  0.00    +0.109 C 
ATOM     19  C   UNL     1       0.042   1.305  -0.371  0.00  0.00    +0.210 C 
ATOM     20  O   UNL     1       1.088   1.918  -0.386  0.00  0.00    -0.276 OA
ATOM     21  N   UNL     1       0.049  -0.040  -0.276  0.00  0.00    -0.309 N 
ATOM     22  H   UNL     1      -0.787  -0.530  -0.264  0.00  0.00    +0.149 HD
ENDBRANCH   1  21
BRANCH  15  23
ATOM     23  N   UNL     1       2.169  -1.025  -6.086  0.00  0.00    -0.337 N 
ATOM     24  H   UNL     1       1.296  -0.904  -6.490  0.00  0.00    +0.147 HD
BRANCH  23  25
ATOM     25  C   UNL     1       3.355  -1.171  -6.933  0.00  0.00    +0.137 C 
BRANCH  25  26
ATOM     26  C   UNL     1       2.948  -1.098  -8.383  0.00  0.00    -0.030 A 
ATOM     27  C   UNL     1       2.610  -2.252  -9.064  0.00  0.00    +0.006 A 
ATOM     28  C   UNL     1       2.232  -2.185 -10.392  0.00  0.00    +0.020 A 
ATOM     29  C   UNL     1       2.203  -0.964 -11.042  0.00  0.00    +0.041 A 
ATOM     30  C   UNL     1       2.546   0.191 -10.361  0.00  0.00    +0.020 A 
ATOM     31  C   UNL     1       2.919   0.123  -9.031  0.00  0.00    +0.006 A 
ATOM     32 CL   UNL     1       1.734  -0.879 -12.711  0.00  0.00    -0.084 Cl
ENDBRANCH  25  26
ENDBRANCH  23  25
ENDBRANCH  15  23
BRANCH   8  33
ATOM     33  O   UNL     1       5.689   0.123  -1.269  0.00  0.00    -0.491 OA
ATOM     34  C   UNL     1       5.363   1.509  -1.146  0.00  0.00    +0.277 C 
ENDBRANCH   8  33
BRANCH   7  35
ATOM     35  O   UNL     1       7.115  -0.199   1.066  0.00  0.00    -0.488 OA
ATOM     36  C   UNL     1       8.313  -0.848   0.637  0.00  0.00    +0.277 C 
ENDBRANCH   7  35
BRANCH   6  37
ATOM     37  O   UNL     1       6.170  -1.879   3.025  0.00  0.00    -0.491 OA
ATOM     38  C   UNL     1       5.625  -2.769   4.001  0.00  0.00    +0.277 C 
ENDBRANCH   6  37
TORSDOF 7
