REMARK  Name = ZINC41724533
REMARK  7 active torsions:
REMARK  status: ('A' for Active; 'I' for Inactive)
REMARK    1  A    between atoms: C_1  and  C_2
REMARK    2  A    between atoms: C_3  and  C_21
REMARK    3  A    between atoms: N_7  and  C_8
REMARK    4  A    between atoms: C_8  and  C_10
REMARK    5  A    between atoms: C_10  and  C_19
REMARK    6  A    between atoms: C_11  and  C_12
REMARK    7  A    between atoms: C_15  and  O_18
REMARK                            x       y       z     vdW  Elec       q    Type
REMARK                         _______ _______ _______ _____ _____    ______ ____
ROOT
ATOM      1  C   UNL     1       4.533  -3.414  -0.034  0.00  0.00    +0.116 C 
ATOM      2  C   UNL     1       5.818  -2.952  -0.044  0.00  0.00    +0.032 C 
ENDROOT
BRANCH   2   3
ATOM      3  C   UNL     1       6.936  -3.893   0.055  0.00  0.00    -0.023 A 
ATOM      4  C   UNL     1       6.851  -5.154  -0.554  0.00  0.00    +0.011 A 
ATOM      5  C   UNL     1       7.901  -6.030  -0.458  0.00  0.00    +0.046 A 
ATOM      6  C   UNL     1       9.049  -5.671   0.242  0.00  0.00    +0.117 A 
ATOM      7  C   UNL     1       9.139  -4.423   0.848  0.00  0.00    +0.046 A 
ATOM      8  C   UNL     1       8.098  -3.535   0.754  0.00  0.00    +0.011 A 
BRANCH   6   9
ATOM      9  O   UNL     1      10.084  -6.543   0.334  0.00  0.00    -0.507 OA
ATOM     10  H   UNL     1      10.732  -6.462  -0.381  0.00  0.00    +0.292 HD
ENDBRANCH   6   9
ENDBRANCH   2   3
BRANCH   1  11
ATOM     11  C   UNL     1       3.414  -2.490  -0.300  0.00  0.00    +0.280 C 
ATOM     12  O   UNL     1       3.637  -1.312  -0.529  0.00  0.00    -0.267 OA
BRANCH  11  19
ATOM     13  C   UNL     1       0.022   1.369  -1.327  0.00  0.00    +0.064 C 
ATOM     14  C   UNL     1       0.033  -0.106  -1.020  0.00  0.00    +0.024 A 
ATOM     15  C   UNL     1      -1.102  -0.811  -0.949  0.00  0.00    +0.009 A 
ATOM     16  S   UNL     1      -0.500  -2.446  -0.569  0.00  0.00    -0.057 S 
ATOM     17  C   UNL     1       1.147  -2.108  -0.530  0.00  0.00    +0.164 A 
ATOM     18  N   UNL     1       1.198  -0.777  -0.809  0.00  0.00    -0.339 N 
ATOM     19  N   UNL     1       2.156  -2.942  -0.290  0.00  0.00    -0.152 NA
ATOM     20  C   UNL     1      -2.522  -0.343  -1.139  0.00  0.00    +0.053 C 
ATOM     21  H   UNL     1       2.049  -0.314  -0.853  0.00  0.00    +0.167 HD
ENDBRANCH  11  19
ENDBRANCH   1  11
BRANCH   1  22
ATOM     22  C   UNL     1       4.271  -4.796   0.235  0.00  0.00    +0.104 C 
ATOM     23  N   UNL     1       4.064  -5.892   0.449  0.00  0.00    -0.191 NA
ENDBRANCH   1  22
TORSDOF 5
