REMARK  Name = ZINC02229063
REMARK  8 active torsions:
REMARK  status: ('A' for Active; 'I' for Inactive)
REMARK    1  A    between atoms: C_1  and  C_2
REMARK    2  A    between atoms: N_8  and  C_9
REMARK    3  A    between atoms: C_9  and  C_10
REMARK    4  A    between atoms: C_10  and  C_11
REMARK    5  A    between atoms: C_10  and  C_12
REMARK    6  A    between atoms: C_13  and  C_21
REMARK    7  A    between atoms: C_15  and  C_19
REMARK    8  A    between atoms: C_16  and  N_18
REMARK                            x       y       z     vdW  Elec       q    Type
REMARK                         _______ _______ _______ _____ _____    ______ ____
ROOT
ATOM      1  C   UNL     1      -2.673   7.175   4.832  0.00  0.00    +0.064 C 
ATOM      2  C   UNL     1      -2.006   6.701   3.567  0.00  0.00    +0.022 A 
ATOM      3  C   UNL     1      -2.679   6.758   2.398  0.00  0.00    +0.068 A 
ATOM      4  C   UNL     1      -2.059   6.316   1.210  0.00  0.00    +0.141 A 
ATOM      5  C   UNL     1      -0.769   5.832   1.271  0.00  0.00    +0.072 A 
ATOM      6  C   UNL     1      -0.110   5.792   2.506  0.00  0.00    +0.259 A 
ATOM      7  O   UNL     1       1.032   5.365   2.575  0.00  0.00    -0.267 OA
ATOM      8  N   UNL     1      -0.735   6.223   3.618  0.00  0.00    -0.312 N 
ATOM      9  C   UNL     1      -0.070   5.349   0.030  0.00  0.00    +0.106 C 
ATOM     10  C   UNL     1      -0.792   5.844  -1.193  0.00  0.00    +0.098 C 
ATOM     11  C   UNL     1      -2.055   6.318  -1.122  0.00  0.00    +0.199 C 
ATOM     12  O   UNL     1      -2.729   6.371   0.040  0.00  0.00    -0.441 OA
ENDROOT
BRANCH   9  13
ATOM     13  C   UNL     1      -0.050   3.842   0.022  0.00  0.00    +0.002 A 
ATOM     14  C   UNL     1       1.157   3.166   0.007  0.00  0.00    +0.046 A 
ATOM     15  C   UNL     1       1.175   1.783   0.000  0.00  0.00    +0.020 A 
ATOM     16  C   UNL     1      -0.013   1.076   0.008  0.00  0.00    +0.003 A 
ATOM     17  C   UNL     1      -1.219   1.750   0.017  0.00  0.00    +0.020 A 
ATOM     18  C   UNL     1      -1.238   3.134   0.030  0.00  0.00    +0.046 A 
ATOM     19 CL   UNL     1      -2.754   3.981   0.049  0.00  0.00    -0.083 Cl
ATOM     20 CL   UNL     1       2.649   4.054  -0.004  0.00  0.00    -0.083 Cl
ENDBRANCH   9  13
BRANCH  11  21
ATOM     21  N   UNL     1      -2.669   6.758  -2.268  0.00  0.00    -0.328 N 
ATOM     22  H   UNL     1      -3.576   7.100  -2.232  0.00  0.00    +0.145 HD
ATOM     23  H   UNL     1      -2.196   6.726  -3.115  0.00  0.00    +0.145 HD
ENDBRANCH  11  21
BRANCH  10  24
ATOM     24  C   UNL     1      -0.128   5.813  -2.461  0.00  0.00    +0.101 C 
ATOM     25  N   UNL     1       0.399   5.788  -3.468  0.00  0.00    -0.191 NA
ENDBRANCH  10  24
BRANCH   8  26
ATOM     26  C   UNL     1      -0.033   6.177   4.903  0.00  0.00    +0.128 C 
BRANCH  26  27
ATOM     27  C   UNL     1      -0.298   4.831   5.581  0.00  0.00    +0.003 C 
ATOM     28  C   UNL     1       0.317   3.708   4.743  0.00  0.00    +0.009 C 
ATOM     29  C   UNL     1       0.331   4.829   6.975  0.00  0.00    +0.009 C 
ENDBRANCH  26  27
ENDBRANCH   8  26
TORSDOF 5
