REMARK  Name = ZINC12602056
REMARK  7 active torsions:
REMARK  status: ('A' for Active; 'I' for Inactive)
REMARK    1  A    between atoms: C_1  and  N_2
REMARK    2  A    between atoms: C_3  and  C_13
REMARK    3  A    between atoms: C_5  and  C_7
REMARK    4  A    between atoms: C_22  and  C_24
REMARK    5  A    between atoms: C_24  and  N_25
REMARK    6  A    between atoms: N_25  and  S_26
REMARK    7  A    between atoms: S_26  and  C_29
REMARK                            x       y       z     vdW  Elec       q    Type
REMARK                         _______ _______ _______ _____ _____    ______ ____
ROOT
ATOM      1  C   UNL     1       3.750  -2.103   0.450  0.00  0.00    +0.024 C 
ATOM      2  C   UNL     1       3.810  -2.466  -1.037  0.00  0.00    -0.068 C 
ATOM      3  N   UNL     1       5.138  -2.127  -1.567  0.00  0.00    +0.383 N 
ATOM      4  C   UNL     1       6.189  -2.900  -0.891  0.00  0.00    -0.078 C 
ATOM      5  C   UNL     1       6.195  -2.551   0.603  0.00  0.00    -0.015 C 
ATOM      6  C   UNL     1       5.100  -1.512   0.873  0.00  0.00    -0.007 C 
ATOM      7  C   UNL     1       5.380  -0.271   0.011  0.00  0.00    -0.010 C 
ATOM      8  C   UNL     1       5.396  -0.684  -1.463  0.00  0.00    -0.053 C 
ATOM      9  H   UNL     1       5.153  -2.397  -2.634  0.00  0.00    -0.081 HD
ENDROOT
BRANCH   1  12
ATOM     10  C   UNL     1       0.814  -2.282  -0.531  0.00  0.00    +0.172 C 
ATOM     11  N   UNL     1       1.385  -1.178   0.244  0.00  0.00    -0.271 N 
ATOM     12  C   UNL     1       2.660  -1.088   0.678  0.00  0.00    +0.041 A 
ATOM     13  C   UNL     1       2.784   0.078   1.354  0.00  0.00    +0.048 A 
ATOM     14  C   UNL     1       1.543   0.722   1.333  0.00  0.00    +0.066 A 
ATOM     15  N   UNL     1       0.704  -0.030   0.668  0.00  0.00    -0.176 NA
BRANCH  14  16
ATOM     16  C   UNL     1       1.227   2.053   1.966  0.00  0.00    +0.040 C 
ATOM     17  C   UNL     1       2.447   2.970   1.860  0.00  0.00    +0.010 C 
ATOM     18  C   UNL     1       2.126   4.321   2.503  0.00  0.00    +0.001 C 
ATOM     19  C   UNL     1       1.772   4.113   3.977  0.00  0.00    +0.000 C 
ATOM     20  C   UNL     1       0.552   3.195   4.083  0.00  0.00    +0.001 C 
ATOM     21  C   UNL     1       0.873   1.844   3.440  0.00  0.00    +0.010 C 
ENDBRANCH  14  16
ENDBRANCH   1  12
BRANCH   8  22
ATOM     22  C   UNL     1       4.311   0.084  -2.221  0.00  0.00    +0.091 C 
BRANCH  22  23
ATOM     23  N   UNL     1       4.231  -0.413  -3.596  0.00  0.00    -0.191 NA
ATOM     24  H   UNL     1       4.833  -1.281  -3.904  0.00  0.00    +0.148 HD
BRANCH  23  25
ATOM     25  S   UNL     1       3.435   0.469  -4.750  0.00  0.00    +0.065 S 
ATOM     26  O   UNL     1       3.604  -0.224  -5.979  0.00  0.00    -0.153 OA
ATOM     27  O   UNL     1       2.153   0.773  -4.217  0.00  0.00    -0.153 OA
BRANCH  25  28
ATOM     28  C   UNL     1       4.288   2.002  -4.915  0.00  0.00    +0.142 A 
ATOM     29  C   UNL     1       5.314   2.323  -5.740  0.00  0.00    +0.036 A 
ATOM     30  C   UNL     1       5.833   3.604  -5.698  0.00  0.00    +0.010 A 
ATOM     31  C   UNL     1       5.300   4.500  -4.832  0.00  0.00    +0.047 A 
ATOM     32  S   UNL     1       4.020   3.537  -4.044  0.00  0.00    -0.077 S 
ENDBRANCH  25  28
ENDBRANCH  23  25
ENDBRANCH  22  23
ENDBRANCH   8  22
TORSDOF 6
