REMARK  Name = ZINC63513931
REMARK  9 active torsions:
REMARK  status: ('A' for Active; 'I' for Inactive)
REMARK    1  A    between atoms: C_1  and  C_2
REMARK    2  A    between atoms: C_4  and  C_12
REMARK    3  A    between atoms: C_12  and  C_13
REMARK    4  A    between atoms: C_13  and  N_14
REMARK    5  A    between atoms: N_14  and  C_15
REMARK    6  A    between atoms: C_15  and  C_21
REMARK    7  A    between atoms: N_25  and  C_26
REMARK    8  A    between atoms: C_29  and  O_32
REMARK    9  A    between atoms: O_32  and  C_33
REMARK                            x       y       z     vdW  Elec       q    Type
REMARK                         _______ _______ _______ _____ _____    ______ ____
ROOT
ATOM      1  C   UNL     1      -7.124  -1.858  -1.258  0.00  0.00    -0.005 C 
ATOM      2  C   UNL     1      -7.682  -3.271  -1.077  0.00  0.00    -0.005 C 
ATOM      3  C   UNL     1      -7.923  -3.904  -2.448  0.00  0.00    -0.001 C 
ATOM      4  C   UNL     1      -8.927  -3.056  -3.232  0.00  0.00    -0.000 C 
ATOM      5  C   UNL     1      -8.369  -1.643  -3.414  0.00  0.00    -0.001 C 
ATOM      6  C   UNL     1      -8.128  -1.010  -2.042  0.00  0.00    -0.005 C 
ENDROOT
BRANCH   1   7
ATOM      7  C   UNL     1      -6.886  -1.234   0.093  0.00  0.00    +0.146 A 
ATOM      8  N   UNL     1      -6.713  -1.872   1.221  0.00  0.00    -0.114 NA
ATOM      9  N   UNL     1      -6.534  -1.044   2.186  0.00  0.00    -0.023 NA
ATOM     10  N   UNL     1      -6.581   0.168   1.748  0.00  0.00    -0.039 NA
ATOM     11  N   UNL     1      -6.807   0.086   0.362  0.00  0.00    -0.199 N 
BRANCH  11  12
ATOM     12  C   UNL     1      -6.928   1.150  -0.545  0.00  0.00    +0.069 A 
ATOM     13  C   UNL     1      -6.080   1.227  -1.641  0.00  0.00    +0.031 A 
ATOM     14  C   UNL     1      -6.199   2.274  -2.534  0.00  0.00    +0.048 A 
ATOM     15  C   UNL     1      -7.168   3.247  -2.337  0.00  0.00    +0.120 A 
ATOM     16  C   UNL     1      -8.016   3.171  -1.241  0.00  0.00    +0.048 A 
ATOM     17  C   UNL     1      -7.900   2.122  -0.351  0.00  0.00    +0.031 A 
BRANCH  15  18
ATOM     18  O   UNL     1      -7.285   4.277  -3.216  0.00  0.00    -0.495 OA
ATOM     19  C   UNL     1      -8.228   5.301  -2.893  0.00  0.00    +0.277 C 
ENDBRANCH  15  18
ENDBRANCH  11  12
ENDBRANCH   1   7
BRANCH   1  20
ATOM     20  N   UNL     1      -5.856  -1.924  -1.997  0.00  0.00    +0.388 N 
ATOM     21  H   UNL     1      -5.495  -0.991  -2.130  0.00  0.00    -0.084 HD
ATOM     22  H   UNL     1      -6.013  -2.354  -2.896  0.00  0.00    -0.084 HD
BRANCH  20  23
ATOM     23  C   UNL     1      -4.886  -2.720  -1.235  0.00  0.00    -0.077 C 
BRANCH  23  24
ATOM     24  C   UNL     1      -3.527  -2.678  -1.937  0.00  0.00    +0.014 C 
BRANCH  24  27
ATOM     25  C   UNL     1      -0.293  -2.704  -1.709  0.00  0.00    +0.035 C 
ATOM     26  C   UNL     1      -1.165  -3.961  -1.670  0.00  0.00    +0.103 C 
ATOM     27  C   UNL     1      -2.570  -3.608  -1.237  0.00  0.00    -0.041 C 
ATOM     28  C   UNL     1      -2.795  -4.296  -0.095  0.00  0.00    -0.001 A 
ATOM     29  C   UNL     1      -3.952  -4.381   0.804  0.00  0.00    +0.010 A 
ATOM     30  C   UNL     1      -3.877  -5.174   1.897  0.00  0.00    +0.001 A 
ATOM     31  C   UNL     1      -2.724  -5.915   2.193  0.00  0.00    +0.002 A 
ATOM     32  C   UNL     1      -1.621  -5.888   1.415  0.00  0.00    +0.026 A 
ATOM     33  C   UNL     1      -1.589  -5.088   0.240  0.00  0.00    +0.043 A 
ATOM     34  N   UNL     1      -0.655  -4.898  -0.662  0.00  0.00    -0.378 N 
ATOM     35  H   UNL     1       0.224  -5.307  -0.663  0.00  0.00    +0.160 HD
ENDBRANCH  24  27
ENDBRANCH  23  24
ENDBRANCH  20  23
ENDBRANCH   1  20
TORSDOF 7
