REMARK  Name = ZINC00910082
REMARK  11 active torsions:
REMARK  status: ('A' for Active; 'I' for Inactive)
REMARK    1  A    between atoms: C_1  and  C_2
REMARK    2  A    between atoms: C_2  and  C_3
REMARK    3  A    between atoms: C_3  and  C_4
REMARK    4  A    between atoms: C_3  and  C_5
REMARK    5  A    between atoms: C_3  and  N_6
REMARK    6  A    between atoms: C_7  and  C_11
REMARK    7  A    between atoms: C_11  and  C_13
REMARK    8  A    between atoms: C_11  and  N_65
REMARK    9  A    between atoms: C_16  and  C_26
REMARK   10  A    between atoms: C_19  and  C_25
REMARK   11  A    between atoms: C_29  and  C_32
REMARK                            x       y       z     vdW  Elec       q    Type
REMARK                         _______ _______ _______ _____ _____    ______ ____
ROOT
ATOM      1  C   UNL     1       3.530   0.717  -0.132  0.00  0.00    +0.039 C 
ENDROOT
BRANCH   1   2
ATOM      2  C   UNL     1       4.101   0.980   1.238  0.00  0.00    +0.011 A 
ATOM      3  C   UNL     1       4.840   0.025   1.855  0.00  0.00    +0.018 A 
ATOM      4  C   UNL     1       5.385   0.312   3.184  0.00  0.00    +0.002 A 
ATOM      5  C   UNL     1       6.158  -0.631   3.869  0.00  0.00    -0.041 A 
ATOM      6  C   UNL     1       6.648  -0.333   5.109  0.00  0.00    +0.004 A 
ATOM      7  C   UNL     1       6.384   0.897   5.696  0.00  0.00    +0.005 A 
ATOM      8  C   UNL     1       5.624   1.841   5.040  0.00  0.00    -0.026 A 
ATOM      9  C   UNL     1       5.115   1.561   3.776  0.00  0.00    +0.052 A 
ATOM     10  N   UNL     1       4.352   2.487   3.097  0.00  0.00    -0.322 N 
ATOM     11  H   UNL     1       4.162   3.373   3.519  0.00  0.00    +0.169 HD
ATOM     12  C   UNL     1       3.860   2.215   1.875  0.00  0.00    +0.251 A 
ATOM     13  O   UNL     1       3.190   3.058   1.304  0.00  0.00    -0.268 OA
ATOM     14  C   UNL     1       5.346   3.172   5.689  0.00  0.00    +0.046 C 
ATOM     15  C   UNL     1       6.449  -1.970   3.241  0.00  0.00    +0.044 C 
ENDBRANCH   1   2
BRANCH   1  22
ATOM     16  C   UNL     1       5.407   1.983  -0.990  0.00  0.00    -0.077 C 
ATOM     17  C   UNL     1       5.792   3.191  -1.847  0.00  0.00    -0.015 C 
ATOM     18  C   UNL     1       5.353   2.946  -3.293  0.00  0.00    -0.018 C 
ATOM     19  C   UNL     1       3.843   2.692  -3.323  0.00  0.00    -0.015 C 
ATOM     20  C   UNL     1       3.514   1.498  -2.423  0.00  0.00    -0.077 C 
ATOM     21  C   UNL     1       5.681   4.176  -4.142  0.00  0.00    +0.007 C 
ATOM     22  N   UNL     1       3.940   1.807  -1.042  0.00  0.00    +0.389 N 
ATOM     23  H   UNL     1       3.489   2.679  -0.741  0.00  0.00    -0.080 HD
ENDBRANCH   1  22
BRANCH   1  25
ATOM     24  N   UNL     1       1.230  -0.383  -0.212  0.00  0.00    -0.225 N 
ATOM     25  C   UNL     1       2.025   0.692  -0.052  0.00  0.00    +0.143 A 
ATOM     26  N   UNL     1       1.237   1.711   0.188  0.00  0.00    -0.115 NA
ATOM     27  N   UNL     1       0.021   1.285   0.175  0.00  0.00    -0.023 NA
ATOM     28  N   UNL     1       0.013   0.020  -0.066  0.00  0.00    -0.043 NA
BRANCH  24  29
ATOM     29  C   UNL     1       1.665  -1.752  -0.498  0.00  0.00    +0.061 C 
ATOM     30  C   UNL     1       2.383  -1.788  -1.849  0.00  0.00    +0.036 C 
ATOM     31  C   UNL     1       2.621  -2.223   0.600  0.00  0.00    +0.036 C 
BRANCH  29  33
ATOM     32  C   UNL     1       0.900  -4.106  -0.843  0.00  0.00    +0.006 C 
ATOM     33  C   UNL     1       0.446  -2.675  -0.544  0.00  0.00    +0.026 C 
ENDBRANCH  29  33
ENDBRANCH  24  29
ENDBRANCH   1  25
TORSDOF 5
