REMARK  Name = ZINC05445746
REMARK  4 active torsions:
REMARK  status: ('A' for Active; 'I' for Inactive)
REMARK    1  A    between atoms: C_4  and  C_7
REMARK    2  A    between atoms: C_7  and  N_8
REMARK    3  A    between atoms: C_12  and  C_23
REMARK    4  A    between atoms: C_16  and  O_22
REMARK                            x       y       z     vdW  Elec       q    Type
REMARK                         _______ _______ _______ _____ _____    ______ ____
ROOT
ATOM      1  N   UNL     1      -2.797   4.427  -0.766  0.00  0.00    -0.252 N 
ATOM      2  C   UNL     1      -1.853   4.508   0.191  0.00  0.00    +0.305 C 
ATOM      3  O   UNL     1      -1.630   5.590   0.698  0.00  0.00    -0.253 OA
ATOM      4  N   UNL     1      -1.149   3.446   0.610  0.00  0.00    -0.291 N 
ATOM      5  C   UNL     1      -1.332   2.115   0.020  0.00  0.00    +0.121 C 
ATOM      6  C   UNL     1      -1.836   2.288  -1.413  0.00  0.00    +0.130 C 
ATOM      7  C   UNL     1      -3.117   3.134  -1.366  0.00  0.00    +0.148 C 
ATOM      8  C   UNL     1      -3.651   3.282  -2.786  0.00  0.00    +0.056 C 
ATOM      9  C   UNL     1      -4.091   1.908  -3.303  0.00  0.00    +0.012 C 
ATOM     10  C   UNL     1      -2.880   0.975  -3.379  0.00  0.00    +0.075 C 
ATOM     11  C   UNL     1      -2.182   0.957  -2.034  0.00  0.00    +0.143 C 
ATOM     12  O   UNL     1      -1.915  -0.082  -1.480  0.00  0.00    -0.297 OA
ATOM     13  H   UNL     1      -0.501   3.561   1.323  0.00  0.00    +0.151 HD
ENDROOT
BRANCH   5  14
ATOM     14  C   UNL     1      -0.017   1.379   0.010  0.00  0.00    -0.008 A 
ATOM     15  C   UNL     1       0.704   1.268  -1.165  0.00  0.00    +0.007 A 
ATOM     16  C   UNL     1       1.908   0.589  -1.175  0.00  0.00    +0.000 A 
ATOM     17  C   UNL     1       2.391   0.019  -0.012  0.00  0.00    +0.001 A 
ATOM     18  C   UNL     1       1.671   0.129   1.163  0.00  0.00    +0.020 A 
ATOM     19  C   UNL     1       0.466   0.809   1.174  0.00  0.00    +0.046 A 
ATOM     20 CL   UNL     1      -0.439   0.948   2.649  0.00  0.00    -0.083 Cl
ENDBRANCH   5  14
BRANCH   7  21
ATOM     21  O   UNL     1      -4.092   2.469  -0.561  0.00  0.00    -0.371 OA
ATOM     22  H   UNL     1      -4.923   2.955  -0.468  0.00  0.00    +0.212 HD
ENDBRANCH   7  21
BRANCH   1  23
ATOM     23  C   UNL     1      -3.503   5.634  -1.204  0.00  0.00    +0.147 C 
BRANCH  23  27
ATOM     24  C   UNL     1      -1.382   7.424  -4.451  0.00  0.00    +0.000 A 
ATOM     25  C   UNL     1      -2.360   6.480  -4.701  0.00  0.00    +0.000 A 
ATOM     26  C   UNL     1      -3.047   5.901  -3.651  0.00  0.00    +0.005 A 
ATOM     27  C   UNL     1      -2.754   6.265  -2.349  0.00  0.00    -0.030 A 
ATOM     28  C   UNL     1      -1.779   7.212  -2.099  0.00  0.00    +0.005 A 
ATOM     29  C   UNL     1      -1.089   7.788  -3.150  0.00  0.00    +0.000 A 
ENDBRANCH  23  27
ENDBRANCH   1  23
TORSDOF 4
