REMARK  Name = ZINC17041771
REMARK  5 active torsions:
REMARK  status: ('A' for Active; 'I' for Inactive)
REMARK    1  A    between atoms: C_1  and  C_2
REMARK    2  A    between atoms: C_5  and  C_8
REMARK    3  A    between atoms: C_8  and  S_9
REMARK    4  A    between atoms: S_9  and  C_10
REMARK    5  A    between atoms: C_21  and  C_23
REMARK                            x       y       z     vdW  Elec       q    Type
REMARK                         _______ _______ _______ _____ _____    ______ ____
ROOT
ATOM      1  C   UNL     1      -3.507   0.224  -3.425  0.00  0.00    +0.171 A 
ATOM      2  N   UNL     1      -2.457  -0.636  -3.545  0.00  0.00    -0.302 N 
ATOM      3  H   UNL     1      -2.232  -1.006  -4.413  0.00  0.00    +0.171 HD
ATOM      4  C   UNL     1      -1.730  -0.974  -2.459  0.00  0.00    +0.258 A 
ATOM      5  O   UNL     1      -0.786  -1.741  -2.557  0.00  0.00    -0.267 OA
ATOM      6  C   UNL     1      -2.079  -0.425  -1.218  0.00  0.00    +0.069 A 
ATOM      7  C   UNL     1      -3.158   0.438  -1.150  0.00  0.00    +0.135 A 
ATOM      8  N   UNL     1      -3.841   0.740  -2.260  0.00  0.00    -0.208 NA
ATOM      9  N   UNL     1      -3.520   0.984   0.066  0.00  0.00    -0.302 N 
ATOM     10  C   UNL     1      -3.112   0.407   1.237  0.00  0.00    +0.017 C 
ATOM     11  C   UNL     1      -2.059  -0.437   1.265  0.00  0.00    +0.024 C 
ATOM     12  C   UNL     1      -1.294  -0.774   0.011  0.00  0.00    +0.093 C 
ATOM     13  C   UNL     1      -1.638  -1.030   2.469  0.00  0.00    +0.162 C 
ATOM     14  O   UNL     1      -0.699  -1.801   2.457  0.00  0.00    -0.292 OA
ATOM     15  C   UNL     1      -2.328  -0.728   3.772  0.00  0.00    +0.080 C 
ATOM     16  C   UNL     1      -2.932   0.678   3.700  0.00  0.00    +0.014 C 
ATOM     17  C   UNL     1      -3.875   0.739   2.497  0.00  0.00    +0.051 C 
ATOM     18  H   UNL     1      -4.069   1.783   0.089  0.00  0.00    +0.153 HD
ENDROOT
BRANCH  12  19
ATOM     19  C   UNL     1       0.002  -0.004   0.002  0.00  0.00    -0.032 A 
ATOM     20  C   UNL     1      -0.017   1.378   0.010  0.00  0.00    +0.008 A 
ATOM     21  C   UNL     1       1.169   2.089   0.002  0.00  0.00    +0.050 A 
ATOM     22  C   UNL     1       2.380   1.416  -0.013  0.00  0.00    +0.166 A 
ATOM     23  C   UNL     1       2.399   0.024  -0.021  0.00  0.00    +0.167 A 
ATOM     24  C   UNL     1       1.207  -0.682  -0.013  0.00  0.00    +0.054 A 
ATOM     25  O   UNL     1       3.698  -0.395  -0.036  0.00  0.00    -0.453 OA
ATOM     26  C   UNL     1       4.475   0.746   0.374  0.00  0.00    +0.466 C 
ATOM     27  O   UNL     1       3.668   1.870  -0.024  0.00  0.00    -0.453 OA
ENDBRANCH  12  19
BRANCH   1  28
ATOM     28  S   UNL     1      -4.439   0.653  -4.857  0.00  0.00    -0.083 S 
BRANCH  28  29
ATOM     29  C   UNL     1      -5.652   1.776  -4.118  0.00  0.00    +0.112 C 
BRANCH  29  34
ATOM     30  C   UNL     1      -9.225   3.724  -8.221  0.00  0.00    +0.044 C 
ATOM     31  C   UNL     1      -8.293   3.216  -7.151  0.00  0.00    -0.050 A 
ATOM     32  C   UNL     1      -8.600   2.058  -6.460  0.00  0.00    +0.003 A 
ATOM     33  C   UNL     1      -7.745   1.592  -5.479  0.00  0.00    +0.005 A 
ATOM     34  C   UNL     1      -6.584   2.284  -5.188  0.00  0.00    -0.037 A 
ATOM     35  C   UNL     1      -6.280   3.444  -5.875  0.00  0.00    +0.005 A 
ATOM     36  C   UNL     1      -7.133   3.908  -6.860  0.00  0.00    +0.003 A 
ENDBRANCH  29  34
ENDBRANCH  28  29
ENDBRANCH   1  28
TORSDOF 4
