REMARK  Name = ZINC50846676
REMARK  5 active torsions:
REMARK  status: ('A' for Active; 'I' for Inactive)
REMARK    1  A    between atoms: C_1  and  C_2
REMARK    2  A    between atoms: C_2  and  C_3
REMARK    3  A    between atoms: C_2  and  C_4
REMARK    4  A    between atoms: C_6  and  N_18
REMARK    5  A    between atoms: C_8  and  C_10
REMARK                            x       y       z     vdW  Elec       q    Type
REMARK                         _______ _______ _______ _____ _____    ______ ____
ROOT
ATOM      1  C   UNL     1      -1.412  -0.526   0.013  0.00  0.00    +0.049 A 
ATOM      2  C   UNL     1      -2.094  -0.671   1.206  0.00  0.00    +0.067 A 
ATOM      3  C   UNL     1      -3.403  -1.157   1.171  0.00  0.00    +0.120 A 
ATOM      4  N   UNL     1      -3.946  -1.463  -0.002  0.00  0.00    -0.213 NA
ATOM      5  C   UNL     1      -3.258  -1.309  -1.125  0.00  0.00    +0.162 A 
ATOM      6  N   UNL     1      -2.016  -0.845  -1.121  0.00  0.00    -0.232 NA
ENDROOT
BRANCH   5   7
ATOM      7  C   UNL     1      -3.895  -1.660  -2.417  0.00  0.00    +0.025 A 
ATOM      8  C   UNL     1      -3.187  -1.511  -3.609  0.00  0.00    +0.050 A 
ATOM      9  C   UNL     1      -3.785  -1.840  -4.811  0.00  0.00    +0.127 A 
ATOM     10  C   UNL     1      -5.085  -2.316  -4.833  0.00  0.00    +0.076 A 
ATOM     11  C   UNL     1      -5.793  -2.465  -3.652  0.00  0.00    +0.127 A 
ATOM     12  C   UNL     1      -5.201  -2.145  -2.444  0.00  0.00    +0.050 A 
ATOM     13  F   UNL     1      -7.061  -2.930  -3.679  0.00  0.00    -0.205 F 
ATOM     14  F   UNL     1      -3.100  -1.696  -5.967  0.00  0.00    -0.205 F 
ENDBRANCH   5   7
BRANCH   1  16
ATOM     15  C   UNL     1      -0.019   1.526   0.010  0.00  0.00    +0.014 C 
ATOM     16  C   UNL     1       0.002  -0.004   0.002  0.00  0.00    +0.032 C 
ATOM     17  C   UNL     1       0.742  -0.511   1.242  0.00  0.00    +0.014 C 
ENDBRANCH   1  16
BRANCH   3  18
ATOM     18  N   UNL     1      -4.124  -1.320   2.343  0.00  0.00    -0.343 N 
ATOM     19  H   UNL     1      -3.721  -1.095   3.196  0.00  0.00    +0.144 HD
ATOM     20  H   UNL     1      -5.032  -1.658   2.310  0.00  0.00    +0.144 HD
ENDBRANCH   3  18
TORSDOF 3
