REMARK  Name = ZINC06003489
REMARK  6 active torsions:
REMARK  status: ('A' for Active; 'I' for Inactive)
REMARK    1  A    between atoms: C_1  and  C_2
REMARK    2  A    between atoms: C_2  and  C_3
REMARK    3  A    between atoms: C_3  and  C_5
REMARK    4  A    between atoms: C_3  and  S_6
REMARK    5  A    between atoms: S_6  and  C_7
REMARK    6  A    between atoms: C_14  and  C_24
REMARK                            x       y       z     vdW  Elec       q    Type
REMARK                         _______ _______ _______ _____ _____    ______ ____
ROOT
ATOM      1  C   UNL     1      -3.900  -0.616   1.373  0.00  0.00    +0.172 A 
ATOM      2  N   UNL     1      -4.795  -0.416   2.380  0.00  0.00    -0.322 N 
ATOM      3  C   UNL     1      -6.093  -0.835   2.240  0.00  0.00    +0.111 A 
ATOM      4  C   UNL     1      -6.473  -1.450   1.088  0.00  0.00    +0.069 A 
ATOM      5  C   UNL     1      -5.516  -1.635   0.067  0.00  0.00    +0.280 A 
ATOM      6  N   UNL     1      -4.258  -1.204   0.250  0.00  0.00    -0.185 NA
ATOM      7  O   UNL     1      -5.832  -2.179  -0.981  0.00  0.00    -0.265 OA
ATOM      8  C   UNL     1      -7.880  -1.934   0.900  0.00  0.00    +0.092 C 
ATOM      9  C   UNL     1      -8.818  -1.288   1.888  0.00  0.00    +0.024 C 
ATOM     10  C   UNL     1     -10.196  -1.331   1.616  0.00  0.00    +0.162 C 
ATOM     11  C   UNL     1     -11.196  -0.701   2.547  0.00  0.00    +0.080 C 
ATOM     12  C   UNL     1     -10.529   0.471   3.275  0.00  0.00    +0.014 C 
ATOM     13  C   UNL     1      -9.286  -0.051   3.998  0.00  0.00    +0.051 C 
ATOM     14  C   UNL     1      -8.347  -0.686   3.001  0.00  0.00    +0.017 C 
ATOM     15  N   UNL     1      -7.003  -0.634   3.251  0.00  0.00    -0.304 N 
ATOM     16  O   UNL     1     -10.588  -1.888   0.610  0.00  0.00    -0.292 OA
ATOM     17  H   UNL     1      -6.689  -0.455   4.151  0.00  0.00    +0.153 HD
ATOM     18  H   UNL     1      -4.514   0.024   3.198  0.00  0.00    +0.169 HD
ENDROOT
BRANCH   8  19
ATOM     19  C   UNL     1      -7.918  -3.428   1.089  0.00  0.00    -0.035 A 
ATOM     20  C   UNL     1      -7.533  -3.982   2.296  0.00  0.00    +0.004 A 
ATOM     21  C   UNL     1      -7.569  -5.353   2.470  0.00  0.00    +0.000 A 
ATOM     22  C   UNL     1      -7.989  -6.170   1.437  0.00  0.00    +0.000 A 
ATOM     23  C   UNL     1      -8.375  -5.616   0.231  0.00  0.00    +0.000 A 
ATOM     24  C   UNL     1      -8.344  -4.245   0.059  0.00  0.00    +0.004 A 
ENDBRANCH   8  19
BRANCH   1  25
ATOM     25  S   UNL     1      -2.236  -0.073   1.573  0.00  0.00    -0.085 S 
BRANCH  25  26
ATOM     26  C   UNL     1      -1.433  -0.534   0.013  0.00  0.00    +0.051 C 
ATOM     27  C   UNL     1      -1.416  -2.058  -0.121  0.00  0.00    +0.019 C 
BRANCH  26  29
ATOM     28  C   UNL     1      -0.019   1.526   0.010  0.00  0.00    +0.005 C 
ATOM     29  C   UNL     1       0.002  -0.004   0.002  0.00  0.00    +0.011 C 
ENDBRANCH  26  29
ENDBRANCH  25  26
ENDBRANCH   1  25
TORSDOF 4
