REMARK  Name = ZINC22453911
REMARK  6 active torsions:
REMARK  status: ('A' for Active; 'I' for Inactive)
REMARK    1  A    between atoms: C_1  and  C_2
REMARK    2  A    between atoms: C_3  and  C_20
REMARK    3  A    between atoms: C_11  and  C_19
REMARK    4  A    between atoms: C_16  and  C_18
REMARK    5  A    between atoms: C_20  and  C_21
REMARK    6  A    between atoms: C_24  and  N_27
REMARK                            x       y       z     vdW  Elec       q    Type
REMARK                         _______ _______ _______ _____ _____    ______ ____
ROOT
ATOM      1  C   UNL     1       4.532  -2.402  -1.746  0.00  0.00    +0.066 C 
ATOM      2  C   UNL     1       3.191  -2.735  -2.346  0.00  0.00    +0.050 A 
ATOM      3  C   UNL     1       2.077  -2.754  -1.558  0.00  0.00    +0.042 A 
ATOM      4  C   UNL     1       0.838  -3.074  -2.139  0.00  0.00    +0.256 A 
ATOM      5  O   UNL     1      -0.177  -3.105  -1.463  0.00  0.00    -0.267 OA
ATOM      6  N   UNL     1       0.791  -3.341  -3.462  0.00  0.00    -0.295 N 
ATOM      7  H   UNL     1      -0.169  -3.585  -3.941  0.00  0.00    +0.172 HD
ATOM      8  C   UNL     1       1.935  -3.307  -4.199  0.00  0.00    +0.199 A 
ATOM      9  N   UNL     1       3.094  -3.011  -3.645  0.00  0.00    -0.221 NA
ATOM     10  N   UNL     1       1.880  -3.584  -5.538  0.00  0.00    -0.296 N 
ATOM     11  C   UNL     1       0.682  -2.995  -6.149  0.00  0.00    +0.073 C 
ATOM     12  C   UNL     1       0.728  -3.200  -7.665  0.00  0.00    +0.022 C 
ATOM     13  C   UNL     1       0.796  -4.698  -7.972  0.00  0.00    +0.004 C 
ATOM     14  C   UNL     1       2.026  -5.297  -7.284  0.00  0.00    +0.022 C 
ATOM     15  C   UNL     1       1.942  -5.031  -5.779  0.00  0.00    +0.073 C 
ATOM     16  C   UNL     1       0.686  -5.697  -5.213  0.00  0.00    +0.028 C 
ATOM     17  C   UNL     1       0.634  -1.498  -5.838  0.00  0.00    +0.028 C 
ENDROOT
BRANCH   3  18
ATOM     18  C   UNL     1       2.175  -2.443  -0.086  0.00  0.00    +0.077 C 
BRANCH  18  19
ATOM     19  C   UNL     1       2.321  -3.727   0.690  0.00  0.00    -0.043 A 
ATOM     20  C   UNL     1       3.577  -4.180   1.047  0.00  0.00    +0.006 A 
ATOM     21  C   UNL     1       3.710  -5.357   1.759  0.00  0.00    +0.033 A 
ATOM     22  C   UNL     1       2.587  -6.081   2.115  0.00  0.00    +0.126 A 
ATOM     23  C   UNL     1       1.331  -5.628   1.757  0.00  0.00    +0.033 A 
ATOM     24  C   UNL     1       1.198  -4.450   1.045  0.00  0.00    +0.006 A 
BRANCH  22  25
ATOM     25  N   UNL     1       2.730  -7.341   2.878  0.00  0.00    +0.056 N 
ATOM     26  O   UNL     1       3.837  -7.741   3.192  0.00  0.00    -0.126 OA
ATOM     27  O   UNL     1       1.740  -7.979   3.192  0.00  0.00    -0.126 OA
ENDBRANCH  22  25
ENDBRANCH  18  19
ENDBRANCH   3  18
TORSDOF 3
