REMARK  Name = ZINC45485328
REMARK  9 active torsions:
REMARK  status: ('A' for Active; 'I' for Inactive)
REMARK    1  A    between atoms: C_1  and  C_2
REMARK    2  A    between atoms: C_2  and  C_3
REMARK    3  A    between atoms: C_2  and  C_4
REMARK    4  A    between atoms: C_4  and  C_6
REMARK    5  A    between atoms: C_4  and  N_21
REMARK    6  A    between atoms: C_6  and  N_7
REMARK    7  A    between atoms: N_10  and  N_11
REMARK    8  A    between atoms: C_12  and  C_14
REMARK    9  A    between atoms: N_21  and  C_22
REMARK                            x       y       z     vdW  Elec       q    Type
REMARK                         _______ _______ _______ _____ _____    ______ ____
ROOT
ATOM      1  N   UNL     1      -2.897  -2.359   0.556  0.00  0.00    -0.296 N 
ATOM      2  C   UNL     1      -3.230  -3.640   0.811  0.00  0.00    +0.316 C 
ATOM      3  O   UNL     1      -2.361  -4.484   0.919  0.00  0.00    -0.251 OA
ATOM      4  N   UNL     1      -4.526  -3.985   0.946  0.00  0.00    -0.218 N 
ATOM      5  H   UNL     1      -3.590  -1.686   0.470  0.00  0.00    +0.150 HD
ATOM      6  H   UNL     1      -4.765  -4.907   1.129  0.00  0.00    +0.174 HD
ENDROOT
BRANCH   4   7
ATOM      7  N   UNL     1      -5.526  -3.013   0.821  0.00  0.00    -0.229 N 
ATOM      8  C   UNL     1      -6.822  -3.358   0.955  0.00  0.00    +0.263 C 
ATOM      9  O   UNL     1      -7.123  -4.513   1.185  0.00  0.00    -0.269 OA
ATOM     10  H   UNL     1      -5.287  -2.091   0.637  0.00  0.00    +0.173 HD
BRANCH   8  11
ATOM     11  C   UNL     1      -7.877  -2.333   0.824  0.00  0.00    +0.073 A 
ATOM     12  C   UNL     1      -7.536  -1.006   0.554  0.00  0.00    +0.016 A 
ATOM     13  C   UNL     1      -8.526  -0.054   0.432  0.00  0.00    +0.001 A 
ATOM     14  C   UNL     1      -9.856  -0.409   0.576  0.00  0.00    +0.003 A 
ATOM     15  C   UNL     1     -10.204  -1.720   0.843  0.00  0.00    +0.039 A 
ATOM     16  C   UNL     1      -9.223  -2.687   0.963  0.00  0.00    +0.136 A 
ATOM     17  F   UNL     1      -9.563  -3.970   1.218  0.00  0.00    -0.205 F 
ENDBRANCH   8  11
ENDBRANCH   4   7
BRANCH   1  18
ATOM     18  C   UNL     1      -1.488  -1.984   0.410  0.00  0.00    +0.128 C 
BRANCH  18  19
ATOM     19  C   UNL     1      -1.387  -0.484   0.127  0.00  0.00    +0.090 C 
BRANCH  19  21
ATOM     20  C   UNL     1       0.155   1.354  -0.572  0.00  0.00    +0.009 C 
ATOM     21  C   UNL     1       0.072  -0.114  -0.149  0.00  0.00    +0.005 C 
ATOM     22  C   UNL     1       0.901  -0.327   1.119  0.00  0.00    +0.009 C 
ENDBRANCH  19  21
BRANCH  19  23
ATOM     23  N   UNL     1      -2.205  -0.151  -1.042  0.00  0.00    -0.339 N 
ATOM     24  H   UNL     1      -1.997  -0.540  -1.906  0.00  0.00    +0.146 HD
BRANCH  23  25
ATOM     25  C   UNL     1      -3.284   0.727  -0.912  0.00  0.00    +0.027 A 
ATOM     26  C   UNL     1      -3.681   1.160   0.346  0.00  0.00    +0.023 A 
ATOM     27  C   UNL     1      -4.748   2.028   0.470  0.00  0.00    +0.002 A 
ATOM     28  C   UNL     1      -5.420   2.466  -0.656  0.00  0.00    +0.000 A 
ATOM     29  C   UNL     1      -5.027   2.037  -1.910  0.00  0.00    +0.002 A 
ATOM     30  C   UNL     1      -3.957   1.173  -2.042  0.00  0.00    +0.023 A 
ENDBRANCH  23  25
ENDBRANCH  19  23
ENDBRANCH  18  19
ENDBRANCH   1  18
TORSDOF 7
