REMARK  Name = ZINC15544102
REMARK  6 active torsions:
REMARK  status: ('A' for Active; 'I' for Inactive)
REMARK    1  A    between atoms: C_6  and  N_7
REMARK    2  A    between atoms: C_8  and  C_10
REMARK    3  A    between atoms: C_10  and  N_11
REMARK    4  A    between atoms: C_12  and  C_14
REMARK    5  A    between atoms: C_14  and  N_61
REMARK    6  A    between atoms: C_17  and  C_20
REMARK                            x       y       z     vdW  Elec       q    Type
REMARK                         _______ _______ _______ _____ _____    ______ ____
ROOT
ATOM      1  N   UNL     1      -1.221   2.146   3.939  0.00  0.00    -0.308 N 
ATOM      2  C   UNL     1      -1.195   3.489   3.829  0.00  0.00    +0.197 C 
ATOM      3  O   UNL     1      -0.807   4.167   4.757  0.00  0.00    -0.278 OA
ATOM      4  H   UNL     1      -1.532   1.604   3.197  0.00  0.00    +0.149 HD
ENDROOT
BRANCH   1   5
ATOM      5  C   UNL     1      -0.781   1.505   5.181  0.00  0.00    +0.200 C 
BRANCH   5   7
ATOM      6  N   UNL     1      -0.559  -0.792   6.072  0.00  0.00    -0.282 N 
ATOM      7  C   UNL     1      -0.909   0.009   5.046  0.00  0.00    +0.234 C 
ATOM      8  O   UNL     1      -1.326  -0.473   4.015  0.00  0.00    -0.274 OA
ATOM      9  H   UNL     1      -0.163  -0.411   6.872  0.00  0.00    +0.155 HD
BRANCH   6  15
ATOM     10  C   UNL     1      -0.643  -2.819   4.760  0.00  0.00    +0.029 A 
ATOM     11  C   UNL     1      -0.842  -4.184   4.674  0.00  0.00    +0.043 A 
ATOM     12  C   UNL     1      -1.177  -4.909   5.805  0.00  0.00    +0.161 A 
ATOM     13  C   UNL     1      -1.307  -4.269   7.028  0.00  0.00    +0.195 A 
ATOM     14  C   UNL     1      -1.103  -2.903   7.119  0.00  0.00    +0.182 A 
ATOM     15  C   UNL     1      -0.767  -2.175   5.983  0.00  0.00    +0.072 A 
ATOM     16  F   UNL     1      -1.229  -2.278   8.310  0.00  0.00    -0.200 F 
ATOM     17  F   UNL     1      -1.635  -4.978   8.130  0.00  0.00    -0.199 F 
ATOM     18  F   UNL     1      -1.377  -6.242   5.716  0.00  0.00    -0.202 F 
ENDBRANCH   6  15
ENDBRANCH   5   7
ENDBRANCH   1   5
BRANCH   2  19
ATOM     19  C   UNL     1      -1.648   4.149   2.552  0.00  0.00    +0.019 C 
BRANCH  19  25
ATOM     20  C   UNL     1      -1.616   6.249   1.348  0.00  0.00    -0.077 C 
ATOM     21  C   UNL     1      -1.268   7.734   1.467  0.00  0.00    -0.006 C 
ATOM     22  C   UNL     1      -2.192   8.389   2.497  0.00  0.00    +0.072 C 
ATOM     23  C   UNL     1      -2.042   7.666   3.838  0.00  0.00    -0.006 C 
ATOM     24  C   UNL     1      -2.368   6.182   3.651  0.00  0.00    -0.077 C 
ATOM     25  N   UNL     1      -1.428   5.605   2.666  0.00  0.00    +0.385 N 
ATOM     26  H   UNL     1      -0.467   5.774   2.985  0.00  0.00    -0.081 HD
BRANCH  22  27
ATOM     27  C   UNL     1      -1.815   9.839   2.663  0.00  0.00    +0.219 C 
ATOM     28  O   UNL     1      -1.328  10.224   3.705  0.00  0.00    -0.275 OA
ATOM     29  N   UNL     1      -2.018  10.708   1.653  0.00  0.00    -0.301 N 
ATOM     30  C   UNL     1      -1.561  12.071   1.808  0.00  0.00    +0.108 C 
ATOM     31  C   UNL     1      -2.671  12.926   2.456  0.00  0.00    +0.019 C 
ATOM     32  C   UNL     1      -3.769  13.144   1.502  0.00  0.00    +0.002 C 
ATOM     33  C   UNL     1      -4.481  11.869   1.061  0.00  0.00    +0.002 C 
ATOM     34  C   UNL     1      -3.730  11.249  -0.091  0.00  0.00    +0.019 C 
ATOM     35  C   UNL     1      -2.703  10.230   0.435  0.00  0.00    +0.108 C 
ENDBRANCH  22  27
ENDBRANCH  19  25
ENDBRANCH   2  19
TORSDOF 6
