REMARK  Name = ZINC39674220
REMARK  11 active torsions:
REMARK  status: ('A' for Active; 'I' for Inactive)
REMARK    1  A    between atoms: C_1  and  C_2
REMARK    2  A    between atoms: C_4  and  C_9
REMARK    3  A    between atoms: C_5  and  C_8
REMARK    4  A    between atoms: C_9  and  C_11
REMARK    5  A    between atoms: C_9  and  N_12
REMARK    6  A    between atoms: C_13  and  C_15
REMARK    7  A    between atoms: C_26  and  C_28
REMARK    8  A    between atoms: C_31  and  O_36
REMARK    9  A    between atoms: C_32  and  O_34
REMARK   10  A    between atoms: O_34  and  C_35
REMARK   11  A    between atoms: O_36  and  C_37
REMARK                            x       y       z     vdW  Elec       q    Type
REMARK                         _______ _______ _______ _____ _____    ______ ____
ROOT
ATOM      1  C   UNL     1      -4.083   2.764  -1.222  0.00  0.00    +0.100 C 
ATOM      2  C   UNL     1      -3.666   3.837  -0.192  0.00  0.00    +0.121 C 
ATOM      3  N   UNL     1      -4.756   4.840  -0.234  0.00  0.00    -0.296 N 
ATOM      4  C   UNL     1      -5.994   4.034  -0.367  0.00  0.00    +0.115 C 
ATOM      5  C   UNL     1      -5.612   2.896  -1.333  0.00  0.00    -0.004 C 
ATOM      6  C   UNL     1      -6.287   1.595  -0.908  0.00  0.00    -0.010 C 
ATOM      7  C   UNL     1      -7.802   1.731  -1.083  0.00  0.00    -0.082 C 
ATOM      8  N   UNL     1      -8.110   2.030  -2.487  0.00  0.00    +0.379 N 
ATOM      9  C   UNL     1      -7.535   3.328  -2.860  0.00  0.00    -0.082 C 
ATOM     10  C   UNL     1      -6.008   3.259  -2.761  0.00  0.00    -0.010 C 
ATOM     11  C   UNL     1      -4.647   6.182  -0.168  0.00  0.00    +0.247 C 
ATOM     12  O   UNL     1      -3.549   6.703  -0.161  0.00  0.00    -0.270 OA
ATOM     13  H   UNL     1      -7.721   1.309  -3.076  0.00  0.00    -0.086 HD
ATOM     14  H   UNL     1      -9.111   2.058  -2.611  0.00  0.00    -0.086 HD
ENDROOT
BRANCH  11  15
ATOM     15  C   UNL     1      -5.862   7.019  -0.103  0.00  0.00    +0.041 A 
ATOM     16  C   UNL     1      -7.066   6.471   0.346  0.00  0.00    +0.017 A 
ATOM     17  C   UNL     1      -8.198   7.254   0.407  0.00  0.00    +0.050 A 
ATOM     18  C   UNL     1      -8.146   8.586   0.021  0.00  0.00    +0.162 A 
ATOM     19  C   UNL     1      -6.948   9.139  -0.429  0.00  0.00    +0.162 A 
ATOM     20  C   UNL     1      -5.808   8.361  -0.486  0.00  0.00    +0.062 A 
BRANCH  19  21
ATOM     21  O   UNL     1      -6.901  10.444  -0.807  0.00  0.00    -0.491 OA
ATOM     22  C   UNL     1      -5.640  10.944  -1.257  0.00  0.00    +0.277 C 
ENDBRANCH  19  21
BRANCH  18  23
ATOM     23  O   UNL     1      -9.266   9.353   0.082  0.00  0.00    -0.491 OA
ATOM     24  C   UNL     1     -10.459   8.723   0.552  0.00  0.00    +0.277 C 
ENDBRANCH  18  23
ENDBRANCH  11  15
BRANCH   1  26
ATOM     25  N   UNL     1      -3.443   0.406  -1.611  0.00  0.00    -0.309 N 
ATOM     26  C   UNL     1      -3.710   1.390  -0.729  0.00  0.00    +0.219 C 
ATOM     27  O   UNL     1      -3.649   1.169   0.462  0.00  0.00    -0.275 OA
ATOM     28  H   UNL     1      -3.492   0.583  -2.563  0.00  0.00    +0.149 HD
BRANCH  25  29
ATOM     29  C   UNL     1      -3.080  -0.930  -1.131  0.00  0.00    +0.100 C 
ATOM     30  C   UNL     1      -4.351  -1.720  -0.811  0.00  0.00    +0.033 C 
BRANCH  29  33
ATOM     31  C   UNL     1      -3.039  -0.725  -4.406  0.00  0.00    +0.039 C 
ATOM     32  C   UNL     1      -2.734  -1.995  -3.609  0.00  0.00    +0.154 C 
ATOM     33  C   UNL     1      -2.296  -1.650  -2.197  0.00  0.00    -0.001 C 
ATOM     34  C   UNL     1      -1.054  -2.134  -2.119  0.00  0.00    +0.063 C 
ATOM     35  N   UNL     1      -0.692  -2.716  -3.283  0.00  0.00    -0.159 NA
ATOM     36  N   UNL     1      -1.560  -2.689  -4.165  0.00  0.00    -0.180 NA
ATOM     37  C   UNL     1      -0.175  -2.042  -0.898  0.00  0.00    +0.067 C 
ENDBRANCH  29  33
ENDBRANCH  25  29
ENDBRANCH   1  26
TORSDOF 6
