REMARK  Name = ZINC14472383
REMARK  7 active torsions:
REMARK  status: ('A' for Active; 'I' for Inactive)
REMARK    1  A    between atoms: C_1  and  C_2
REMARK    2  A    between atoms: C_2  and  C_3
REMARK    3  A    between atoms: C_3  and  C_5
REMARK    4  A    between atoms: C_3  and  N_6
REMARK    5  A    between atoms: C_7  and  C_9
REMARK    6  A    between atoms: C_22  and  C_25
REMARK    7  A    between atoms: C_29  and  N_31
REMARK                            x       y       z     vdW  Elec       q    Type
REMARK                         _______ _______ _______ _____ _____    ______ ____
ROOT
ATOM      1  C   UNL     1      -3.749  -0.667   1.777  0.00  0.00    +0.037 A 
ATOM      2  C   UNL     1      -4.790   0.126   1.285  0.00  0.00    +0.015 A 
ATOM      3  C   UNL     1      -6.076  -0.362   1.293  0.00  0.00    +0.024 A 
ATOM      4  C   UNL     1      -6.341  -1.633   1.799  0.00  0.00    +0.031 A 
ATOM      5  C   UNL     1      -5.314  -2.426   2.296  0.00  0.00    -0.019 A 
ATOM      6  C   UNL     1      -4.020  -1.938   2.283  0.00  0.00    +0.019 A 
ATOM      7  C   UNL     1      -5.556  -3.795   2.849  0.00  0.00    +0.049 C 
ATOM      8  C   UNL     1      -5.102  -4.865   1.885  0.00  0.00    -0.023 C 
ATOM      9  C   UNL     1      -5.895  -5.895   1.930  0.00  0.00    -0.030 C 
ATOM     10  C   UNL     1      -7.016  -5.654   2.922  0.00  0.00    +0.033 C 
ATOM     11  C   UNL     1      -7.052  -4.103   3.056  0.00  0.00    +0.029 C 
ATOM     12  C   UNL     1      -7.864  -3.563   1.875  0.00  0.00    +0.105 C 
ATOM     13  N   UNL     1      -7.648  -2.116   1.772  0.00  0.00    -0.336 N 
ATOM     14  H   UNL     1      -8.398  -1.506   1.695  0.00  0.00    +0.147 HD
ENDROOT
BRANCH  12  15
ATOM     15  C   UNL     1      -7.411  -4.233   0.603  0.00  0.00    -0.025 A 
ATOM     16  C   UNL     1      -6.263  -3.801  -0.035  0.00  0.00    +0.005 A 
ATOM     17  C   UNL     1      -5.848  -4.416  -1.201  0.00  0.00    +0.003 A 
ATOM     18  C   UNL     1      -6.581  -5.462  -1.730  0.00  0.00    +0.033 A 
ATOM     19  C   UNL     1      -7.729  -5.893  -1.093  0.00  0.00    +0.127 A 
ATOM     20  C   UNL     1      -8.141  -5.282   0.077  0.00  0.00    +0.038 A 
BRANCH  19  21
ATOM     21  N   UNL     1      -8.513  -7.014  -1.659  0.00  0.00    +0.056 N 
ATOM     22  O   UNL     1      -8.147  -7.555  -2.686  0.00  0.00    -0.126 OA
ATOM     23  O   UNL     1      -9.525  -7.394  -1.097  0.00  0.00    -0.126 OA
ENDBRANCH  19  21
ENDBRANCH  12  15
BRANCH   1  25
ATOM     24  N   UNL     1      -2.103   1.072   1.277  0.00  0.00    -0.309 N 
ATOM     25  C   UNL     1      -2.365  -0.156   1.766  0.00  0.00    +0.244 C 
ATOM     26  O   UNL     1      -1.460  -0.844   2.199  0.00  0.00    -0.270 OA
ATOM     27  H   UNL     1      -2.825   1.620   0.932  0.00  0.00    +0.149 HD
BRANCH  24  28
ATOM     28  C   UNL     1      -0.729   1.579   1.267  0.00  0.00    +0.070 C 
ATOM     29  C   UNL     1      -0.013   1.086   0.008  0.00  0.00    +0.028 C 
BRANCH  28  31
ATOM     30  C   UNL     1      -1.354   3.604   2.591  0.00  0.00    +0.005 C 
ATOM     31  C   UNL     1      -0.750   3.109   1.275  0.00  0.00    +0.018 C 
ENDBRANCH  28  31
ENDBRANCH  24  28
ENDBRANCH   1  25
TORSDOF 5
