REMARK  Name = ZINC11590051
REMARK  12 active torsions:
REMARK  status: ('A' for Active; 'I' for Inactive)
REMARK    1  A    between atoms: C_1  and  C_2
REMARK    2  A    between atoms: C_2  and  C_3
REMARK    3  A    between atoms: C_3  and  C_4
REMARK    4  A    between atoms: C_4  and  N_5
REMARK    5  A    between atoms: C_13  and  C_16
REMARK    6  A    between atoms: C_16  and  C_17
REMARK    7  A    between atoms: C_17  and  C_18
REMARK    8  A    between atoms: C_18  and  O_20
REMARK    9  A    between atoms: O_20  and  C_21
REMARK   10  A    between atoms: C_21  and  C_23
REMARK   11  A    between atoms: C_21  and  C_24
REMARK   12  A    between atoms: N_26  and  C_27
REMARK                            x       y       z     vdW  Elec       q    Type
REMARK                         _______ _______ _______ _____ _____    ______ ____
ROOT
ATOM      1  N   UNL     1       1.197   3.486   0.010  0.00  0.00    -0.305 N 
ATOM      2  C   UNL     1       1.200   2.106   0.002  0.00  0.00    +0.070 A 
ATOM      3  C   UNL     1       2.403   1.405  -0.013  0.00  0.00    +0.028 A 
ATOM      4  C   UNL     1       2.394   0.028  -0.020  0.00  0.00    +0.002 A 
ATOM      5  C   UNL     1       1.193  -0.669  -0.013  0.00  0.00    +0.002 A 
ATOM      6  C   UNL     1       0.002  -0.004   0.002  0.00  0.00    +0.030 A 
ATOM      7  C   UNL     1      -0.017   1.399   0.010  0.00  0.00    +0.088 A 
ATOM      8  N   UNL     1      -1.191   2.059   0.030  0.00  0.00    -0.245 NA
ATOM      9  C   UNL     1      -1.231   3.360   0.033  0.00  0.00    +0.107 A 
ATOM     10  C   UNL     1       0.013   4.137   0.025  0.00  0.00    +0.273 A 
ATOM     11  O   UNL     1      -0.020   5.355   0.033  0.00  0.00    -0.266 OA
ENDROOT
BRANCH   1  12
ATOM     12  C   UNL     1       2.457   4.233   0.001  0.00  0.00    +0.125 C 
BRANCH  12  13
ATOM     13  C   UNL     1       2.881   4.502  -1.444  0.00  0.00    +0.021 C 
BRANCH  13  15
ATOM     14  C   UNL     1       4.622   5.550  -2.898  0.00  0.00    +0.004 C 
ATOM     15  C   UNL     1       4.197   5.282  -1.453  0.00  0.00    -0.002 C 
ENDBRANCH  13  15
ENDBRANCH  12  13
ENDBRANCH   1  12
BRANCH   9  16
ATOM     16  C   UNL     1      -2.560   4.071   0.050  0.00  0.00    +0.072 C 
BRANCH  16  17
ATOM     17  C   UNL     1      -3.690   3.039   0.055  0.00  0.00    +0.127 C 
BRANCH  17  18
ATOM     18  C   UNL     1      -5.019   3.750   0.072  0.00  0.00    +0.308 C 
ATOM     19  O   UNL     1      -5.058   4.957   0.079  0.00  0.00    -0.251 OA
BRANCH  18  20
ATOM     20  O   UNL     1      -6.159   3.041   0.079  0.00  0.00    -0.452 OA
BRANCH  20  21
ATOM     21  C   UNL     1      -7.401   3.792   0.095  0.00  0.00    +0.258 C 
ATOM     22  C   UNL     1      -7.852   4.064  -1.341  0.00  0.00    +0.062 C 
BRANCH  21  23
ATOM     23  C   UNL     1      -8.460   2.994   0.812  0.00  0.00    +0.254 C 
ATOM     24  O   UNL     1      -8.194   1.901   1.264  0.00  0.00    -0.272 OA
ATOM     25  N   UNL     1      -9.704   3.496   0.950  0.00  0.00    -0.309 N 
ATOM     26  H   UNL     1      -9.917   4.371   0.588  0.00  0.00    +0.149 HD
BRANCH  25  27
ATOM     27  C   UNL     1     -10.733   2.721   1.646  0.00  0.00    +0.073 C 
ATOM     28  C   UNL     1     -12.128   2.673   1.018  0.00  0.00    +0.024 C 
ATOM     29  C   UNL     1     -11.888   3.494   2.287  0.00  0.00    +0.024 C 
ENDBRANCH  25  27
ENDBRANCH  21  23
ENDBRANCH  20  21
ENDBRANCH  18  20
ENDBRANCH  17  18
ENDBRANCH  16  17
ENDBRANCH   9  16
TORSDOF 10
