REMARK  Name = ZINC23737949
REMARK  9 active torsions:
REMARK  status: ('A' for Active; 'I' for Inactive)
REMARK    1  A    between atoms: C_1  and  C_2
REMARK    2  A    between atoms: C_5  and  C_8
REMARK    3  A    between atoms: C_8  and  C_33
REMARK    4  A    between atoms: N_11  and  C_15
REMARK    5  A    between atoms: C_15  and  C_16
REMARK    6  A    between atoms: N_18  and  C_19
REMARK    7  A    between atoms: C_19  and  C_20
REMARK    8  A    between atoms: C_20  and  C_22
REMARK    9  A    between atoms: C_20  and  N_28
REMARK                            x       y       z     vdW  Elec       q    Type
REMARK                         _______ _______ _______ _____ _____    ______ ____
ROOT
ATOM      1  C   UNL     1      -2.213  -7.627  -1.875  0.00  0.00    +0.231 C 
ATOM      2  O   UNL     1      -1.231  -8.024  -1.285  0.00  0.00    -0.274 OA
ATOM      3  N   UNL     1      -2.903  -8.463  -2.676  0.00  0.00    -0.315 N 
ATOM      4  H   UNL     1      -3.794  -8.103  -3.211  0.00  0.00    +0.149 HD
ENDROOT
BRANCH   1   5
ATOM      5  C   UNL     1      -2.663  -6.198  -1.713  0.00  0.00    +0.213 C 
BRANCH   5   9
ATOM      6  C   UNL     1      -0.031  -4.286   0.080  0.00  0.00    +0.135 C 
ATOM      7  C   UNL     1      -0.646  -4.842  -1.189  0.00  0.00    +0.251 C 
ATOM      8  O   UNL     1      -0.228  -4.718  -2.321  0.00  0.00    -0.272 OA
ATOM      9  N   UNL     1      -1.755  -5.501  -0.799  0.00  0.00    -0.215 N 
ATOM     10  C   UNL     1      -1.924  -5.439   0.527  0.00  0.00    +0.310 C 
ATOM     11  O   UNL     1      -2.853  -5.958   1.114  0.00  0.00    -0.252 OA
ATOM     12  N   UNL     1      -0.951  -4.739   1.137  0.00  0.00    -0.281 N 
ATOM     13  C   UNL     1       1.369  -4.862   0.297  0.00  0.00    +0.047 C 
ATOM     14  H   UNL     1      -0.753  -4.478   2.188  0.00  0.00    +0.152 HD
BRANCH   6  19
ATOM     15  C   UNL     1       0.159   1.486  -0.112  0.00  0.00    +0.044 C 
ATOM     16  C   UNL     1       0.110  -0.019  -0.062  0.00  0.00    -0.050 A 
ATOM     17  C   UNL     1       0.188  -0.752  -1.231  0.00  0.00    +0.004 A 
ATOM     18  C   UNL     1       0.147  -2.133  -1.185  0.00  0.00    +0.006 A 
ATOM     19  C   UNL     1       0.019  -2.780   0.030  0.00  0.00    -0.015 A 
ATOM     20  C   UNL     1      -0.065  -2.047   1.199  0.00  0.00    +0.006 A 
ATOM     21  C   UNL     1      -0.019  -0.666   1.153  0.00  0.00    +0.004 A 
ENDBRANCH   6  19
ENDBRANCH   5   9
ENDBRANCH   1   5
BRANCH   3  22
ATOM     22  C   UNL     1      -2.466  -9.853  -2.833  0.00  0.00    +0.093 C 
BRANCH  22  23
ATOM     23  C   UNL     1      -3.478 -10.611  -3.694  0.00  0.00    -0.020 C 
BRANCH  23  24
ATOM     24  C   UNL     1      -3.478 -10.042  -5.089  0.00  0.00    -0.059 A 
ATOM     25  C   UNL     1      -2.489 -10.405  -5.984  0.00  0.00    +0.002 A 
ATOM     26  C   UNL     1      -2.492  -9.886  -7.265  0.00  0.00    +0.000 A 
ATOM     27  C   UNL     1      -3.478  -8.996  -7.648  0.00  0.00    +0.000 A 
ATOM     28  C   UNL     1      -4.464  -8.629  -6.752  0.00  0.00    +0.000 A 
ATOM     29  C   UNL     1      -4.464  -9.152  -5.472  0.00  0.00    +0.002 A 
ENDBRANCH  23  24
BRANCH  23  30
ATOM     30  N   UNL     1      -3.110 -12.033  -3.745  0.00  0.00    +0.385 N 
ATOM     31  C   UNL     1      -3.071 -12.622  -2.382  0.00  0.00    -0.078 C 
ATOM     32  C   UNL     1      -3.200 -14.143  -2.650  0.00  0.00    -0.020 C 
ATOM     33  C   UNL     1      -4.196 -14.202  -3.832  0.00  0.00    -0.020 C 
ATOM     34  C   UNL     1      -4.117 -12.815  -4.495  0.00  0.00    -0.078 C 
ATOM     35  H   UNL     1      -2.125 -12.069  -4.234  0.00  0.00    -0.081 HD
ENDBRANCH  23  30
ENDBRANCH  22  23
ENDBRANCH   3  22
TORSDOF 7
