REMARK  Name = ZINC10385642
REMARK  1 active torsions:
REMARK  status: ('A' for Active; 'I' for Inactive)
REMARK    1  A    between atoms: C_16  and  C_26
REMARK                            x       y       z     vdW  Elec       q    Type
REMARK                         _______ _______ _______ _____ _____    ______ ____
ROOT
ATOM      1  C   UNL     1       1.154   3.162   0.008  0.00  0.00    +0.005 A 
ATOM      2  C   UNL     1       1.179   1.773   0.000  0.00  0.00    +0.018 A 
ATOM      3  C   UNL     1      -0.013   1.076   0.008  0.00  0.00    +0.084 A 
ATOM      4  C   UNL     1      -1.234   3.034   0.030  0.00  0.00    +0.099 A 
ATOM      5  C   UNL     1      -0.073   3.800   0.023  0.00  0.00    +0.042 A 
ATOM      6  N   UNL     1      -2.474   3.662   0.045  0.00  0.00    -0.314 N 
ATOM      7  C   UNL     1      -2.583   4.583   1.184  0.00  0.00    +0.125 C 
ATOM      8  C   UNL     1      -3.884   5.386   1.065  0.00  0.00    +0.126 C 
ATOM      9  N   UNL     1      -5.003   4.443   0.918  0.00  0.00    -0.302 N 
ATOM     10  C   UNL     1      -4.904   3.401  -0.115  0.00  0.00    +0.126 C 
ATOM     11  C   UNL     1      -3.564   2.677   0.051  0.00  0.00    +0.125 C 
ATOM     12  C   UNL     1      -6.102   4.533   1.717  0.00  0.00    +0.175 C 
ATOM     13  N   UNL     1      -7.098   3.674   1.567  0.00  0.00    -0.150 NA
ATOM     14  C   UNL     1      -8.197   3.732   2.307  0.00  0.00    +0.258 C 
ATOM     15  O   UNL     1      -9.069   2.901   2.142  0.00  0.00    -0.272 OA
ATOM     16  C   UNL     1      -8.388   4.805   3.347  0.00  0.00    +0.202 C 
ATOM     17  C   UNL     1      -7.006   5.250   3.864  0.00  0.00    +0.058 C 
ATOM     18  N   UNL     1      -6.170   5.505   2.674  0.00  0.00    -0.312 N 
ATOM     19  C   UNL     1      -6.381   4.046   4.607  0.00  0.00    +0.027 C 
ATOM     20  C   UNL     1      -4.889   4.220   4.657  0.00  0.00    +0.002 C 
ATOM     21  C   UNL     1      -4.410   4.897   5.958  0.00  0.00    +0.000 C 
ATOM     22  C   UNL     1      -5.311   6.071   6.386  0.00  0.00    +0.000 C 
ATOM     23  C   UNL     1      -5.729   6.919   5.215  0.00  0.00    +0.002 C 
ATOM     24  C   UNL     1      -7.100   6.424   4.724  0.00  0.00    +0.027 C 
ATOM     25  H   UNL     1      -5.686   6.339   2.574  0.00  0.00    +0.149 HD
ATOM     26  N   UNL     1      -1.236   1.669   0.017  0.00  0.00    -0.350 N 
ATOM     27  H   UNL     1      -2.107   1.125   0.013  0.00  0.00    +0.166 HD
ENDROOT
BRANCH  16  28
ATOM     28  C   UNL     1      -9.087   5.953   2.748  0.00  0.00    +0.077 C 
ATOM     29  N   UNL     1      -9.626   6.840   2.286  0.00  0.00    -0.196 NA
ENDBRANCH  16  28
TORSDOF 1
