REMARK  Name = ZINC01774473
REMARK  11 active torsions:
REMARK  status: ('A' for Active; 'I' for Inactive)
REMARK    1  A    between atoms: C_1  and  C_2
REMARK    2  A    between atoms: C_2  and  O_3
REMARK    3  A    between atoms: O_3  and  C_4
REMARK    4  A    between atoms: C_4  and  C_6
REMARK    5  A    between atoms: C_6  and  C_8
REMARK    6  A    between atoms: C_6  and  N_19
REMARK    7  A    between atoms: C_8  and  C_9
REMARK    8  A    between atoms: C_20  and  C_22
REMARK    9  A    between atoms: C_22  and  C_24
REMARK   10  A    between atoms: C_22  and  N_31
REMARK   11  A    between atoms: C_24  and  C_25
REMARK                            x       y       z     vdW  Elec       q    Type
REMARK                         _______ _______ _______ _____ _____    ______ ____
ROOT
ATOM      1  N   UNL     1      -5.359   0.678   0.922  0.00  0.00    -0.301 N 
ATOM      2  C   UNL     1      -4.299   0.049   1.467  0.00  0.00    +0.235 C 
ATOM      3  O   UNL     1      -4.434  -1.051   1.961  0.00  0.00    -0.274 OA
ATOM      4  H   UNL     1      -5.250   1.557   0.527  0.00  0.00    +0.150 HD
ENDROOT
BRANCH   1   5
ATOM      5  C   UNL     1      -6.675   0.034   0.927  0.00  0.00    +0.186 C 
BRANCH   5   6
ATOM      6  C   UNL     1      -7.366   0.313   2.237  0.00  0.00    +0.328 C 
ATOM      7  O   UNL     1      -6.815   0.980   3.080  0.00  0.00    -0.249 OA
BRANCH   6   8
ATOM      8  O   UNL     1      -8.592  -0.181   2.467  0.00  0.00    -0.464 OA
BRANCH   8  10
ATOM      9  C   UNL     1     -10.583  -0.516   3.829  0.00  0.00    +0.048 C 
ATOM     10  C   UNL     1      -9.197   0.127   3.750  0.00  0.00    +0.229 C 
ENDBRANCH   8  10
ENDBRANCH   6   8
ENDBRANCH   5   6
BRANCH   5  11
ATOM     11  C   UNL     1      -7.518   0.590  -0.223  0.00  0.00    +0.071 C 
BRANCH  11  12
ATOM     12  C   UNL     1      -6.891   0.205  -1.538  0.00  0.00    -0.020 A 
ATOM     13  C   UNL     1      -6.051   0.953  -2.271  0.00  0.00    +0.087 A 
ATOM     14  N   UNL     1      -5.686   0.273  -3.401  0.00  0.00    -0.360 N 
ATOM     15  H   UNL     1      -5.085   0.609  -4.084  0.00  0.00    +0.165 HD
ATOM     16  C   UNL     1      -6.304  -0.958  -3.427  0.00  0.00    +0.047 A 
ATOM     17  C   UNL     1      -7.085  -1.054  -2.261  0.00  0.00    +0.003 A 
ATOM     18  C   UNL     1      -7.832  -2.208  -2.016  0.00  0.00    +0.010 A 
ATOM     19  C   UNL     1      -7.800  -3.239  -2.912  0.00  0.00    +0.001 A 
ATOM     20  C   UNL     1      -7.032  -3.149  -4.064  0.00  0.00    +0.002 A 
ATOM     21  C   UNL     1      -6.287  -2.019  -4.325  0.00  0.00    +0.026 A 
ENDBRANCH  11  12
ENDBRANCH   5  11
ENDBRANCH   1   5
BRANCH   2  22
ATOM     22  C   UNL     1      -2.945   0.711   1.462  0.00  0.00    +0.175 C 
BRANCH  22  23
ATOM     23  N   UNL     1      -1.968  -0.170   2.108  0.00  0.00    -0.222 N 
ATOM     24  C   UNL     1      -1.667  -1.411   1.686  0.00  0.00    +0.255 C 
ATOM     25  O   UNL     1      -2.155  -1.971   0.725  0.00  0.00    -0.270 OA
ATOM     26  C   UNL     1      -0.643  -1.980   2.588  0.00  0.00    +0.049 A 
ATOM     27  C   UNL     1       0.032  -3.188   2.646  0.00  0.00    +0.014 A 
ATOM     28  C   UNL     1       0.957  -3.411   3.654  0.00  0.00    +0.001 A 
ATOM     29  C   UNL     1       1.209  -2.437   4.601  0.00  0.00    +0.001 A 
ATOM     30  C   UNL     1       0.542  -1.223   4.556  0.00  0.00    +0.014 A 
ATOM     31  C   UNL     1      -0.385  -0.986   3.554  0.00  0.00    +0.049 A 
ATOM     32  C   UNL     1      -1.259   0.154   3.204  0.00  0.00    +0.255 C 
ATOM     33  O   UNL     1      -1.325   1.207   3.805  0.00  0.00    -0.270 OA
ENDBRANCH  22  23
BRANCH  22  34
ATOM     34  C   UNL     1      -2.514   0.980   0.019  0.00  0.00    +0.067 C 
BRANCH  34  35
ATOM     35  C   UNL     1      -1.219   1.751   0.017  0.00  0.00    -0.045 A 
ATOM     36  C   UNL     1      -0.013   1.076   0.008  0.00  0.00    +0.004 A 
ATOM     37  C   UNL     1       1.175   1.783   0.000  0.00  0.00    +0.000 A 
ATOM     38  C   UNL     1       1.156   3.165   0.008  0.00  0.00    +0.000 A 
ATOM     39  C   UNL     1      -0.050   3.840   0.022  0.00  0.00    +0.000 A 
ATOM     40  C   UNL     1      -1.238   3.133   0.030  0.00  0.00    +0.004 A 
ENDBRANCH  34  35
ENDBRANCH  22  34
ENDBRANCH   2  22
TORSDOF 10
