REMARK  Name = ZINC01453819
REMARK  8 active torsions:
REMARK  status: ('A' for Active; 'I' for Inactive)
REMARK    1  A    between atoms: C_1  and  O_2
REMARK    2  A    between atoms: O_2  and  C_3
REMARK    3  A    between atoms: C_6  and  C_11
REMARK    4  A    between atoms: C_8  and  O_9
REMARK    5  A    between atoms: O_9  and  C_10
REMARK    6  A    between atoms: C_16  and  C_32
REMARK    7  A    between atoms: C_26  and  C_28
REMARK    8  A    between atoms: C_35  and  C_38
REMARK                            x       y       z     vdW  Elec       q    Type
REMARK                         _______ _______ _______ _____ _____    ______ ____
ROOT
ATOM      1  C   UNL     1      -0.098   1.046   0.057  0.00  0.00    +0.032 C 
ATOM      2  C   UNL     1      -0.747   1.554   1.343  0.00  0.00    +0.059 C 
ATOM      3  C   UNL     1       0.045   1.076   2.549  0.00  0.00    +0.017 C 
ATOM      4  C   UNL     1       1.376   0.906   2.468  0.00  0.00    +0.037 C 
ATOM      5  C   UNL     1       2.281   0.451   3.587  0.00  0.00    +0.147 C 
ATOM      6  N   UNL     1       1.661   0.441   4.896  0.00  0.00    -0.251 N 
ATOM      7  C   UNL     1       0.600  -0.420   5.181  0.00  0.00    +0.059 A 
ATOM      8  C   UNL     1       0.721  -1.433   6.118  0.00  0.00    +0.025 A 
ATOM      9  C   UNL     1      -0.344  -2.292   6.332  0.00  0.00    +0.002 A 
ATOM     10  C   UNL     1      -1.518  -2.144   5.615  0.00  0.00    +0.002 A 
ATOM     11  C   UNL     1      -1.647  -1.122   4.691  0.00  0.00    +0.025 A 
ATOM     12  C   UNL     1      -0.591  -0.249   4.493  0.00  0.00    +0.053 A 
ATOM     13  N   UNL     1      -0.694   0.865   3.669  0.00  0.00    -0.316 N 
ATOM     14  C   UNL     1       2.116   1.274   5.852  0.00  0.00    +0.325 C 
ATOM     15  O   UNL     1       3.037   2.026   5.614  0.00  0.00    -0.265 OA
ATOM     16  C   UNL     1       2.053   1.155   1.250  0.00  0.00    +0.163 C 
ATOM     17  O   UNL     1       3.259   1.010   1.209  0.00  0.00    -0.292 OA
ATOM     18  C   UNL     1       1.334   1.592   0.009  0.00  0.00    +0.088 C 
ATOM     19  H   UNL     1      -1.342   1.545   3.913  0.00  0.00    +0.152 HD
ENDROOT
BRANCH   1  23
ATOM     20  C   UNL     1      -2.296   2.452  -3.331  0.00  0.00    +0.161 A 
ATOM     21  C   UNL     1      -1.740   3.355  -2.439  0.00  0.00    +0.049 A 
ATOM     22  C   UNL     1      -1.030   2.897  -1.345  0.00  0.00    +0.008 A 
ATOM     23  C   UNL     1      -0.873   1.539  -1.137  0.00  0.00    -0.040 A 
ATOM     24  C   UNL     1      -1.421   0.633  -2.026  0.00  0.00    +0.053 A 
ATOM     25  C   UNL     1      -2.139   1.085  -3.122  0.00  0.00    +0.162 A 
BRANCH  20  27
ATOM     26  C   UNL     1      -3.115   4.317  -4.559  0.00  0.00    +0.277 C 
ATOM     27  O   UNL     1      -2.994   2.901  -4.408  0.00  0.00    -0.491 OA
ENDBRANCH  20  27
BRANCH  25  28
ATOM     28  O   UNL     1      -2.683   0.196  -3.994  0.00  0.00    -0.491 OA
ATOM     29  C   UNL     1      -2.481  -1.192  -3.717  0.00  0.00    +0.277 C 
ENDBRANCH  25  28
ENDBRANCH   1  23
BRANCH   5  30
ATOM     30  C   UNL     1       2.761  -0.943   3.276  0.00  0.00    -0.022 A 
ATOM     31  C   UNL     1       4.106  -1.179   3.063  0.00  0.00    +0.006 A 
ATOM     32  C   UNL     1       4.548  -2.459   2.782  0.00  0.00    +0.013 A 
ATOM     33  C   UNL     1       3.643  -3.501   2.705  0.00  0.00    +0.055 A 
ATOM     34  C   UNL     1       2.297  -3.264   2.913  0.00  0.00    +0.013 A 
ATOM     35  C   UNL     1       1.856  -1.985   3.198  0.00  0.00    +0.006 A 
BRANCH  33  36
ATOM     36  C   UNL     1       4.123  -4.895   2.395  0.00  0.00    +0.417 C 
ATOM     37  F   UNL     1       4.114  -5.094   1.010  0.00  0.00    -0.166 F 
ATOM     38  F   UNL     1       5.425  -5.058   2.881  0.00  0.00    -0.166 F 
ATOM     39  F   UNL     1       3.277  -5.827   3.006  0.00  0.00    -0.166 F 
ENDBRANCH  33  36
ENDBRANCH   5  30
BRANCH  14  40
ATOM     40  C   UNL     1       1.478   1.273   7.218  0.00  0.00    +0.470 C 
ATOM     41  F   UNL     1       2.117   2.215   8.031  0.00  0.00    -0.162 F 
ATOM     42  F   UNL     1       0.123   1.600   7.101  0.00  0.00    -0.162 F 
ATOM     43  F   UNL     1       1.604   0.002   7.789  0.00  0.00    -0.162 F 
ENDBRANCH  14  40
TORSDOF 6
