REMARK  Name = ZINC39731381
REMARK  7 active torsions:
REMARK  status: ('A' for Active; 'I' for Inactive)
REMARK    1  A    between atoms: C_1  and  C_2
REMARK    2  A    between atoms: C_4  and  C_25
REMARK    3  A    between atoms: C_8  and  C_12
REMARK    4  A    between atoms: C_12  and  S_13
REMARK    5  A    between atoms: S_13  and  C_14
REMARK    6  A    between atoms: C_17  and  C_23
REMARK    7  A    between atoms: N_19  and  C_20
REMARK                            x       y       z     vdW  Elec       q    Type
REMARK                         _______ _______ _______ _____ _____    ______ ____
ROOT
ATOM      1  C   UNL     1      -0.261   1.231   0.012  0.00  0.00    +0.024 C 
ATOM      2  C   UNL     1      -0.187  -0.298   0.005  0.00  0.00    +0.076 C 
ATOM      3  C   UNL     1       0.597  -0.797  -1.187  0.00  0.00    -0.045 C 
ATOM      4  C   UNL     1       1.720  -1.490  -0.950  0.00  0.00    +0.071 C 
ATOM      5  C   UNL     1       2.104  -1.713   0.460  0.00  0.00    +0.111 C 
ATOM      6  N   UNL     1       3.192  -2.385   0.756  0.00  0.00    -0.227 NA
ATOM      7  C   UNL     1       3.974  -2.881  -0.190  0.00  0.00    +0.134 C 
ATOM      8  N   UNL     1       3.733  -2.746  -1.471  0.00  0.00    -0.160 NA
ATOM      9  C   UNL     1       2.668  -2.089  -1.943  0.00  0.00    +0.271 C 
ATOM     10  O   UNL     1       2.474  -1.983  -3.142  0.00  0.00    -0.268 OA
ATOM     11  S   UNL     1       0.832  -0.914   1.406  0.00  0.00    -0.098 S 
ATOM     12  C   UNL     1       0.131  -0.524  -2.595  0.00  0.00    +0.041 C 
ENDROOT
BRANCH   7  13
ATOM     13  C   UNL     1       5.206  -3.641   0.229  0.00  0.00    +0.150 C 
BRANCH  13  14
ATOM     14  S   UNL     1       6.096  -4.210  -1.245  0.00  0.00    -0.081 S 
BRANCH  14  15
ATOM     15  C   UNL     1       7.491  -5.069  -0.597  0.00  0.00    +0.176 C 
ATOM     16  N   UNL     1       7.731  -5.209   0.663  0.00  0.00    -0.163 NA
ATOM     17  N   UNL     1       8.908  -5.936   0.883  0.00  0.00    -0.247 N 
ATOM     18  C   UNL     1       9.438  -6.272  -0.450  0.00  0.00    +0.174 C 
ATOM     19  N   UNL     1       8.460  -5.679  -1.379  0.00  0.00    -0.286 N 
ATOM     20  C   UNL     1      10.822  -5.652  -0.649  0.00  0.00    +0.051 C 
ATOM     21  H   UNL     1       9.296  -6.170   1.740  0.00  0.00    +0.170 HD
BRANCH  19  22
ATOM     22  C   UNL     1       8.504  -5.724  -2.842  0.00  0.00    +0.077 C 
ATOM     23  C   UNL     1       9.603  -6.569  -3.490  0.00  0.00    +0.024 C 
ATOM     24  C   UNL     1       9.686  -5.042  -3.534  0.00  0.00    +0.024 C 
ENDBRANCH  19  22
ENDBRANCH  14  15
ENDBRANCH  13  14
ENDBRANCH   7  13
TORSDOF 4
