REMARK  Name = ZINC19527925
REMARK  11 active torsions:
REMARK  status: ('A' for Active; 'I' for Inactive)
REMARK    1  A    between atoms: C_1  and  C_2
REMARK    2  A    between atoms: C_2  and  N_3
REMARK    3  A    between atoms: N_6  and  C_9
REMARK    4  A    between atoms: C_9  and  C_11
REMARK    5  A    between atoms: C_9  and  C_27
REMARK    6  A    between atoms: C_15  and  O_25
REMARK    7  A    between atoms: C_16  and  O_23
REMARK    8  A    between atoms: O_23  and  C_24
REMARK    9  A    between atoms: O_25  and  C_26
REMARK   10  A    between atoms: N_31  and  C_32
REMARK   11  A    between atoms: C_32  and  C_33
REMARK                            x       y       z     vdW  Elec       q    Type
REMARK                         _______ _______ _______ _____ _____    ______ ____
ROOT
ATOM      1  C   UNL     1       2.467   1.063  -0.015  0.00  0.00    +0.162 C 
ENDROOT
BRANCH   1   2
ATOM      2  C   UNL     1       1.145   1.785   0.001  0.00  0.00    +0.042 A 
ATOM      3  C   UNL     1      -0.013   1.076   0.008  0.00  0.00    +0.021 A 
ATOM      4  C   UNL     1      -1.280   1.806   0.018  0.00  0.00    +0.003 A 
ATOM      5  C   UNL     1      -2.504   1.125   0.030  0.00  0.00    +0.059 A 
ATOM      6  C   UNL     1      -3.681   1.841   0.046  0.00  0.00    +0.162 A 
ATOM      7  C   UNL     1      -3.656   3.240   0.054  0.00  0.00    +0.163 A 
ATOM      8  C   UNL     1      -2.453   3.920   0.047  0.00  0.00    +0.075 A 
ATOM      9  C   UNL     1      -1.256   3.214   0.031  0.00  0.00    +0.053 A 
ATOM     10  N   UNL     1      -0.045   3.875   0.023  0.00  0.00    -0.322 N 
ATOM     11  H   UNL     1      -0.018   4.974   0.029  0.00  0.00    +0.169 HD
ATOM     12  C   UNL     1       1.115   3.194   0.009  0.00  0.00    +0.254 A 
ATOM     13  O   UNL     1       2.166   3.811   0.002  0.00  0.00    -0.268 OA
BRANCH   7  14
ATOM     14  O   UNL     1      -4.823   3.935   0.069  0.00  0.00    -0.491 OA
ATOM     15  C   UNL     1      -4.729   5.361   0.076  0.00  0.00    +0.277 C 
ENDBRANCH   7  14
BRANCH   6  16
ATOM     16  O   UNL     1      -4.873   1.185   0.054  0.00  0.00    -0.491 OA
ATOM     17  C   UNL     1      -4.827  -0.243   0.046  0.00  0.00    +0.277 C 
ENDBRANCH   6  16
ENDBRANCH   1   2
BRANCH   1  21
ATOM     18  N   UNL     1       4.669   1.244  -3.616  0.00  0.00    +0.381 N 
ATOM     19  C   UNL     1       5.399   1.418  -2.353  0.00  0.00    -0.063 C 
ATOM     20  C   UNL     1       4.567   0.847  -1.203  0.00  0.00    +0.067 C 
ATOM     21  N   UNL     1       3.267   1.531  -1.155  0.00  0.00    -0.292 NA
ATOM     22  C   UNL     1       2.537   1.357  -2.418  0.00  0.00    +0.067 C 
ATOM     23  C   UNL     1       3.369   1.928  -3.569  0.00  0.00    -0.063 C 
ATOM     24  H   UNL     1       4.482   0.169  -3.755  0.00  0.00    -0.082 HD
BRANCH  18  26
ATOM     25  C   UNL     1       4.595   1.749  -6.011  0.00  0.00    -0.017 C 
ATOM     26  C   UNL     1       5.469   1.712  -4.756  0.00  0.00    -0.082 C 
ENDBRANCH  18  26
ENDBRANCH   1  21
BRANCH   1  27
ATOM     27  C   UNL     1       3.208   1.343   1.267  0.00  0.00    +0.173 A 
ATOM     28  N   UNL     1       3.823   2.454   1.589  0.00  0.00    -0.111 NA
ATOM     29  N   UNL     1       4.332   2.302   2.763  0.00  0.00    -0.023 NA
ATOM     30  N   UNL     1       4.058   1.122   3.198  0.00  0.00    -0.044 NA
ATOM     31  N   UNL     1       3.361   0.501   2.307  0.00  0.00    -0.223 N 
BRANCH  31  32
ATOM     32  C   UNL     1       2.838  -0.863   2.406  0.00  0.00    +0.182 C 
BRANCH  32  33
ATOM     33  C   UNL     1       3.855  -1.832   1.859  0.00  0.00    -0.026 A 
ATOM     34  C   UNL     1       3.833  -2.174   0.520  0.00  0.00    +0.008 A 
ATOM     35  C   UNL     1       4.767  -3.058   0.016  0.00  0.00    +0.038 A 
ATOM     36  C   UNL     1       5.720  -3.610   0.855  0.00  0.00    +0.123 A 
ATOM     37  C   UNL     1       5.739  -3.271   2.197  0.00  0.00    +0.038 A 
ATOM     38  C   UNL     1       4.806  -2.382   2.698  0.00  0.00    +0.008 A 
ATOM     39  F   UNL     1       6.632  -4.478   0.365  0.00  0.00    -0.205 F 
ENDBRANCH  32  33
ENDBRANCH  31  32
ENDBRANCH   1  27
TORSDOF 8
