REMARK  Name = ZINC33810458
REMARK  12 active torsions:
REMARK  status: ('A' for Active; 'I' for Inactive)
REMARK    1  A    between atoms: C_1  and  C_2
REMARK    2  A    between atoms: C_2  and  C_3
REMARK    3  A    between atoms: C_2  and  S_4
REMARK    4  A    between atoms: S_4  and  C_5
REMARK    5  A    between atoms: C_12  and  C_24
REMARK    6  A    between atoms: C_18  and  C_22
REMARK    7  A    between atoms: C_18  and  C_23
REMARK    8  A    between atoms: C_26  and  O_33
REMARK    9  A    between atoms: C_27  and  O_32
REMARK   10  A    between atoms: C_28  and  O_30
REMARK   11  A    between atoms: O_30  and  C_31
REMARK   12  A    between atoms: O_33  and  C_34
REMARK                            x       y       z     vdW  Elec       q    Type
REMARK                         _______ _______ _______ _____ _____    ______ ____
ROOT
ATOM      1  C   UNL     1       5.850   1.339   5.593  0.00  0.00    +0.171 A 
ATOM      2  N   UNL     1       5.208   0.347   6.271  0.00  0.00    -0.208 NA
ATOM      3  C   UNL     1       4.210  -0.367   5.661  0.00  0.00    +0.135 A 
ATOM      4  C   UNL     1       3.870  -0.074   4.377  0.00  0.00    +0.069 A 
ATOM      5  C   UNL     1       4.563   0.958   3.708  0.00  0.00    +0.258 A 
ATOM      6  O   UNL     1       4.282   1.238   2.552  0.00  0.00    -0.267 OA
ATOM      7  N   UNL     1       5.533   1.630   4.348  0.00  0.00    -0.302 N 
ATOM      8  C   UNL     1       2.779  -0.827   3.677  0.00  0.00    +0.093 C 
ATOM      9  C   UNL     1       2.466  -2.121   4.385  0.00  0.00    +0.024 C 
ATOM     10  C   UNL     1       2.854  -2.328   5.659  0.00  0.00    +0.017 C 
ATOM     11  N   UNL     1       3.557  -1.370   6.338  0.00  0.00    -0.302 N 
ATOM     12  C   UNL     1       2.522  -3.615   6.375  0.00  0.00    +0.058 C 
ATOM     13  C   UNL     1       2.464  -4.763   5.366  0.00  0.00    -0.023 C 
ATOM     14  C   UNL     1       1.411  -4.427   4.305  0.00  0.00    +0.086 C 
ATOM     15  C   UNL     1       1.756  -3.107   3.673  0.00  0.00    +0.162 C 
ATOM     16  O   UNL     1       1.417  -2.887   2.527  0.00  0.00    -0.292 OA
ATOM     17  C   UNL     1       3.831  -4.930   4.698  0.00  0.00    +0.011 C 
ATOM     18  C   UNL     1       2.081  -6.059   6.084  0.00  0.00    +0.011 C 
ATOM     19  H   UNL     1       3.597  -1.408   7.437  0.00  0.00    +0.153 HD
ATOM     20  H   UNL     1       6.064   2.434   3.818  0.00  0.00    +0.171 HD
ENDROOT
BRANCH   8  21
ATOM     21  C   UNL     1       1.537   0.026   3.637  0.00  0.00    -0.028 A 
ATOM     22  C   UNL     1       0.944   0.435   4.817  0.00  0.00    +0.054 A 
ATOM     23  C   UNL     1      -0.199   1.220   4.785  0.00  0.00    +0.165 A 
ATOM     24  C   UNL     1      -0.745   1.600   3.564  0.00  0.00    +0.201 A 
ATOM     25  C   UNL     1      -0.148   1.182   2.381  0.00  0.00    +0.165 A 
ATOM     26  C   UNL     1       0.994   0.397   2.421  0.00  0.00    +0.054 A 
BRANCH  25  27
ATOM     27  O   UNL     1      -0.682   1.547   1.184  0.00  0.00    -0.491 OA
ATOM     28  C   UNL     1      -0.013   1.086   0.008  0.00  0.00    +0.277 C 
ENDBRANCH  25  27
BRANCH  24  29
ATOM     29  O   UNL     1      -1.863   2.374   3.529  0.00  0.00    -0.501 OA
ATOM     30  H   UNL     1      -2.294   2.674   2.562  0.00  0.00    +0.292 HD
ENDBRANCH  24  29
BRANCH  23  31
ATOM     31  O   UNL     1      -0.781   1.622   5.946  0.00  0.00    -0.491 OA
ATOM     32  C   UNL     1      -0.163   1.199   7.162  0.00  0.00    +0.277 C 
ENDBRANCH  23  31
ENDBRANCH   8  21
BRANCH   1  33
ATOM     33  S   UNL     1       7.128   2.249   6.395  0.00  0.00    -0.085 S 
BRANCH  33  35
ATOM     34  C   UNL     1       6.417   4.313   4.753  0.00  0.00    +0.019 C 
ATOM     35  C   UNL     1       7.592   3.382   5.062  0.00  0.00    +0.048 C 
ATOM     36  C   UNL     1       8.800   4.213   5.497  0.00  0.00    +0.019 C 
ENDBRANCH  33  35
ENDBRANCH   1  33
TORSDOF 6
