REMARK  Name = ZINC53311433
REMARK  6 active torsions:
REMARK  status: ('A' for Active; 'I' for Inactive)
REMARK    1  A    between atoms: C_1  and  C_2
REMARK    2  A    between atoms: C_5  and  C_7
REMARK    3  A    between atoms: C_7  and  C_8
REMARK    4  A    between atoms: C_7  and  N_9
REMARK    5  A    between atoms: C_10  and  C_12
REMARK    6  A    between atoms: C_16  and  N_22
REMARK                            x       y       z     vdW  Elec       q    Type
REMARK                         _______ _______ _______ _____ _____    ______ ____
ROOT
ATOM      1  C   UNL     1       3.702  -5.387  -2.386  0.00  0.00    +0.103 A 
ATOM      2  C   UNL     1       4.137  -6.507  -3.019  0.00  0.00    +0.041 A 
ATOM      3  C   UNL     1       5.276  -6.156  -3.783  0.00  0.00    +0.003 A 
ATOM      4  C   UNL     1       6.131  -6.880  -4.625  0.00  0.00    +0.042 A 
ATOM      5  C   UNL     1       7.174  -6.249  -5.238  0.00  0.00    +0.127 A 
ATOM      6  C   UNL     1       7.398  -4.893  -5.036  0.00  0.00    +0.035 A 
ATOM      7  C   UNL     1       6.572  -4.160  -4.213  0.00  0.00    +0.028 A 
ATOM      8  C   UNL     1       5.501  -4.781  -3.577  0.00  0.00    +0.047 A 
ATOM      9  N   UNL     1       4.523  -4.328  -2.723  0.00  0.00    -0.351 N 
ATOM     10  H   UNL     1       4.427  -3.416  -2.408  0.00  0.00    +0.166 HD
ENDROOT
BRANCH   1  12
ATOM     11  N   UNL     1       2.201  -4.137  -0.921  0.00  0.00    -0.303 N 
ATOM     12  C   UNL     1       2.539  -5.311  -1.489  0.00  0.00    +0.261 C 
ATOM     13  O   UNL     1       1.882  -6.309  -1.259  0.00  0.00    -0.269 OA
ATOM     14  H   UNL     1       2.725  -3.341  -1.103  0.00  0.00    +0.150 HD
BRANCH  11  15
ATOM     15  C   UNL     1       1.043  -4.062  -0.027  0.00  0.00    +0.107 C 
ATOM     16  C   UNL     1       1.465  -4.458   1.389  0.00  0.00    +0.033 C 
BRANCH  15  21
ATOM     17  C   UNL     1      -0.018   1.503   0.010  0.00  0.00    +0.051 C 
ATOM     18  C   UNL     1       0.002  -0.004   0.002  0.00  0.00    -0.013 A 
ATOM     19  C   UNL     1      -1.039  -0.872   0.002  0.00  0.00    +0.011 A 
ATOM     20  C   UNL     1      -0.780  -2.230  -0.007  0.00  0.00    +0.013 A 
ATOM     21  C   UNL     1       0.507  -2.653  -0.016  0.00  0.00    +0.010 A 
ATOM     22  S   UNL     1       1.404  -1.109  -0.018  0.00  0.00    -0.097 S 
ENDBRANCH  15  21
ENDBRANCH  11  15
ENDBRANCH   1  12
BRANCH   5  23
ATOM     23  N   UNL     1       8.075  -7.017  -6.127  0.00  0.00    +0.056 N 
ATOM     24  O   UNL     1       7.885  -8.197  -6.306  0.00  0.00    -0.126 OA
ATOM     25  O   UNL     1       9.000  -6.463  -6.673  0.00  0.00    -0.126 OA
ENDBRANCH   5  23
TORSDOF 4
