REMARK  Name = ZINC39623337
REMARK  7 active torsions:
REMARK  status: ('A' for Active; 'I' for Inactive)
REMARK    1  A    between atoms: C_1  and  C_2
REMARK    2  A    between atoms: C_2  and  C_3
REMARK    3  A    between atoms: C_3  and  C_4
REMARK    4  A    between atoms: C_4  and  C_5
REMARK    5  A    between atoms: C_5  and  N_6
REMARK    6  A    between atoms: C_7  and  C_9
REMARK    7  A    between atoms: C_20  and  C_22
REMARK                            x       y       z     vdW  Elec       q    Type
REMARK                         _______ _______ _______ _____ _____    ______ ____
ROOT
ATOM      1  C   UNL     1      -3.823  -6.489  -0.014  0.00  0.00    +0.100 C 
ATOM      2  C   UNL     1      -3.095  -6.965   1.263  0.00  0.00    +0.121 C 
ATOM      3  N   UNL     1      -4.172  -7.139   2.265  0.00  0.00    -0.296 N 
ATOM      4  C   UNL     1      -5.297  -7.728   1.499  0.00  0.00    +0.115 C 
ATOM      5  C   UNL     1      -5.267  -6.995   0.143  0.00  0.00    -0.004 C 
ATOM      6  C   UNL     1      -6.239  -5.819   0.158  0.00  0.00    -0.010 C 
ATOM      7  C   UNL     1      -7.672  -6.350   0.258  0.00  0.00    -0.082 C 
ATOM      8  N   UNL     1      -7.952  -7.227  -0.885  0.00  0.00    +0.379 N 
ATOM      9  C   UNL     1      -7.074  -8.403  -0.841  0.00  0.00    -0.082 C 
ATOM     10  C   UNL     1      -5.615  -7.959  -0.987  0.00  0.00    -0.010 C 
ATOM     11  C   UNL     1      -4.138  -6.833   3.577  0.00  0.00    +0.247 C 
ATOM     12  O   UNL     1      -5.078  -7.118   4.293  0.00  0.00    -0.270 OA
ATOM     13  H   UNL     1      -8.914  -7.527  -0.850  0.00  0.00    -0.086 HD
ATOM     14  H   UNL     1      -7.791  -6.721  -1.743  0.00  0.00    -0.086 HD
ENDROOT
BRANCH  11  15
ATOM     15  C   UNL     1      -2.957  -6.150   4.145  0.00  0.00    +0.045 A 
ATOM     16  C   UNL     1      -1.672  -6.650   3.903  0.00  0.00    +0.014 A 
ATOM     17  C   UNL     1      -0.569  -6.016   4.431  0.00  0.00    +0.001 A 
ATOM     18  C   UNL     1      -0.719  -4.877   5.208  0.00  0.00    +0.012 A 
ATOM     19  C   UNL     1      -1.986  -4.364   5.461  0.00  0.00    +0.031 A 
ATOM     20  C   UNL     1      -3.118  -4.997   4.924  0.00  0.00    +0.006 A 
ATOM     21  C   UNL     1      -4.328  -4.244   5.340  0.00  0.00    -0.006 A 
ATOM     22  C   UNL     1      -5.678  -4.446   5.088  0.00  0.00    +0.009 A 
ATOM     23  C   UNL     1      -6.619  -3.572   5.610  0.00  0.00    +0.001 A 
ATOM     24  C   UNL     1      -6.224  -2.497   6.381  0.00  0.00    +0.001 A 
ATOM     25  C   UNL     1      -4.880  -2.281   6.642  0.00  0.00    +0.012 A 
ATOM     26  C   UNL     1      -3.927  -3.149   6.126  0.00  0.00    +0.030 A 
ATOM     27  C   UNL     1      -2.449  -3.190   6.238  0.00  0.00    +0.194 C 
ATOM     28  O   UNL     1      -1.749  -2.402   6.840  0.00  0.00    -0.287 OA
ENDBRANCH  11  15
BRANCH   1  30
ATOM     29  N   UNL     1      -3.808  -4.380  -1.306  0.00  0.00    -0.315 N 
ATOM     30  C   UNL     1      -3.800  -4.985  -0.102  0.00  0.00    +0.218 C 
ATOM     31  O   UNL     1      -3.774  -4.319   0.911  0.00  0.00    -0.275 OA
ATOM     32  H   UNL     1      -3.828  -4.913  -2.116  0.00  0.00    +0.149 HD
BRANCH  29  33
ATOM     33  C   UNL     1      -3.785  -2.918  -1.391  0.00  0.00    +0.104 C 
BRANCH  33  34
ATOM     34  C   UNL     1      -3.800  -2.492  -2.861  0.00  0.00    +0.019 C 
BRANCH  34  35
ATOM     35  C   UNL     1      -3.776  -0.965  -2.950  0.00  0.00    +0.001 C 
BRANCH  35  37
ATOM     36  C   UNL     1      -3.768   0.988  -4.508  0.00  0.00    +0.004 C 
ATOM     37  C   UNL     1      -3.791  -0.539  -4.419  0.00  0.00    -0.003 C 
ENDBRANCH  35  37
ENDBRANCH  34  35
ENDBRANCH  33  34
ENDBRANCH  29  33
ENDBRANCH   1  30
TORSDOF 6
