REMARK  Name = ZINC28166945
REMARK  3 active torsions:
REMARK  status: ('A' for Active; 'I' for Inactive)
REMARK    1  A    between atoms: C_11  and  N_15
REMARK    2  A    between atoms: C_13  and  N_14
REMARK    3  A    between atoms: C_18  and  C_20
REMARK                            x       y       z     vdW  Elec       q    Type
REMARK                         _______ _______ _______ _____ _____    ______ ____
ROOT
ATOM      1  C   UNL     1      -4.754   6.125  -0.218  0.00  0.00    +0.002 A 
ATOM      2  C   UNL     1      -3.972   7.291  -0.226  0.00  0.00    +0.002 A 
ATOM      3  C   UNL     1      -2.618   7.240  -0.205  0.00  0.00    +0.029 A 
ATOM      4  C   UNL     1      -1.964   5.981  -0.173  0.00  0.00    +0.086 A 
ATOM      5  C   UNL     1      -2.794   4.757  -0.165  0.00  0.00    +0.057 A 
ATOM      6  C   UNL     1      -4.191   4.887  -0.188  0.00  0.00    +0.025 A 
ATOM      7  N   UNL     1      -2.416   3.466  -0.137  0.00  0.00    -0.311 N 
ATOM      8  C   UNL     1      -1.160   2.975  -0.109  0.00  0.00    +0.062 A 
ATOM      9  C   UNL     1       0.107   3.722  -0.103  0.00  0.00    +0.026 A 
ATOM     10  C   UNL     1       1.312   3.016  -0.072  0.00  0.00    +0.044 A 
ATOM     11  C   UNL     1       1.294   1.639  -0.048  0.00  0.00    +0.129 A 
ATOM     12  C   UNL     1       0.102   0.923  -0.053  0.00  0.00    +0.057 A 
ATOM     13  C   UNL     1      -1.121   1.564  -0.088  0.00  0.00    +0.049 A 
ATOM     14  C   UNL     1       0.300   5.170  -0.126  0.00  0.00    +0.081 C 
ATOM     15  N   UNL     1      -0.650   6.117  -0.156  0.00  0.00    -0.245 NA
ATOM     16  H   UNL     1      -3.175   2.670  -0.135  0.00  0.00    +0.152 HD
ENDROOT
BRANCH  14  17
ATOM     17  C   UNL     1       1.694   5.643  -0.113  0.00  0.00    +0.001 A 
ATOM     18  C   UNL     1       2.358   5.844   1.104  0.00  0.00    +0.011 A 
ATOM     19  C   UNL     1       3.664   6.282   1.108  0.00  0.00    +0.016 A 
ATOM     20  C   UNL     1       4.318   6.534  -0.088  0.00  0.00    +0.018 A 
ATOM     21  C   UNL     1       3.666   6.343  -1.297  0.00  0.00    +0.016 A 
ATOM     22  C   UNL     1       2.361   5.900  -1.317  0.00  0.00    +0.011 A 
ATOM     23 BR   UNL     1       6.108   7.141  -0.072  0.00  0.00    -0.050 Br
ENDBRANCH  14  17
BRANCH  13  24
ATOM     24  N   UNL     1      -2.300   0.828  -0.097  0.00  0.00    -0.356 N 
ATOM     25  H   UNL     1      -2.262  -0.271  -0.081  0.00  0.00    +0.142 HD
ATOM     26  H   UNL     1      -3.271   1.345  -0.122  0.00  0.00    +0.142 HD
ENDBRANCH  13  24
BRANCH  11  27
ATOM     27  N   UNL     1       2.578   0.901  -0.016  0.00  0.00    +0.057 N 
ATOM     28  O   UNL     1       2.580  -0.415   0.008  0.00  0.00    -0.126 OA
ATOM     29  O   UNL     1       3.717   1.562  -0.011  0.00  0.00    -0.126 OA
ENDBRANCH  11  27
TORSDOF 3
