REMARK  Name = ZINC63374985
REMARK  13 active torsions:
REMARK  status: ('A' for Active; 'I' for Inactive)
REMARK    1  A    between atoms: C_1  and  C_2
REMARK    2  A    between atoms: C_2  and  O_3
REMARK    3  A    between atoms: O_3  and  C_4
REMARK    4  A    between atoms: C_5  and  C_12
REMARK    5  A    between atoms: C_9  and  O_10
REMARK    6  A    between atoms: O_10  and  C_11
REMARK    7  A    between atoms: N_19  and  C_34
REMARK    8  A    between atoms: C_22  and  C_33
REMARK    9  A    between atoms: C_34  and  C_35
REMARK   10  A    between atoms: C_35  and  C_36
REMARK   11  A    between atoms: C_36  and  C_37
REMARK   12  A    between atoms: C_37  and  C_38
REMARK   13  A    between atoms: C_38  and  O_39
REMARK                            x       y       z     vdW  Elec       q    Type
REMARK                         _______ _______ _______ _____ _____    ______ ____
ROOT
ATOM      1  C   UNL     1       2.948  -1.733  -0.088  0.00  0.00    +0.069 C 
ATOM      2  C   UNL     1       3.096  -2.286   1.341  0.00  0.00    +0.121 C 
ATOM      3  N   UNL     1       4.353  -1.786   1.929  0.00  0.00    -0.283 N 
ATOM      4  C   UNL     1       4.279  -1.071   3.058  0.00  0.00    +0.234 C 
ATOM      5  O   UNL     1       3.177  -0.855   3.514  0.00  0.00    -0.274 OA
ATOM      6  C   UNL     1       5.453  -0.519   3.796  0.00  0.00    +0.203 C 
ATOM      7  N   UNL     1       6.713  -0.854   3.153  0.00  0.00    -0.291 N 
ATOM      8  C   UNL     1       6.799  -1.554   2.023  0.00  0.00    +0.242 C 
ATOM      9  O   UNL     1       7.905  -1.776   1.579  0.00  0.00    -0.273 OA
ATOM     10  C   UNL     1       5.625  -2.084   1.269  0.00  0.00    +0.135 C 
ATOM     11  C   UNL     1       5.589  -1.478  -0.138  0.00  0.00    +0.139 C 
ATOM     12  C   UNL     1       4.278  -1.932  -0.771  0.00  0.00    -0.027 C 
ATOM     13  C   UNL     1       4.599  -2.496  -1.928  0.00  0.00    -0.000 A 
ATOM     14  C   UNL     1       3.770  -3.027  -3.023  0.00  0.00    +0.010 A 
ATOM     15  C   UNL     1       4.441  -3.567  -4.074  0.00  0.00    +0.001 A 
ATOM     16  C   UNL     1       5.836  -3.633  -4.146  0.00  0.00    +0.002 A 
ATOM     17  C   UNL     1       6.676  -3.161  -3.190  0.00  0.00    +0.026 A 
ATOM     18  C   UNL     1       6.088  -2.559  -2.039  0.00  0.00    +0.043 A 
ATOM     19  N   UNL     1       6.660  -1.994  -0.990  0.00  0.00    -0.375 N 
ATOM     20  C   UNL     1       5.769  -3.601   1.132  0.00  0.00    +0.044 C 
ATOM     21  H   UNL     1       7.611  -1.930  -0.809  0.00  0.00    +0.160 HD
ENDROOT
BRANCH   1  23
ATOM     22  C   UNL     1       0.777  -1.811  -1.336  0.00  0.00    +0.166 A 
ATOM     23  C   UNL     1       1.872  -2.488  -0.825  0.00  0.00    +0.007 A 
ATOM     24  C   UNL     1       1.978  -3.857  -0.990  0.00  0.00    +0.008 A 
ATOM     25  C   UNL     1       0.993  -4.552  -1.666  0.00  0.00    +0.004 A 
ATOM     26  C   UNL     1      -0.102  -3.883  -2.180  0.00  0.00    +0.049 A 
ATOM     27  C   UNL     1      -0.217  -2.512  -2.012  0.00  0.00    +0.162 A 
BRANCH  27  28
ATOM     28  O   UNL     1      -1.297  -1.853  -2.511  0.00  0.00    -0.491 OA
ATOM     29  C   UNL     1      -2.278  -2.637  -3.193  0.00  0.00    +0.277 C 
ENDBRANCH  27  28
BRANCH  22  30
ATOM     30  O   UNL     1       0.671  -0.465  -1.174  0.00  0.00    -0.488 OA
BRANCH  30  32
ATOM     31  C   UNL     1      -0.019   1.526   0.010  0.00  0.00    +0.048 C 
ATOM     32  C   UNL     1       0.002  -0.004   0.002  0.00  0.00    +0.226 C 
ENDBRANCH  30  32
ENDBRANCH  22  30
ENDBRANCH   1  23
BRANCH   7  33
ATOM     33  C   UNL     1       7.955  -0.396   3.781  0.00  0.00    +0.108 C 
BRANCH  33  34
ATOM     34  C   UNL     1       8.451  -1.459   4.763  0.00  0.00    +0.019 C 
BRANCH  34  35
ATOM     35  C   UNL     1       9.748  -0.981   5.419  0.00  0.00    +0.004 C 
BRANCH  35  36
ATOM     36  C   UNL     1      10.245  -2.044   6.401  0.00  0.00    +0.028 C 
BRANCH  36  37
ATOM     37  C   UNL     1      11.541  -1.567   7.057  0.00  0.00    +0.156 C 
BRANCH  37  38
ATOM     38  O   UNL     1      12.005  -2.559   7.974  0.00  0.00    -0.395 OA
ATOM     39  H   UNL     1      12.826  -2.323   8.428  0.00  0.00    +0.209 HD
ENDBRANCH  37  38
ENDBRANCH  36  37
ENDBRANCH  35  36
ENDBRANCH  34  35
ENDBRANCH  33  34
ENDBRANCH   7  33
TORSDOF 10
