REMARK  Name = ZINC44945859
REMARK  8 active torsions:
REMARK  status: ('A' for Active; 'I' for Inactive)
REMARK    1  A    between atoms: C_1  and  C_2
REMARK    2  A    between atoms: C_3  and  C_30
REMARK    3  A    between atoms: N_5  and  C_8
REMARK    4  A    between atoms: C_6  and  C_7
REMARK    5  A    between atoms: C_11  and  C_14
REMARK    6  A    between atoms: N_16  and  C_17
REMARK    7  A    between atoms: C_17  and  C_19
REMARK    8  A    between atoms: C_17  and  C_20
REMARK                            x       y       z     vdW  Elec       q    Type
REMARK                         _______ _______ _______ _____ _____    ______ ____
ROOT
ATOM      1  C   UNL     1      -0.112  -6.618   4.152  0.00  0.00    +0.245 C 
ATOM      2  O   UNL     1       0.529  -6.688   5.183  0.00  0.00    -0.270 OA
ATOM      3  N   UNL     1      -0.737  -7.711   3.671  0.00  0.00    -0.305 N 
ATOM      4  H   UNL     1      -1.248  -7.655   2.849  0.00  0.00    +0.150 HD
ENDROOT
BRANCH   1   8
ATOM      5  C   UNL     1      -0.382  -2.928   2.066  0.00  0.00    +0.066 A 
ATOM      6  C   UNL     1       0.351  -3.006   3.245  0.00  0.00    +0.028 A 
ATOM      7  C   UNL     1       0.441  -4.200   3.924  0.00  0.00    +0.015 A 
ATOM      8  C   UNL     1      -0.206  -5.335   3.427  0.00  0.00    +0.037 A 
ATOM      9  C   UNL     1      -0.942  -5.252   2.242  0.00  0.00    +0.015 A 
ATOM     10  C   UNL     1      -1.031  -4.053   1.571  0.00  0.00    +0.028 A 
BRANCH   5  15
ATOM     11  C   UNL     1       0.821   1.419   0.011  0.00  0.00    +0.047 C 
ATOM     12  C   UNL     1       0.048   0.208   0.467  0.00  0.00    -0.007 A 
ATOM     13  C   UNL     1      -1.311  -0.035   0.238  0.00  0.00    +0.064 A 
ATOM     14  N   UNL     1      -1.622  -1.183   0.782  0.00  0.00    -0.171 NA
ATOM     15  N   UNL     1      -0.470  -1.713   1.379  0.00  0.00    -0.236 N 
ATOM     16  C   UNL     1       0.547  -0.838   1.165  0.00  0.00    +0.045 A 
ATOM     17  C   UNL     1       1.973  -1.002   1.626  0.00  0.00    +0.066 C 
ATOM     18  C   UNL     1      -2.255   0.871  -0.508  0.00  0.00    +0.068 C 
ENDBRANCH   5  15
ENDBRANCH   1   8
BRANCH   3  19
ATOM     19  C   UNL     1      -0.643  -8.984   4.390  0.00  0.00    +0.101 C 
ATOM     20  C   UNL     1       0.611  -9.735   3.938  0.00  0.00    +0.033 C 
BRANCH  19  21
ATOM     21  C   UNL     1      -1.863  -9.818   4.095  0.00  0.00    -0.020 A 
ATOM     22  C   UNL     1      -2.539  -9.651   2.926  0.00  0.00    +0.006 A 
ATOM     23  C   UNL     1      -3.669 -10.413   2.635  0.00  0.00    +0.001 A 
ATOM     24  C   UNL     1      -4.129 -11.347   3.513  0.00  0.00    +0.008 A 
ATOM     25  C   UNL     1      -3.457 -11.548   4.730  0.00  0.00    -0.018 A 
ATOM     26  C   UNL     1      -2.304 -10.777   5.023  0.00  0.00    -0.013 A 
ATOM     27  C   UNL     1      -1.628 -10.982   6.238  0.00  0.00    +0.009 A 
ATOM     28  C   UNL     1      -2.084 -11.920   7.112  0.00  0.00    +0.001 A 
ATOM     29  C   UNL     1      -3.214 -12.683   6.821  0.00  0.00    +0.001 A 
ATOM     30  C   UNL     1      -3.902 -12.502   5.661  0.00  0.00    +0.008 A 
ENDBRANCH  19  21
ENDBRANCH   3  19
TORSDOF 4
