REMARK  Name = ZINC12660198
REMARK  8 active torsions:
REMARK  status: ('A' for Active; 'I' for Inactive)
REMARK    1  A    between atoms: C_1  and  C_2
REMARK    2  A    between atoms: C_5  and  N_9
REMARK    3  A    between atoms: C_6  and  C_8
REMARK    4  A    between atoms: N_9  and  S_10
REMARK    5  A    between atoms: S_10  and  C_13
REMARK    6  A    between atoms: C_15  and  N_31
REMARK    7  A    between atoms: C_18  and  N_19
REMARK    8  A    between atoms: N_19  and  N_20
REMARK                            x       y       z     vdW  Elec       q    Type
REMARK                         _______ _______ _______ _____ _____    ______ ____
ROOT
ATOM      1  C   UNL     1      -1.207  -1.531   0.105  0.00  0.00    +0.133 A 
ATOM      2  C   UNL     1      -2.559  -1.775   0.250  0.00  0.00    +0.063 A 
ATOM      3  C   UNL     1      -3.472  -0.755   0.053  0.00  0.00    +0.128 A 
ATOM      4  C   UNL     1      -3.035   0.514  -0.283  0.00  0.00    +0.035 A 
ATOM      5  C   UNL     1      -1.685   0.766  -0.424  0.00  0.00    +0.029 A 
ATOM      6  C   UNL     1      -0.764  -0.256  -0.227  0.00  0.00    +0.075 A 
ENDROOT
BRANCH   1   7
ATOM      7  S   UNL     1      -0.045  -2.833   0.348  0.00  0.00    +0.074 S 
ATOM      8  O   UNL     1       0.915  -2.352   1.279  0.00  0.00    -0.150 OA
ATOM      9  O   UNL     1      -0.801  -4.015   0.575  0.00  0.00    -0.150 OA
BRANCH   7  10
ATOM     10  N   UNL     1       0.754  -3.050  -1.086  0.00  0.00    -0.216 N 
ATOM     11  H   UNL     1       1.697  -2.835  -1.154  0.00  0.00    +0.174 HD
BRANCH  10  16
ATOM     12  C   UNL     1      -2.027  -5.050  -5.606  0.00  0.00    +0.044 C 
ATOM     13  C   UNL     1      -1.288  -4.519  -4.405  0.00  0.00    -0.050 A 
ATOM     14  C   UNL     1      -1.962  -3.774  -3.454  0.00  0.00    +0.005 A 
ATOM     15  C   UNL     1      -1.288  -3.285  -2.353  0.00  0.00    +0.025 A 
ATOM     16  C   UNL     1       0.069  -3.543  -2.199  0.00  0.00    +0.051 A 
ATOM     17  C   UNL     1       0.743  -4.288  -3.158  0.00  0.00    -0.028 A 
ATOM     18  C   UNL     1       0.062  -4.778  -4.255  0.00  0.00    +0.008 A 
ATOM     19  C   UNL     1       2.216  -4.565  -2.999  0.00  0.00    +0.046 C 
ENDBRANCH  10  16
ENDBRANCH   7  10
ENDBRANCH   1   7
BRANCH   3  20
ATOM     20  N   UNL     1      -4.920  -1.022   0.203  0.00  0.00    +0.056 N 
ATOM     21  O   UNL     1      -5.726  -0.125   0.030  0.00  0.00    -0.126 OA
ATOM     22  O   UNL     1      -5.306  -2.139   0.499  0.00  0.00    -0.126 OA
ENDBRANCH   3  20
BRANCH   6  23
ATOM     23  N   UNL     1       0.601  -0.005  -0.368  0.00  0.00    -0.236 N 
ATOM     24  H   UNL     1       1.240  -0.728  -0.268  0.00  0.00    +0.174 HD
BRANCH  23  25
ATOM     25  N   UNL     1       1.048   1.291  -0.655  0.00  0.00    -0.186 NA
ATOM     26  C   UNL     1       2.320   1.550  -0.670  0.00  0.00    +0.067 C 
ATOM     27  C   UNL     1       2.869   2.745  -1.423  0.00  0.00    +0.058 C 
ATOM     28  C   UNL     1       4.137   2.291  -2.149  0.00  0.00    +0.011 C 
ATOM     29  C   UNL     1       5.191   1.878  -1.125  0.00  0.00    +0.036 C 
ATOM     30  C   UNL     1       4.655   0.838  -0.180  0.00  0.00    -0.038 A 
ATOM     31  C   UNL     1       3.286   0.686   0.042  0.00  0.00    +0.001 A 
ATOM     32  C   UNL     1       2.822  -0.281   0.935  0.00  0.00    +0.010 A 
ATOM     33  C   UNL     1       3.722  -1.091   1.596  0.00  0.00    +0.001 A 
ATOM     34  C   UNL     1       5.080  -0.943   1.372  0.00  0.00    +0.000 A 
ATOM     35  C   UNL     1       5.543   0.016   0.490  0.00  0.00    +0.004 A 
ENDBRANCH  23  25
ENDBRANCH   6  23
TORSDOF 6
