REMARK  Name = ZINC36304072
REMARK  14 active torsions:
REMARK  status: ('A' for Active; 'I' for Inactive)
REMARK    1  A    between atoms: C_1  and  C_2
REMARK    2  A    between atoms: C_3  and  C_22
REMARK    3  A    between atoms: C_4  and  O_13
REMARK    4  A    between atoms: N_5  and  C_7
REMARK    5  A    between atoms: O_13  and  C_14
REMARK    6  A    between atoms: C_22  and  N_23
REMARK    7  A    between atoms: N_23  and  C_24
REMARK    8  A    between atoms: N_23  and  C_30
REMARK    9  A    between atoms: C_24  and  C_25
REMARK   10  A    between atoms: C_30  and  C_31
REMARK   11  A    between atoms: C_31  and  C_33
REMARK   12  A    between atoms: C_31  and  O_37
REMARK   13  A    between atoms: C_33  and  C_34
REMARK   14  A    between atoms: C_34  and  C_35
REMARK                            x       y       z     vdW  Elec       q    Type
REMARK                         _______ _______ _______ _____ _____    ______ ____
ROOT
ATOM      1  C   UNL     1       0.906   1.318   0.174  0.00  0.00    +0.068 C 
ATOM      2  C   UNL     1       0.502  -0.130   0.065  0.00  0.00    +0.065 A 
ATOM      3  C   UNL     1       0.129  -0.788  -1.111  0.00  0.00    +0.021 A 
ATOM      4  C   UNL     1      -0.161  -2.078  -0.794  0.00  0.00    +0.225 A 
ATOM      5  N   UNL     1       0.026  -2.221   0.546  0.00  0.00    -0.200 N 
ATOM      6  N   UNL     1       0.446  -0.985   1.054  0.00  0.00    -0.168 NA
ENDROOT
BRANCH   5   7
ATOM      7  C   UNL     1      -0.162  -3.397   1.285  0.00  0.00    +0.069 A 
ATOM      8  C   UNL     1      -1.273  -4.195   1.051  0.00  0.00    +0.028 A 
ATOM      9  C   UNL     1      -1.456  -5.353   1.781  0.00  0.00    +0.002 A 
ATOM     10  C   UNL     1      -0.533  -5.718   2.744  0.00  0.00    +0.000 A 
ATOM     11  C   UNL     1       0.575  -4.925   2.979  0.00  0.00    +0.002 A 
ATOM     12  C   UNL     1       0.766  -3.768   2.249  0.00  0.00    +0.028 A 
ENDBRANCH   5   7
BRANCH   4  13
ATOM     13  O   UNL     1      -0.564  -3.046  -1.656  0.00  0.00    -0.435 OA
BRANCH  13  14
ATOM     14  C   UNL     1      -1.893  -3.150  -1.922  0.00  0.00    +0.166 A 
ATOM     15  C   UNL     1      -2.780  -2.216  -1.409  0.00  0.00    +0.052 A 
ATOM     16  C   UNL     1      -4.130  -2.324  -1.680  0.00  0.00    +0.042 A 
ATOM     17  C   UNL     1      -4.600  -3.363  -2.465  0.00  0.00    +0.126 A 
ATOM     18  C   UNL     1      -3.717  -4.298  -2.979  0.00  0.00    +0.080 A 
ATOM     19  C   UNL     1      -2.364  -4.190  -2.714  0.00  0.00    +0.168 A 
ATOM     20  F   UNL     1      -1.501  -5.099  -3.220  0.00  0.00    -0.202 F 
ATOM     21  F   UNL     1      -5.921  -3.466  -2.728  0.00  0.00    -0.205 F 
ENDBRANCH  13  14
ENDBRANCH   4  13
BRANCH   3  22
ATOM     22  C   UNL     1       0.059  -0.176  -2.486  0.00  0.00    -0.035 C 
BRANCH  22  23
ATOM     23  N   UNL     1       1.397  -0.181  -3.093  0.00  0.00    +0.389 N 
ATOM     24  H   UNL     1       2.050   0.273  -2.472  0.00  0.00    -0.081 HD
BRANCH  23  25
ATOM     25  C   UNL     1       1.358   0.538  -4.373  0.00  0.00    -0.003 C 
BRANCH  25  26
ATOM     26  C   UNL     1       1.052   1.992  -4.123  0.00  0.00    +0.089 A 
ATOM     27  C   UNL     1       1.961   2.971  -3.965  0.00  0.00    +0.042 A 
ATOM     28  C   UNL     1       1.240   4.169  -3.755  0.00  0.00    +0.041 A 
ATOM     29  C   UNL     1      -0.066   3.850  -3.797  0.00  0.00    +0.195 A 
ATOM     30  O   UNL     1      -0.174   2.532  -4.027  0.00  0.00    -0.470 OA
ENDBRANCH  25  26
ENDBRANCH  23  25
BRANCH  23  31
ATOM     31  C   UNL     1       1.825  -1.568  -3.323  0.00  0.00    -0.046 C 
BRANCH  31  32
ATOM     32  C   UNL     1       3.265  -1.579  -3.838  0.00  0.00    +0.098 C 
BRANCH  32  33
ATOM     33  O   UNL     1       4.138  -1.078  -2.824  0.00  0.00    -0.394 OA
ATOM     34  H   UNL     1       4.124  -1.591  -2.004  0.00  0.00    +0.210 HD
ENDBRANCH  32  33
BRANCH  32  35
ATOM     35  C   UNL     1       3.668  -3.011  -4.196  0.00  0.00    +0.033 C 
BRANCH  35  36
ATOM     36  C   UNL     1       5.062  -3.006  -4.827  0.00  0.00    +0.029 C 
BRANCH  36  37
ATOM     37  C   UNL     1       5.459  -4.417  -5.179  0.00  0.00    -0.034 C 
ATOM     38  C   UNL     1       5.818  -4.709  -6.405  0.00  0.00    +0.004 C 
ENDBRANCH  36  37
ENDBRANCH  35  36
ENDBRANCH  32  35
ENDBRANCH  31  32
ENDBRANCH  23  31
ENDBRANCH  22  23
ENDBRANCH   3  22
TORSDOF 13
