REMARK  Name = ZINC02331022
REMARK  7 active torsions:
REMARK  status: ('A' for Active; 'I' for Inactive)
REMARK    1  A    between atoms: C_1  and  C_2
REMARK    2  A    between atoms: C_20  and  C_30
REMARK    3  A    between atoms: C_20  and  C_31
REMARK    4  A    between atoms: C_22  and  C_23
REMARK    5  A    between atoms: C_22  and  C_24
REMARK    6  A    between atoms: C_32  and  C_36
REMARK    7  A    between atoms: C_33  and  N_35
REMARK                            x       y       z     vdW  Elec       q    Type
REMARK                         _______ _______ _______ _____ _____    ______ ____
ROOT
ATOM      1  C   UNL     1       0.050   0.291  -1.354  0.00  0.00    +0.008 C 
ATOM      2  C   UNL     1      -0.691   0.936  -0.180  0.00  0.00    +0.001 C 
ATOM      3  C   UNL     1       0.054   0.640   1.123  0.00  0.00    +0.078 C 
ATOM      4  C   UNL     1      -0.655   1.310   2.276  0.00  0.00    +0.116 C 
ATOM      5  C   UNL     1      -1.324   2.464   2.094  0.00  0.00    +0.058 C 
ATOM      6  C   UNL     1      -1.392   3.079   0.829  0.00  0.00    +0.164 C 
ATOM      7  O   UNL     1      -1.986   4.131   0.709  0.00  0.00    -0.292 OA
ATOM      8  C   UNL     1      -0.742   2.455  -0.376  0.00  0.00    +0.083 C 
ATOM      9  C   UNL     1      -2.023   3.128   3.252  0.00  0.00    +0.144 C 
ATOM     10  C   UNL     1      -1.266   4.331   3.715  0.00  0.00    -0.001 A 
ATOM     11  C   UNL     1      -0.010   4.537   4.242  0.00  0.00    +0.007 A 
ATOM     12  C   UNL     1       0.337   5.849   4.559  0.00  0.00    +0.001 A 
ATOM     13  C   UNL     1      -0.527   6.916   4.361  0.00  0.00    +0.006 A 
ATOM     14  C   UNL     1      -1.781   6.715   3.835  0.00  0.00    -0.015 A 
ATOM     15  C   UNL     1      -2.127   5.401   3.519  0.00  0.00    +0.046 A 
ATOM     16  N   UNL     1      -3.348   5.002   2.981  0.00  0.00    -0.264 N 
ATOM     17  C   UNL     1      -3.365   3.674   2.789  0.00  0.00    +0.241 C 
ATOM     18  O   UNL     1      -4.282   3.027   2.329  0.00  0.00    -0.273 OA
ATOM     19  C   UNL     1      -4.399   5.998   2.707  0.00  0.00    +0.038 C 
ATOM     20  C   UNL     1      -4.212   7.176   3.671  0.00  0.00    +0.041 C 
ATOM     21  C   UNL     1      -2.806   7.777   3.569  0.00  0.00    +0.022 C 
ATOM     22  C   UNL     1      -2.597   8.345   2.164  0.00  0.00    +0.021 C 
ATOM     23  C   UNL     1      -4.279   6.490   1.263  0.00  0.00    +0.032 C 
ATOM     24  C   UNL     1      -5.776   5.367   2.924  0.00  0.00    +0.032 C 
ATOM     25  C   UNL     1      -2.232   2.154   4.374  0.00  0.00    +0.110 C 
ATOM     26  C   UNL     1      -1.506   1.009   4.424  0.00  0.00    +0.199 C 
ATOM     27  O   UNL     1      -0.590   0.722   3.486  0.00  0.00    -0.445 OA
ENDROOT
BRANCH  21  28
ATOM     28  C   UNL     1      -2.659   8.882   4.583  0.00  0.00    -0.037 A 
ATOM     29  C   UNL     1      -2.685   8.588   5.934  0.00  0.00    +0.004 A 
ATOM     30  C   UNL     1      -2.544   9.600   6.865  0.00  0.00    +0.000 A 
ATOM     31  C   UNL     1      -2.388  10.908   6.445  0.00  0.00    +0.000 A 
ATOM     32  C   UNL     1      -2.368  11.203   5.095  0.00  0.00    +0.000 A 
ATOM     33  C   UNL     1      -2.503  10.190   4.164  0.00  0.00    +0.004 A 
ENDBRANCH  21  28
BRANCH  26  34
ATOM     34  N   UNL     1      -1.714   0.125   5.453  0.00  0.00    -0.328 N 
ATOM     35  H   UNL     1      -2.374   0.322   6.136  0.00  0.00    +0.145 HD
ATOM     36  H   UNL     1      -1.201  -0.697   5.498  0.00  0.00    +0.145 HD
ENDBRANCH  26  34
BRANCH  25  37
ATOM     37  C   UNL     1      -3.196   2.434   5.394  0.00  0.00    +0.102 C 
ATOM     38  N   UNL     1      -3.962   2.656   6.204  0.00  0.00    -0.191 NA
ENDBRANCH  25  37
TORSDOF 3
