REMARK  Name = ZINC38885474
REMARK  7 active torsions:
REMARK  status: ('A' for Active; 'I' for Inactive)
REMARK    1  A    between atoms: C_1  and  C_2
REMARK    2  A    between atoms: C_2  and  C_35
REMARK    3  A    between atoms: C_4  and  N_13
REMARK    4  A    between atoms: C_14  and  C_16
REMARK    5  A    between atoms: N_21  and  C_23
REMARK    6  A    between atoms: C_23  and  C_24
REMARK    7  A    between atoms: C_26  and  C_29
REMARK                            x       y       z     vdW  Elec       q    Type
REMARK                         _______ _______ _______ _____ _____    ______ ____
ROOT
ATOM      1  C   UNL     1      -5.722  -0.730   2.352  0.00  0.00    +0.058 C 
ATOM      2  C   UNL     1      -6.333  -1.127   1.004  0.00  0.00    +0.009 C 
ATOM      3  C   UNL     1      -7.694  -1.787   1.247  0.00  0.00    -0.018 C 
ATOM      4  C   UNL     1      -8.590  -0.823   2.028  0.00  0.00    -0.078 C 
ATOM      5  N   UNL     1      -7.963  -0.503   3.317  0.00  0.00    +0.386 N 
ATOM      6  C   UNL     1      -6.691   0.194   3.093  0.00  0.00    -0.065 C 
ATOM      7  H   UNL     1      -7.793  -1.356   3.828  0.00  0.00    -0.081 HD
ENDROOT
BRANCH   1   9
ATOM      8  N   UNL     1      -3.410  -0.634   1.479  0.00  0.00    -0.308 N 
ATOM      9  C   UNL     1      -4.418  -0.011   2.120  0.00  0.00    +0.215 C 
ATOM     10  O   UNL     1      -4.277   1.128   2.512  0.00  0.00    -0.276 OA
ATOM     11  H   UNL     1      -3.523  -1.545   1.166  0.00  0.00    +0.149 HD
BRANCH   8  15
ATOM     12  C   UNL     1      -0.019   1.526   0.010  0.00  0.00    +0.055 C 
ATOM     13  C   UNL     1       0.002  -0.004   0.002  0.00  0.00    +0.107 C 
ATOM     14  C   UNL     1      -1.435  -0.540   0.040  0.00  0.00    +0.074 C 
ATOM     15  C   UNL     1      -2.142   0.066   1.254  0.00  0.00    +0.110 C 
ATOM     16  C   UNL     1      -1.268  -0.077   2.474  0.00  0.00    +0.015 A 
ATOM     17  C   UNL     1      -1.846   0.054   3.727  0.00  0.00    +0.009 A 
ATOM     18  C   UNL     1      -1.075  -0.067   4.866  0.00  0.00    +0.001 A 
ATOM     19  C   UNL     1       0.281  -0.320   4.759  0.00  0.00    +0.004 A 
ATOM     20  C   UNL     1       0.861  -0.454   3.515  0.00  0.00    +0.046 A 
ATOM     21  C   UNL     1       0.087  -0.334   2.365  0.00  0.00    +0.126 A 
ATOM     22  O   UNL     1       0.692  -0.482   1.158  0.00  0.00    -0.486 OA
ATOM     23  C   UNL     1       0.706  -0.503  -1.262  0.00  0.00    +0.055 C 
ENDBRANCH   8  15
ENDBRANCH   1   9
BRANCH   5  24
ATOM     24  C   UNL     1      -8.862   0.359   4.095  0.00  0.00    +0.022 C 
BRANCH  24  25
ATOM     25  C   UNL     1     -10.116  -0.403   4.439  0.00  0.00    +0.211 A 
ATOM     26  N   UNL     1     -10.301  -1.121   5.510  0.00  0.00    -0.193 NA
ATOM     27  C   UNL     1     -11.533  -1.660   5.496  0.00  0.00    +0.202 A 
ATOM     28  N   UNL     1     -12.144  -1.280   4.401  0.00  0.00    -0.056 NA
ATOM     29  O   UNL     1     -11.231  -0.450   3.699  0.00  0.00    -0.340 OA
BRANCH  27  30
ATOM     30  C   UNL     1     -12.105  -2.539   6.546  0.00  0.00    +0.022 A 
ATOM     31  C   UNL     1     -11.351  -2.867   7.671  0.00  0.00    +0.012 A 
ATOM     32  C   UNL     1     -11.888  -3.685   8.644  0.00  0.00    +0.001 A 
ATOM     33  C   UNL     1     -13.172  -4.180   8.504  0.00  0.00    +0.000 A 
ATOM     34  C   UNL     1     -13.925  -3.857   7.390  0.00  0.00    +0.001 A 
ATOM     35  C   UNL     1     -13.400  -3.035   6.413  0.00  0.00    +0.012 A 
ENDBRANCH  27  30
ENDBRANCH  24  25
ENDBRANCH   5  24
TORSDOF 5
