REMARK  Name = ZINC39362784
REMARK  7 active torsions:
REMARK  status: ('A' for Active; 'I' for Inactive)
REMARK    1  A    between atoms: C_6  and  N_7
REMARK    2  A    between atoms: C_8  and  C_26
REMARK    3  A    between atoms: C_12  and  S_13
REMARK    4  A    between atoms: S_13  and  C_14
REMARK    5  A    between atoms: C_14  and  C_15
REMARK    6  A    between atoms: N_17  and  C_18
REMARK    7  A    between atoms: C_26  and  C_27
REMARK                            x       y       z     vdW  Elec       q    Type
REMARK                         _______ _______ _______ _____ _____    ______ ____
ROOT
ATOM      1  N   UNL     1      -1.211  -0.720  -0.091  0.00  0.00    -0.258 N 
ATOM      2  C   UNL     1      -1.368  -2.180  -0.200  0.00  0.00    +0.187 C 
ATOM      3  N   UNL     1      -2.824  -2.387  -0.119  0.00  0.00    -0.246 N 
ATOM      4  N   UNL     1      -3.391  -1.115   0.024  0.00  0.00    -0.162 NA
ATOM      5  C   UNL     1      -2.488  -0.194   0.044  0.00  0.00    +0.180 C 
ATOM      6  H   UNL     1      -3.295  -3.234  -0.158  0.00  0.00    +0.170 HD
ENDROOT
BRANCH   1  12
ATOM      7  C   UNL     1       0.256   0.878  -1.152  0.00  0.00    +0.026 A 
ATOM      8  C   UNL     1       1.442   1.585  -1.171  0.00  0.00    +0.040 A 
ATOM      9  C   UNL     1       2.367   1.414  -0.154  0.00  0.00    +0.124 A 
ATOM     10  C   UNL     1       2.105   0.535   0.883  0.00  0.00    +0.040 A 
ATOM     11  C   UNL     1       0.919  -0.174   0.906  0.00  0.00    +0.026 A 
ATOM     12  C   UNL     1      -0.010  -0.004  -0.112  0.00  0.00    +0.038 A 
ATOM     13  F   UNL     1       3.527   2.106  -0.175  0.00  0.00    -0.205 F 
ENDBRANCH   1  12
BRANCH   5  14
ATOM     14  S   UNL     1      -2.835   1.525   0.218  0.00  0.00    -0.079 S 
BRANCH  14  15
ATOM     15  C   UNL     1      -4.642   1.597   0.350  0.00  0.00    +0.173 C 
BRANCH  15  16
ATOM     16  C   UNL     1      -5.078   3.031   0.506  0.00  0.00    +0.228 C 
ATOM     17  O   UNL     1      -4.250   3.917   0.525  0.00  0.00    -0.275 OA
ATOM     18  N   UNL     1      -6.387   3.329   0.623  0.00  0.00    -0.283 N 
ATOM     19  H   UNL     1      -7.042   2.617   0.690  0.00  0.00    +0.155 HD
BRANCH  18  20
ATOM     20  C   UNL     1      -6.802   4.667   0.647  0.00  0.00    +0.069 A 
ATOM     21  C   UNL     1      -6.122   5.620  -0.099  0.00  0.00    +0.029 A 
ATOM     22  C   UNL     1      -6.532   6.938  -0.073  0.00  0.00    +0.040 A 
ATOM     23  C   UNL     1      -7.621   7.312   0.696  0.00  0.00    +0.126 A 
ATOM     24  C   UNL     1      -8.302   6.365   1.442  0.00  0.00    +0.078 A 
ATOM     25  C   UNL     1      -7.899   5.042   1.415  0.00  0.00    +0.147 A 
ATOM     26  F   UNL     1      -8.566   4.117   2.138  0.00  0.00    -0.203 F 
ATOM     27  F   UNL     1      -8.020   8.603   0.719  0.00  0.00    -0.205 F 
ENDBRANCH  18  20
ENDBRANCH  15  16
ENDBRANCH  14  15
ENDBRANCH   5  14
BRANCH   2  28
ATOM     28  C   UNL     1      -0.826  -2.679  -1.541  0.00  0.00    +0.097 C 
BRANCH  28  29
ATOM     29  C   UNL     1      -0.997  -4.174  -1.628  0.00  0.00    +0.029 A 
ATOM     30  N   UNL     1      -0.058  -5.006  -1.083  0.00  0.00    -0.311 N 
ATOM     31  C   UNL     1      -0.203  -6.342  -1.155  0.00  0.00    +0.327 A 
ATOM     32  O   UNL     1       0.644  -7.064  -0.664  0.00  0.00    -0.247 OA
ATOM     33  N   UNL     1      -1.271  -6.891  -1.762  0.00  0.00    -0.275 N 
ATOM     34  C   UNL     1      -2.219  -6.104  -2.312  0.00  0.00    +0.254 A 
ATOM     35  O   UNL     1      -3.186  -6.600  -2.861  0.00  0.00    -0.268 OA
ATOM     36  C   UNL     1      -2.082  -4.697  -2.239  0.00  0.00    +0.091 A 
ATOM     37  H   UNL     1      -1.360  -7.856  -1.805  0.00  0.00    +0.173 HD
ATOM     38  H   UNL     1       0.719  -4.630  -0.641  0.00  0.00    +0.170 HD
ENDBRANCH  28  29
ENDBRANCH   2  28
TORSDOF 7
