REMARK  Name = ZINC39687123
REMARK  8 active torsions:
REMARK  status: ('A' for Active; 'I' for Inactive)
REMARK    1  A    between atoms: C_1  and  C_2
REMARK    2  A    between atoms: C_4  and  C_11
REMARK    3  A    between atoms: C_5  and  C_7
REMARK    4  A    between atoms: C_15  and  C_24
REMARK    5  A    between atoms: N_26  and  C_27
REMARK    6  A    between atoms: C_27  and  C_29
REMARK    7  A    between atoms: C_27  and  C_30
REMARK    8  A    between atoms: C_30  and  C_31
REMARK                            x       y       z     vdW  Elec       q    Type
REMARK                         _______ _______ _______ _____ _____    ______ ____
ROOT
ATOM      1  C   UNL     1      -0.893  -3.201  -0.274  0.00  0.00    +0.250 C 
ATOM      2  O   UNL     1      -0.349  -4.289  -0.251  0.00  0.00    -0.270 OA
ATOM      3  N   UNL     1      -2.230  -3.113  -0.124  0.00  0.00    -0.296 N 
ATOM      4  C   UNL     1      -3.081  -1.907  -0.260  0.00  0.00    +0.121 C 
ATOM      5  C   UNL     1      -4.357  -2.409  -0.973  0.00  0.00    +0.100 C 
ATOM      6  C   UNL     1      -4.417  -3.913  -0.658  0.00  0.00    -0.004 C 
ATOM      7  C   UNL     1      -3.181  -4.201   0.206  0.00  0.00    +0.115 C 
ATOM      8  C   UNL     1      -4.354  -4.726  -1.947  0.00  0.00    -0.010 C 
ATOM      9  C   UNL     1      -4.473  -6.215  -1.612  0.00  0.00    -0.082 C 
ATOM     10  N   UNL     1      -5.742  -6.462  -0.916  0.00  0.00    +0.379 N 
ATOM     11  C   UNL     1      -5.757  -5.749   0.367  0.00  0.00    -0.082 C 
ATOM     12  C   UNL     1      -5.691  -4.240   0.116  0.00  0.00    -0.010 C 
ATOM     13  H   UNL     1      -6.507  -6.137  -1.489  0.00  0.00    -0.086 HD
ATOM     14  H   UNL     1      -5.846  -7.452  -0.751  0.00  0.00    -0.086 HD
ENDROOT
BRANCH   1  18
ATOM     15  C   UNL     1       0.532   1.682  -0.655  0.00  0.00    +0.086 C 
ATOM     16  C   UNL     1       0.518   0.176  -0.629  0.00  0.00    +0.103 A 
ATOM     17  C   UNL     1      -0.557  -0.589  -0.386  0.00  0.00    +0.058 A 
ATOM     18  C   UNL     1      -0.090  -1.980  -0.466  0.00  0.00    +0.087 A 
ATOM     19  C   UNL     1       1.241  -1.905  -0.754  0.00  0.00    +0.220 A 
ATOM     20  O   UNL     1       1.579  -0.616  -0.852  0.00  0.00    -0.455 OA
BRANCH  19  21
ATOM     21  C   UNL     1       2.170  -3.077  -0.938  0.00  0.00    +0.451 C 
ATOM     22  F   UNL     1       2.179  -3.459  -2.284  0.00  0.00    -0.163 F 
ATOM     23  F   UNL     1       3.463  -2.712  -0.548  0.00  0.00    -0.163 F 
ATOM     24  F   UNL     1       1.731  -4.148  -0.152  0.00  0.00    -0.163 F 
ENDBRANCH  19  21
ENDBRANCH   1  18
BRANCH   5  25
ATOM     25  C   UNL     1      -4.249  -2.186  -2.459  0.00  0.00    +0.218 C 
ATOM     26  O   UNL     1      -3.158  -2.122  -2.986  0.00  0.00    -0.275 OA
ATOM     27  N   UNL     1      -5.365  -2.057  -3.204  0.00  0.00    -0.312 N 
ATOM     28  H   UNL     1      -6.235  -2.035  -2.775  0.00  0.00    +0.149 HD
BRANCH  27  29
ATOM     29  C   UNL     1      -5.265  -1.949  -4.662  0.00  0.00    +0.074 C 
ATOM     30  C   UNL     1      -5.305  -3.347  -5.280  0.00  0.00    +0.028 C 
BRANCH  29  31
ATOM     31  C   UNL     1      -6.437  -1.121  -5.194  0.00  0.00    +0.060 C 
BRANCH  31  32
ATOM     32  C   UNL     1      -6.329   0.291  -4.679  0.00  0.00    -0.010 A 
ATOM     33  C   UNL     1      -6.975   0.653  -3.512  0.00  0.00    +0.006 A 
ATOM     34  C   UNL     1      -6.876   1.948  -3.040  0.00  0.00    +0.000 A 
ATOM     35  C   UNL     1      -6.131   2.884  -3.735  0.00  0.00    +0.003 A 
ATOM     36  C   UNL     1      -5.484   2.524  -4.901  0.00  0.00    +0.038 A 
ATOM     37  C   UNL     1      -5.578   1.225  -5.372  0.00  0.00    +0.127 A 
ATOM     38  F   UNL     1      -4.942   0.871  -6.510  0.00  0.00    -0.205 F 
ENDBRANCH  31  32
ENDBRANCH  29  31
ENDBRANCH  27  29
ENDBRANCH   5  25
TORSDOF 6
