REMARK  Name = ZINC09014876
REMARK  11 active torsions:
REMARK  status: ('A' for Active; 'I' for Inactive)
REMARK    1  A    between atoms: C_1  and  C_2
REMARK    2  A    between atoms: C_2  and  C_3
REMARK    3  A    between atoms: C_2  and  C_4
REMARK    4  A    between atoms: C_7  and  N_10
REMARK    5  A    between atoms: C_13  and  C_14
REMARK    6  A    between atoms: N_15  and  C_16
REMARK    7  A    between atoms: C_16  and  C_17
REMARK    8  A    between atoms: C_24  and  O_25
REMARK    9  A    between atoms: O_25  and  C_26
REMARK   10  A    between atoms: C_32  and  N_67
REMARK   11  A    between atoms: C_36  and  S_37
REMARK                            x       y       z     vdW  Elec       q    Type
REMARK                         _______ _______ _______ _____ _____    ______ ____
ROOT
ATOM      1  C   UNL     1      -0.061  -2.049  -0.023  0.00  0.00    +0.099 C 
ATOM      2  N   UNL     1      -0.036  -0.740   0.298  0.00  0.00    -0.296 NA
ENDROOT
BRANCH   1   6
ATOM      3  N   UNL     1       2.007  -4.482  -1.871  0.00  0.00    -0.220 N 
ATOM      4  C   UNL     1       0.956  -4.017  -1.161  0.00  0.00    +0.243 C 
ATOM      5  O   UNL     1       0.023  -4.743  -0.872  0.00  0.00    -0.274 OA
ATOM      6  C   UNL     1       0.975  -2.603  -0.750  0.00  0.00    +0.204 C 
ATOM      7  C   UNL     1       2.148  -1.802  -1.155  0.00  0.00    +0.255 C 
ATOM      8  O   UNL     1       2.232  -0.622  -0.856  0.00  0.00    -0.272 OA
ATOM      9  N   UNL     1       3.121  -2.402  -1.857  0.00  0.00    -0.158 NA
ATOM     10  C   UNL     1       3.052  -3.669  -2.197  0.00  0.00    +0.157 C 
BRANCH   3  14
ATOM     11  C   UNL     1       2.054  -8.469  -3.085  0.00  0.00    -0.045 A 
ATOM     12  C   UNL     1       2.554  -8.119  -1.844  0.00  0.00    +0.006 A 
ATOM     13  C   UNL     1       2.539  -6.799  -1.438  0.00  0.00    +0.024 A 
ATOM     14  C   UNL     1       2.023  -5.822  -2.279  0.00  0.00    +0.043 A 
ATOM     15  C   UNL     1       1.516  -6.177  -3.522  0.00  0.00    +0.024 A 
ATOM     16  C   UNL     1       1.539  -7.498  -3.924  0.00  0.00    +0.006 A 
BRANCH  11  18
ATOM     17  C   UNL     1       0.640 -10.377  -3.796  0.00  0.00    +0.012 C 
ATOM     18  C   UNL     1       2.071  -9.910  -3.524  0.00  0.00    +0.013 C 
ATOM     19  C   UNL     1       2.903 -10.045  -4.801  0.00  0.00    +0.012 C 
ENDBRANCH  11  18
ENDBRANCH   3  14
BRANCH  10  20
ATOM     20  S   UNL     1       4.383  -4.356  -3.125  0.00  0.00    -0.110 S 
ATOM     21  H   UNL     1       5.213  -3.222  -3.239  0.00  0.00    +0.110 HD
ENDBRANCH  10  20
ENDBRANCH   1   6
BRANCH   2  22
ATOM     22  C   UNL     1      -1.134  -0.152   1.069  0.00  0.00    +0.130 C 
BRANCH  22  23
ATOM     23  C   UNL     1      -0.925   1.359   1.185  0.00  0.00    -0.012 C 
ATOM     24  C   UNL     1      -0.970   1.974  -0.189  0.00  0.00    -0.011 A 
ATOM     25  C   UNL     1      -0.080   2.953  -0.577  0.00  0.00    -0.040 A 
ATOM     26  C   UNL     1      -0.159   3.496  -1.850  0.00  0.00    +0.053 A 
ATOM     27  C   UNL     1      -1.127   3.063  -2.741  0.00  0.00    +0.170 A 
ATOM     28  C   UNL     1      -2.026   2.074  -2.354  0.00  0.00    +0.208 A 
ATOM     29  C   UNL     1      -1.944   1.533  -1.079  0.00  0.00    +0.167 A 
ATOM     30  O   UNL     1      -2.872   1.821  -3.396  0.00  0.00    -0.449 OA
ATOM     31  C   UNL     1      -2.741   2.950  -4.280  0.00  0.00    +0.467 C 
ATOM     32  O   UNL     1      -1.408   3.431  -4.025  0.00  0.00    -0.452 OA
ATOM     33  C   UNL     1       0.998   3.455   0.350  0.00  0.00    +0.017 C 
ATOM     34  C   UNL     1       0.672   3.060   1.791  0.00  0.00    -0.074 C 
ATOM     35  C   UNL     1       0.391   1.108   3.200  0.00  0.00    -0.095 C 
ATOM     36  N   UNL     1       0.386   1.611   1.808  0.00  0.00    +0.384 N 
ATOM     37  H   UNL     1       1.111   1.120   1.272  0.00  0.00    -0.081 HD
BRANCH  29  38
ATOM     38  O   UNL     1      -2.821   0.566  -0.697  0.00  0.00    -0.491 OA
ATOM     39  C   UNL     1      -4.037   0.998  -0.084  0.00  0.00    +0.277 C 
ENDBRANCH  29  38
ENDBRANCH  22  23
ENDBRANCH   2  22
TORSDOF 7
