REMARK  Name = ZINC01887330
REMARK  5 active torsions:
REMARK  status: ('A' for Active; 'I' for Inactive)
REMARK    1  A    between atoms: C_1  and  O_2
REMARK    2  A    between atoms: O_2  and  C_3
REMARK    3  A    between atoms: N_13  and  C_16
REMARK    4  A    between atoms: C_16  and  C_17
REMARK    5  A    between atoms: C_27  and  C_29
REMARK                            x       y       z     vdW  Elec       q    Type
REMARK                         _______ _______ _______ _____ _____    ______ ____
ROOT
ATOM      1  C   UNL     1       2.205  -7.134  -2.509  0.00  0.00    +0.162 A 
ATOM      2  C   UNL     1       3.473  -6.930  -3.029  0.00  0.00    +0.049 A 
ATOM      3  C   UNL     1       4.257  -5.884  -2.577  0.00  0.00    +0.004 A 
ATOM      4  C   UNL     1       3.769  -5.027  -1.603  0.00  0.00    +0.009 A 
ATOM      5  C   UNL     1       2.513  -5.223  -1.093  0.00  0.00    +0.021 A 
ATOM      6  C   UNL     1       1.711  -6.282  -1.527  0.00  0.00    +0.170 A 
ATOM      7  O   UNL     1       0.479  -6.473  -0.995  0.00  0.00    -0.466 OA
ATOM      8  C   UNL     1      -0.257  -5.387  -0.411  0.00  0.00    +0.177 C 
ATOM      9  C   UNL     1      -1.614  -5.280  -1.116  0.00  0.00    +0.048 C 
ATOM     10  C   UNL     1      -2.381  -6.591  -0.933  0.00  0.00    -0.073 C 
ATOM     11  N   UNL     1      -2.579  -6.848   0.499  0.00  0.00    +0.383 N 
ATOM     12  C   UNL     1      -1.294  -6.995   1.194  0.00  0.00    -0.073 C 
ATOM     13  C   UNL     1      -0.494  -5.696   1.072  0.00  0.00    +0.048 C 
ATOM     14  N   UNL     1       0.487  -4.162  -0.559  0.00  0.00    -0.177 NA
ATOM     15  C   UNL     1       1.884  -4.340  -0.055  0.00  0.00    +0.138 C 
ATOM     16  C   UNL     1       2.364  -2.916  -0.041  0.00  0.00    +0.023 C 
ATOM     17  C   UNL     1       1.248  -2.163  -0.021  0.00  0.00    +0.047 C 
ATOM     18  N   UNL     1       0.108  -2.993  -0.015  0.00  0.00    -0.273 N 
ATOM     19  H   UNL     1      -0.929  -2.856   0.326  0.00  0.00    +0.167 HD
ATOM     20  H   UNL     1      -3.095  -5.977   0.928  0.00  0.00    -0.081 HD
ENDROOT
BRANCH  17  21
ATOM     21  C   UNL     1       1.221  -0.682  -0.013  0.00  0.00    -0.003 A 
ATOM     22  C   UNL     1       0.002  -0.004   0.002  0.00  0.00    +0.010 A 
ATOM     23  C   UNL     1      -0.017   1.376   0.010  0.00  0.00    +0.001 A 
ATOM     24  C   UNL     1       1.170   2.086   0.002  0.00  0.00    +0.000 A 
ATOM     25  C   UNL     1       2.382   1.419  -0.013  0.00  0.00    +0.001 A 
ATOM     26  C   UNL     1       2.414   0.040  -0.021  0.00  0.00    +0.010 A 
ENDBRANCH  17  21
BRANCH   1  28
ATOM     27  C   UNL     1       2.014  -9.000  -3.971  0.00  0.00    +0.277 C 
ATOM     28  O   UNL     1       1.443  -8.166  -2.961  0.00  0.00    -0.491 OA
ENDBRANCH   1  28
BRANCH  11  29
ATOM     29  C   UNL     1      -3.429  -8.028   0.709  0.00  0.00    -0.043 C 
BRANCH  29  30
ATOM     30  C   UNL     1      -4.817  -7.745   0.196  0.00  0.00    -0.064 A 
ATOM     31  C   UNL     1      -5.769  -7.203   1.039  0.00  0.00    +0.002 A 
ATOM     32  C   UNL     1      -7.040  -6.939   0.567  0.00  0.00    +0.000 A 
ATOM     33  C   UNL     1      -7.364  -7.227  -0.746  0.00  0.00    +0.000 A 
ATOM     34  C   UNL     1      -6.414  -7.774  -1.588  0.00  0.00    +0.000 A 
ATOM     35  C   UNL     1      -5.140  -8.033  -1.117  0.00  0.00    +0.002 A 
ENDBRANCH  29  30
ENDBRANCH  11  29
TORSDOF 4
