REMARK  Name = ZINC22486353
REMARK  4 active torsions:
REMARK  status: ('A' for Active; 'I' for Inactive)
REMARK    1  A    between atoms: C_3  and  C_6
REMARK    2  A    between atoms: C_16  and  C_19
REMARK    3  A    between atoms: N_21  and  C_22
REMARK    4  A    between atoms: C_22  and  C_23
REMARK                            x       y       z     vdW  Elec       q    Type
REMARK                         _______ _______ _______ _____ _____    ______ ____
ROOT
ATOM      1  C   UNL     1       0.443  -4.536  -1.601  0.00  0.00    +0.100 A 
ATOM      2  C   UNL     1       0.982  -4.042  -0.405  0.00  0.00    +0.034 A 
ATOM      3  C   UNL     1       1.077  -2.671  -0.255  0.00  0.00    +0.047 A 
ATOM      4  C   UNL     1       0.630  -1.863  -1.303  0.00  0.00    +0.144 A 
ATOM      5  N   UNL     1       0.129  -2.417  -2.397  0.00  0.00    -0.134 NA
ATOM      6  N   UNL     1       0.044  -3.689  -2.543  0.00  0.00    -0.147 NA
ATOM      7  N   UNL     1       0.706  -0.479  -1.196  0.00  0.00    -0.313 N 
ATOM      8  C   UNL     1       0.002  -0.004   0.002  0.00  0.00    +0.106 C 
ATOM      9  C   UNL     1      -0.019   1.526   0.010  0.00  0.00    +0.020 C 
ATOM     10  C   UNL     1       1.420   2.051  -0.001  0.00  0.00    +0.016 C 
ATOM     11  C   UNL     1       2.145   1.503  -1.232  0.00  0.00    +0.092 C 
ATOM     12  C   UNL     1       2.103  -0.026  -1.205  0.00  0.00    +0.119 C 
ENDROOT
BRANCH   1  15
ATOM     13  C   UNL     1      -0.190  -8.045  -2.868  0.00  0.00    +0.008 A 
ATOM     14  C   UNL     1      -0.179  -6.668  -2.894  0.00  0.00    +0.018 A 
ATOM     15  C   UNL     1       0.319  -5.992  -1.812  0.00  0.00    +0.039 A 
ATOM     16  S   UNL     1       0.772  -7.330  -0.720  0.00  0.00    -0.095 S 
ATOM     17  C   UNL     1       0.281  -8.689  -1.768  0.00  0.00    +0.046 A 
ENDBRANCH   1  15
BRANCH  11  18
ATOM     18  C   UNL     1       3.579   1.968  -1.220  0.00  0.00    +0.218 C 
ATOM     19  O   UNL     1       3.981   2.671  -0.317  0.00  0.00    -0.275 OA
ATOM     20  N   UNL     1       4.415   1.601  -2.212  0.00  0.00    -0.311 N 
ATOM     21  H   UNL     1       4.050   0.964  -3.030  0.00  0.00    +0.149 HD
BRANCH  20  22
ATOM     22  C   UNL     1       5.808   2.053  -2.199  0.00  0.00    +0.139 C 
BRANCH  22  23
ATOM     23  C   UNL     1       6.523   1.509  -3.409  0.00  0.00    -0.027 A 
ATOM     24  C   UNL     1       7.166   0.287  -3.340  0.00  0.00    +0.009 A 
ATOM     25  C   UNL     1       7.817  -0.219  -4.449  0.00  0.00    +0.050 A 
ATOM     26  C   UNL     1       7.838   0.504  -5.630  0.00  0.00    +0.166 A 
ATOM     27  C   UNL     1       7.196   1.738  -5.699  0.00  0.00    +0.167 A 
ATOM     28  C   UNL     1       6.540   2.236  -4.585  0.00  0.00    +0.054 A 
ATOM     29  O   UNL     1       7.360   2.246  -6.955  0.00  0.00    -0.453 OA
ATOM     30  C   UNL     1       8.451   1.504  -7.531  0.00  0.00    +0.466 C 
ATOM     31  O   UNL     1       8.404   0.239  -6.844  0.00  0.00    -0.453 OA
ENDBRANCH  22  23
ENDBRANCH  20  22
ENDBRANCH  11  18
TORSDOF 4
