REMARK  Name = ZINC03293192
REMARK  6 active torsions:
REMARK  status: ('A' for Active; 'I' for Inactive)
REMARK    1  A    between atoms: C_4  and  C_7
REMARK    2  A    between atoms: C_7  and  C_9
REMARK    3  A    between atoms: C_7  and  N_46
REMARK    4  A    between atoms: N_11  and  C_12
REMARK    5  A    between atoms: C_20  and  C_21
REMARK    6  A    between atoms: C_20  and  N_46
REMARK                            x       y       z     vdW  Elec       q    Type
REMARK                         _______ _______ _______ _____ _____    ______ ____
ROOT
ATOM      1  C   UNL     1      -2.570   4.140   0.252  0.00  0.00    +0.048 C 
ENDROOT
BRANCH   1   5
ATOM      2  C   UNL     1      -4.965   3.351  -3.196  0.00  0.00    +0.000 A 
ATOM      3  C   UNL     1      -5.197   2.661  -2.021  0.00  0.00    +0.000 A 
ATOM      4  C   UNL     1      -4.422   2.916  -0.905  0.00  0.00    +0.002 A 
ATOM      5  C   UNL     1      -3.414   3.861  -0.965  0.00  0.00    -0.053 A 
ATOM      6  C   UNL     1      -3.186   4.555  -2.138  0.00  0.00    +0.002 A 
ATOM      7  C   UNL     1      -3.958   4.297  -3.255  0.00  0.00    +0.000 A 
ENDBRANCH   1   5
BRANCH   1   8
ATOM      8  C   UNL     1      -1.256   3.412   0.128  0.00  0.00    +0.207 C 
ATOM      9  O   UNL     1      -0.215   4.035   0.127  0.00  0.00    -0.277 OA
ATOM     10  N   UNL     1      -1.237   2.069   0.019  0.00  0.00    -0.286 N 
ATOM     11  H   UNL     1      -2.070   1.577  -0.057  0.00  0.00    +0.155 HD
BRANCH  10  12
ATOM     12  C   UNL     1      -0.017   1.384   0.015  0.00  0.00    +0.036 A 
ATOM     13  C   UNL     1       0.127   0.223  -0.732  0.00  0.00    +0.043 A 
ATOM     14  C   UNL     1       1.331  -0.455  -0.730  0.00  0.00    +0.044 A 
ATOM     15  C   UNL     1       2.394   0.023   0.017  0.00  0.00    +0.040 A 
ATOM     16  C   UNL     1       2.253   1.180   0.763  0.00  0.00    +0.044 A 
ATOM     17  C   UNL     1       1.051   1.861   0.764  0.00  0.00    +0.043 A 
ATOM     18 CL   UNL     1       3.589   1.776   1.698  0.00  0.00    -0.083 Cl
ATOM     19 CL   UNL     1       1.512  -1.907  -1.664  0.00  0.00    -0.083 Cl
ENDBRANCH  10  12
ENDBRANCH   1   8
BRANCH   1  20
ATOM     20  N   UNL     1      -2.313   5.589   0.352  0.00  0.00    +0.392 N 
ATOM     21  H   UNL     1      -2.217   5.982  -0.592  0.00  0.00    -0.084 HD
ATOM     22  H   UNL     1      -1.444   5.743   0.877  0.00  0.00    -0.084 HD
BRANCH  20  23
ATOM     23  C   UNL     1      -3.428   6.260   1.048  0.00  0.00    -0.045 C 
BRANCH  23  24
ATOM     24  C   UNL     1      -3.138   7.736   1.135  0.00  0.00    -0.061 A 
ATOM     25  C   UNL     1      -2.459   8.242   2.227  0.00  0.00    +0.005 A 
ATOM     26  C   UNL     1      -2.186   9.595   2.309  0.00  0.00    +0.050 A 
ATOM     27  C   UNL     1      -2.604  10.449   1.302  0.00  0.00    +0.166 A 
ATOM     28  C   UNL     1      -3.293   9.940   0.204  0.00  0.00    +0.166 A 
ATOM     29  C   UNL     1      -3.558   8.582   0.126  0.00  0.00    +0.051 A 
ATOM     30  O   UNL     1      -3.591  10.970  -0.640  0.00  0.00    -0.453 OA
ATOM     31  C   UNL     1      -3.438  12.167   0.146  0.00  0.00    +0.466 C 
ATOM     32  O   UNL     1      -2.470  11.798   1.146  0.00  0.00    -0.453 OA
ENDBRANCH  23  24
ENDBRANCH  20  23
ENDBRANCH   1  20
TORSDOF 6
