REMARK  Name = ZINC40450546
REMARK  7 active torsions:
REMARK  status: ('A' for Active; 'I' for Inactive)
REMARK    1  A    between atoms: C_1  and  C_2
REMARK    2  A    between atoms: N_8  and  C_9
REMARK    3  A    between atoms: C_9  and  C_10
REMARK    4  A    between atoms: C_10  and  N_11
REMARK    5  A    between atoms: N_11  and  S_12
REMARK    6  A    between atoms: S_12  and  C_15
REMARK    7  A    between atoms: C_25  and  C_27
REMARK                            x       y       z     vdW  Elec       q    Type
REMARK                         _______ _______ _______ _____ _____    ______ ____
ROOT
ATOM      1  S   UNL     1       0.572  -0.472   6.316  0.00  0.00    +0.059 S 
ATOM      2  O   UNL     1      -0.250   0.082   7.334  0.00  0.00    -0.153 OA
ATOM      3  O   UNL     1       0.580  -1.860   6.014  0.00  0.00    -0.153 OA
ENDROOT
BRANCH   1   4
ATOM      4  C   UNL     1       2.231  -0.034   6.716  0.00  0.00    +0.121 A 
ATOM      5  C   UNL     1       3.214  -1.001   6.727  0.00  0.00    +0.053 A 
ATOM      6  C   UNL     1       4.531  -0.664   7.043  0.00  0.00    +0.041 A 
ATOM      7  C   UNL     1       4.835   0.655   7.343  0.00  0.00    -0.023 A 
ATOM      8  C   UNL     1       3.848   1.621   7.330  0.00  0.00    +0.022 A 
ATOM      9  C   UNL     1       2.546   1.280   7.011  0.00  0.00    +0.045 A 
ATOM     10 BR   UNL     1       1.197   2.606   6.986  0.00  0.00    -0.048 Br
ATOM     11  C   UNL     1       6.313   0.751   7.644  0.00  0.00    +0.056 C 
ATOM     12  C   UNL     1       6.836  -0.685   7.482  0.00  0.00    +0.118 C 
ATOM     13  N   UNL     1       5.664  -1.482   7.110  0.00  0.00    -0.271 N 
ATOM     14  C   UNL     1       5.675  -2.808   6.869  0.00  0.00    +0.223 C 
ATOM     15  O   UNL     1       4.648  -3.378   6.567  0.00  0.00    -0.275 OA
BRANCH  14  16
ATOM     16  C   UNL     1       6.964  -3.582   6.975  0.00  0.00    +0.076 C 
ATOM     17  C   UNL     1       7.563  -4.136   5.681  0.00  0.00    +0.013 C 
ATOM     18  C   UNL     1       6.911  -5.084   6.689  0.00  0.00    +0.013 C 
ENDBRANCH  14  16
ENDBRANCH   1   4
BRANCH   1  19
ATOM     19  N   UNL     1       0.182   0.316   4.913  0.00  0.00    -0.192 NA
ATOM     20  H   UNL     1      -0.514   0.992   4.913  0.00  0.00    +0.148 HD
BRANCH  19  21
ATOM     21  C   UNL     1       0.888  -0.007   3.671  0.00  0.00    +0.087 C 
BRANCH  21  22
ATOM     22  C   UNL     1       0.106   0.549   2.479  0.00  0.00    -0.061 C 
BRANCH  22  29
ATOM     23  C   UNL     1       0.042   2.369   0.342  0.00  0.00    -0.013 C 
ATOM     24  C   UNL     1       0.129   0.861   0.103  0.00  0.00    -0.072 C 
ATOM     25  C   UNL     1       0.908   0.593  -1.187  0.00  0.00    -0.016 C 
ATOM     26  C   UNL     1       0.992  -0.917  -1.422  0.00  0.00    -0.003 C 
ATOM     27  C   UNL     1       1.641  -1.579  -0.203  0.00  0.00    -0.019 C 
ATOM     28  C   UNL     1       0.835  -1.231   1.050  0.00  0.00    -0.078 C 
ATOM     29  N   UNL     1       0.815   0.225   1.234  0.00  0.00    +0.382 N 
ATOM     30  H   UNL     1       1.762   0.569   1.288  0.00  0.00    -0.081 HD
ENDBRANCH  22  29
ENDBRANCH  21  22
ENDBRANCH  19  21
ENDBRANCH   1  19
TORSDOF 6
