REMARK  Name = ZINC43221875
REMARK  13 active torsions:
REMARK  status: ('A' for Active; 'I' for Inactive)
REMARK    1  A    between atoms: C_1  and  C_2
REMARK    2  A    between atoms: C_2  and  C_3
REMARK    3  A    between atoms: C_7  and  C_39
REMARK    4  A    between atoms: C_8  and  N_9
REMARK    5  A    between atoms: C_14  and  C_29
REMARK    6  A    between atoms: C_17  and  C_22
REMARK    7  A    between atoms: C_17  and  C_26
REMARK    8  A    between atoms: C_22  and  C_24
REMARK    9  A    between atoms: C_22  and  O_25
REMARK   10  A    between atoms: C_32  and  O_35
REMARK   11  A    between atoms: O_35  and  C_36
REMARK   12  A    between atoms: C_36  and  C_38
REMARK   13  A    between atoms: C_39  and  C_40
REMARK                            x       y       z     vdW  Elec       q    Type
REMARK                         _______ _______ _______ _____ _____    ______ ____
ROOT
ATOM      1  N   UNL     1       3.024  -0.733   0.234  0.00  0.00    -0.209 N 
ATOM      2  C   UNL     1       3.455   0.543   0.498  0.00  0.00    +0.229 C 
ATOM      3  O   UNL     1       3.146   1.564  -0.079  0.00  0.00    -0.275 OA
ATOM      4  C   UNL     1       4.359   0.400   1.615  0.00  0.00    +0.077 C 
ATOM      5  C   UNL     1       4.981   1.208   2.674  0.00  0.00    -0.027 C 
ATOM      6  N   UNL     1       5.422   0.203   3.696  0.00  0.00    +0.397 N 
ATOM      7  C   UNL     1       4.928  -1.141   3.251  0.00  0.00    +0.074 C 
ATOM      8  C   UNL     1       3.674  -0.767   2.432  0.00  0.00    +0.089 C 
ATOM      9  C   UNL     1       3.328  -1.611   1.236  0.00  0.00    +0.229 C 
ATOM     10  O   UNL     1       3.323  -2.821   1.174  0.00  0.00    -0.275 OA
ATOM     11  H   UNL     1       6.429   0.194   3.756  0.00  0.00    -0.083 HD
ATOM     12  H   UNL     1       5.026   0.433   4.595  0.00  0.00    -0.083 HD
ENDROOT
BRANCH   1  18
ATOM     13  C   UNL     1       0.955  -1.027  -0.979  0.00  0.00    -0.026 A 
ATOM     14  C   UNL     1       0.284  -1.380  -2.134  0.00  0.00    +0.005 A 
ATOM     15  C   UNL     1       0.991  -1.806  -3.243  0.00  0.00    +0.001 A 
ATOM     16  C   UNL     1       2.371  -1.880  -3.200  0.00  0.00    +0.005 A 
ATOM     17  C   UNL     1       3.047  -1.529  -2.048  0.00  0.00    -0.026 A 
ATOM     18  C   UNL     1       2.340  -1.096  -0.934  0.00  0.00    +0.050 A 
BRANCH  13  20
ATOM     19  C   UNL     1       0.112   0.966   0.232  0.00  0.00    +0.009 C 
ATOM     20  C   UNL     1       0.183  -0.563   0.229  0.00  0.00    +0.033 C 
ENDBRANCH  13  20
BRANCH  17  21
ATOM     21  C   UNL     1       4.551  -1.610  -2.002  0.00  0.00    +0.033 C 
ATOM     22  C   UNL     1       4.971  -2.953  -1.402  0.00  0.00    +0.009 C 
ENDBRANCH  17  21
ENDBRANCH   1  18
BRANCH   5  23
ATOM     23  C   UNL     1       3.978   2.162   3.267  0.00  0.00    -0.060 A 
ATOM     24  C   UNL     1       3.074   1.714   4.213  0.00  0.00    +0.005 A 
ATOM     25  C   UNL     1       2.153   2.587   4.758  0.00  0.00    +0.046 A 
ATOM     26  C   UNL     1       2.135   3.914   4.356  0.00  0.00    +0.132 A 
ATOM     27  C   UNL     1       3.043   4.362   3.408  0.00  0.00    +0.046 A 
ATOM     28  C   UNL     1       3.966   3.486   2.869  0.00  0.00    +0.005 A 
BRANCH  26  29
ATOM     29  O   UNL     1       1.229   4.775   4.891  0.00  0.00    -0.426 OA
BRANCH  29  30
ATOM     30  C   UNL     1       1.443   5.220   6.140  0.00  0.00    +0.309 C 
ATOM     31  O   UNL     1       2.465   4.932   6.717  0.00  0.00    -0.251 OA
ATOM     32  C   UNL     1       0.409   6.078   6.821  0.00  0.00    +0.136 C 
ENDBRANCH  29  30
ENDBRANCH  26  29
ENDBRANCH   5  23
BRANCH   7  33
ATOM     33  C   UNL     1       4.548  -1.990   4.437  0.00  0.00    +0.349 C 
ATOM     34  O   UNL     1       4.691  -1.557   5.567  0.00  0.00    -0.248 OA
ATOM     35  O   UNL     1       4.098  -3.110   4.265  0.00  0.00    -0.248 OA
ENDBRANCH   7  33
BRANCH   7  36
ATOM     36  C   UNL     1       5.977  -1.847   2.390  0.00  0.00    +0.112 C 
ATOM     37  C   UNL     1       7.291  -1.946   3.167  0.00  0.00    +0.037 C 
BRANCH  36  38
ATOM     38  O   UNL     1       5.518  -3.159   2.060  0.00  0.00    -0.393 OA
ATOM     39  H   UNL     1       5.353  -3.723   2.828  0.00  0.00    +0.210 HD
ENDBRANCH  36  38
ENDBRANCH   7  36
TORSDOF 9
