REMARK  Name = ZINC10107525
REMARK  11 active torsions:
REMARK  status: ('A' for Active; 'I' for Inactive)
REMARK    1  A    between atoms: C_1  and  C_2
REMARK    2  A    between atoms: C_2  and  C_3
REMARK    3  A    between atoms: C_9  and  C_10
REMARK    4  A    between atoms: C_9  and  N_69
REMARK    5  A    between atoms: C_10  and  C_11
REMARK    6  A    between atoms: C_11  and  N_12
REMARK    7  A    between atoms: C_21  and  C_31
REMARK    8  A    between atoms: N_22  and  C_23
REMARK    9  A    between atoms: C_26  and  O_29
REMARK   10  A    between atoms: O_29  and  C_30
REMARK   11  A    between atoms: N_32  and  C_35
REMARK                            x       y       z     vdW  Elec       q    Type
REMARK                         _______ _______ _______ _____ _____    ______ ____
ROOT
ATOM      1  N   UNL     1       0.013   0.077   1.340  0.00  0.00    -0.259 N 
ATOM      2  C   UNL     1       0.233  -0.296   2.618  0.00  0.00    +0.283 A 
ATOM      3  O   UNL     1       0.376   0.544   3.489  0.00  0.00    -0.265 OA
ATOM      4  C   UNL     1       0.296  -1.663   2.934  0.00  0.00    +0.157 A 
ATOM      5  C   UNL     1       0.129  -2.604   1.918  0.00  0.00    +0.170 A 
ATOM      6  N   UNL     1       0.231  -3.810   2.469  0.00  0.00    -0.193 NA
ATOM      7  C   UNL     1       0.452  -3.695   3.771  0.00  0.00    +0.223 A 
ATOM      8  N   UNL     1       0.500  -2.383   4.101  0.00  0.00    -0.277 N 
ATOM      9  C   UNL     1       0.731  -2.289   5.463  0.00  0.00    +0.116 A 
ATOM     10  C   UNL     1       0.824  -3.520   5.958  0.00  0.00    +0.040 A 
ATOM     11  N   UNL     1       0.653  -4.417   4.920  0.00  0.00    -0.283 N 
ATOM     12  C   UNL     1       1.073  -3.875   7.401  0.00  0.00    +0.065 C 
ATOM     13  N   UNL     1      -0.095  -2.157   0.624  0.00  0.00    -0.279 N 
ATOM     14  C   UNL     1      -0.152  -0.836   0.369  0.00  0.00    +0.333 A 
ATOM     15  O   UNL     1      -0.353  -0.461  -0.770  0.00  0.00    -0.246 OA
ATOM     16  C   UNL     1      -0.275  -3.122  -0.463  0.00  0.00    +0.155 C 
ENDROOT
BRANCH  11  17
ATOM     17  C   UNL     1       0.680  -5.815   5.022  0.00  0.00    +0.050 A 
ATOM     18  C   UNL     1      -0.467  -6.553   4.763  0.00  0.00    +0.030 A 
ATOM     19  C   UNL     1      -0.439  -7.930   4.859  0.00  0.00    +0.047 A 
ATOM     20  C   UNL     1       0.733  -8.576   5.226  0.00  0.00    +0.120 A 
ATOM     21  C   UNL     1       1.878  -7.839   5.491  0.00  0.00    +0.047 A 
ATOM     22  C   UNL     1       1.852  -6.462   5.390  0.00  0.00    +0.030 A 
BRANCH  20  23
ATOM     23  O   UNL     1       0.760  -9.931   5.325  0.00  0.00    -0.495 OA
ATOM     24  C   UNL     1      -0.455 -10.627   5.038  0.00  0.00    +0.277 C 
ENDBRANCH  20  23
ENDBRANCH  11  17
BRANCH   1  25
ATOM     25  C   UNL     1      -0.053   1.503   1.008  0.00  0.00    +0.128 C 
BRANCH  25  26
ATOM     26  C   UNL     1       1.346   2.008   0.650  0.00  0.00    +0.003 C 
BRANCH  26  27
ATOM     27  C   UNL     1       1.277   3.497   0.303  0.00  0.00    -0.077 C 
BRANCH  27  33
ATOM     28  C   UNL     1       2.578   5.384  -0.478  0.00  0.00    -0.069 C 
ATOM     29  C   UNL     1       4.004   5.898  -0.687  0.00  0.00    -0.015 C 
ATOM     30  C   UNL     1       4.702   5.036  -1.742  0.00  0.00    -0.003 C 
ATOM     31  C   UNL     1       4.691   3.574  -1.285  0.00  0.00    -0.019 C 
ATOM     32  C   UNL     1       3.244   3.128  -1.058  0.00  0.00    -0.078 C 
ATOM     33  N   UNL     1       2.636   3.981  -0.015  0.00  0.00    +0.382 N 
ATOM     34  H   UNL     1       3.214   3.933   0.832  0.00  0.00    -0.081 HD
BRANCH  28  36
ATOM     35  C   UNL     1       1.720   7.663   0.080  0.00  0.00    +0.002 C 
ATOM     36  C   UNL     1       1.882   6.230   0.591  0.00  0.00    -0.019 C 
ENDBRANCH  28  36
ENDBRANCH  27  33
ENDBRANCH  26  27
ENDBRANCH  25  26
ENDBRANCH   1  25
TORSDOF 7
