REMARK  Name = ZINC61849971
REMARK  3 active torsions:
REMARK  status: ('A' for Active; 'I' for Inactive)
REMARK    1  A    between atoms: C_3  and  C_19
REMARK    2  A    between atoms: C_6  and  N_7
REMARK    3  A    between atoms: C_19  and  N_21
REMARK                            x       y       z     vdW  Elec       q    Type
REMARK                         _______ _______ _______ _____ _____    ______ ____
ROOT
ATOM      1  C   UNL     1       0.879  -0.132  -1.074  0.00  0.00    +0.024 A 
ATOM      2  C   UNL     1       2.063   0.569  -1.086  0.00  0.00    +0.013 A 
ATOM      3  C   UNL     1       2.387   1.410  -0.017  0.00  0.00    +0.021 A 
ATOM      4  C   UNL     1       1.504   1.535   1.063  0.00  0.00    +0.052 A 
ATOM      5  C   UNL     1       0.321   0.829   1.068  0.00  0.00    +0.043 A 
ATOM      6  C   UNL     1       0.003  -0.006   0.001  0.00  0.00    +0.031 A 
ATOM      7 CL   UNL     1       1.900   2.577   2.394  0.00  0.00    -0.083 Cl
ENDROOT
BRANCH   6   8
ATOM      8  N   UNL     1      -1.193  -0.717   0.009  0.00  0.00    -0.322 N 
ATOM      9  C   UNL     1      -2.516  -0.054  -0.054  0.00  0.00    +0.133 C 
ATOM     10  C   UNL     1      -3.449  -0.608   1.021  0.00  0.00    +0.179 C 
ATOM     11  O   UNL     1      -3.399  -2.045   1.088  0.00  0.00    -0.373 OA
ATOM     12  C   UNL     1      -2.087  -2.498   1.344  0.00  0.00    +0.139 C 
ATOM     13  C   UNL     1      -1.242  -2.171   0.073  0.00  0.00    +0.102 C 
ATOM     14  C   UNL     1       0.064  -2.912   0.329  0.00  0.00    +0.025 C 
ATOM     15  C   UNL     1      -0.328  -4.144   1.185  0.00  0.00    +0.004 C 
ATOM     16  C   UNL     1      -1.852  -4.000   1.492  0.00  0.00    +0.033 C 
ENDBRANCH   6   8
BRANCH   3  17
ATOM     17  C   UNL     1       3.653   2.162  -0.026  0.00  0.00    +0.078 C 
ATOM     18  S   UNL     1       3.971   3.318   1.197  0.00  0.00    -0.035 S 
BRANCH  17  19
ATOM     19  N   UNL     1       4.561   1.941  -0.997  0.00  0.00    -0.352 N 
ATOM     20  H   UNL     1       4.351   1.341  -1.729  0.00  0.00    +0.143 HD
ATOM     21  H   UNL     1       5.424   2.381  -0.963  0.00  0.00    +0.143 HD
ENDBRANCH  17  19
ENDBRANCH   3  17
TORSDOF 3
