REMARK  Name = ZINC15576585
REMARK  4 active torsions:
REMARK  status: ('A' for Active; 'I' for Inactive)
REMARK    1  A    between atoms: N_11  and  C_12
REMARK    2  A    between atoms: C_12  and  C_14
REMARK    3  A    between atoms: N_18  and  S_20
REMARK    4  A    between atoms: S_20  and  C_23
REMARK                            x       y       z     vdW  Elec       q    Type
REMARK                         _______ _______ _______ _____ _____    ______ ____
ROOT
ATOM      1  C   UNL     1       5.684  -4.538  -0.290  0.00  0.00    +0.093 C 
ATOM      2  C   UNL     1       5.437  -5.404   0.948  0.00  0.00    +0.015 C 
ATOM      3  C   UNL     1       6.190  -6.729   0.804  0.00  0.00    +0.018 C 
ATOM      4  C   UNL     1       7.693  -6.449   0.703  0.00  0.00    +0.109 C 
ATOM      5  N   UNL     1       7.923  -5.501  -0.397  0.00  0.00    -0.176 NA
ATOM      6  C   UNL     1       7.181  -4.233  -0.404  0.00  0.00    +0.122 C 
ENDROOT
BRANCH   5   7
ATOM      7  S   UNL     1       9.001  -5.855  -1.603  0.00  0.00    +0.061 S 
ATOM      8  O   UNL     1       9.416  -4.613  -2.154  0.00  0.00    -0.153 OA
ATOM      9  O   UNL     1       9.921  -6.794  -1.064  0.00  0.00    -0.153 OA
BRANCH   7  10
ATOM     10  C   UNL     1       8.108  -6.694  -2.869  0.00  0.00    +0.106 A 
ATOM     11  C   UNL     1       7.996  -8.072  -2.838  0.00  0.00    +0.031 A 
ATOM     12  C   UNL     1       7.295  -8.731  -3.830  0.00  0.00    +0.040 A 
ATOM     13  C   UNL     1       6.705  -8.012  -4.856  0.00  0.00    +0.124 A 
ATOM     14  C   UNL     1       6.819  -6.632  -4.886  0.00  0.00    +0.040 A 
ATOM     15  C   UNL     1       7.515  -5.974  -3.890  0.00  0.00    +0.031 A 
ATOM     16  F   UNL     1       6.021  -8.655  -5.826  0.00  0.00    -0.205 F 
ENDBRANCH   7  10
ENDBRANCH   5   7
BRANCH   1  17
ATOM     17  C   UNL     1       4.916  -3.248  -0.162  0.00  0.00    +0.243 C 
ATOM     18  O   UNL     1       5.508  -2.186  -0.163  0.00  0.00    -0.273 OA
BRANCH  17  29
ATOM     19  C   UNL     1      -0.018   1.375  -0.018  0.00  0.00    +0.002 A 
ATOM     20  C   UNL     1       1.167   2.090  -0.015  0.00  0.00    +0.002 A 
ATOM     21  C   UNL     1       2.379   1.429  -0.020  0.00  0.00    +0.028 A 
ATOM     22  C   UNL     1       2.410   0.041  -0.029  0.00  0.00    +0.065 A 
ATOM     23  C   UNL     1       1.214  -0.680  -0.032  0.00  0.00    +0.065 A 
ATOM     24  C   UNL     1       0.001  -0.005  -0.027  0.00  0.00    +0.028 A 
ATOM     25  N   UNL     1       1.549  -2.030  -0.041  0.00  0.00    -0.326 N 
ATOM     26  H   UNL     1       0.924  -2.771  -0.045  0.00  0.00    +0.169 HD
ATOM     27  C   UNL     1       2.904  -2.132  -0.042  0.00  0.00    +0.198 A 
ATOM     28  N   UNL     1       3.447  -0.886  -0.035  0.00  0.00    -0.326 N 
ATOM     29  N   UNL     1       3.591  -3.271  -0.050  0.00  0.00    -0.147 NA
ATOM     30  H   UNL     1       4.394  -0.678  -0.035  0.00  0.00    +0.169 HD
ENDBRANCH  17  29
ENDBRANCH   1  17
TORSDOF 4
