REMARK  Name = ZINC06812224
REMARK  8 active torsions:
REMARK  status: ('A' for Active; 'I' for Inactive)
REMARK    1  A    between atoms: C_1  and  C_2
REMARK    2  A    between atoms: C_2  and  C_3
REMARK    3  A    between atoms: C_3  and  C_4
REMARK    4  A    between atoms: C_10  and  C_25
REMARK    5  A    between atoms: C_12  and  C_15
REMARK    6  A    between atoms: N_17  and  C_18
REMARK    7  A    between atoms: C_21  and  C_24
REMARK    8  A    between atoms: C_28  and  C_31
REMARK                            x       y       z     vdW  Elec       q    Type
REMARK                         _______ _______ _______ _____ _____    ______ ____
ROOT
ATOM      1  C   UNL     1       4.944   1.627  -2.304  0.00  0.00    +0.151 A 
ATOM      2  N   UNL     1       6.043   0.941  -2.144  0.00  0.00    -0.132 NA
ATOM      3  N   UNL     1       6.012   0.310  -1.021  0.00  0.00    -0.121 NA
ATOM      4  C   UNL     1       4.888   0.564  -0.411  0.00  0.00    +0.209 A 
ATOM      5  N   UNL     1       4.168   1.416  -1.201  0.00  0.00    -0.225 N 
ATOM      6  N   UNL     1       2.947   1.945  -0.933  0.00  0.00    -0.272 N 
ATOM      7  C   UNL     1       2.174   1.176   0.043  0.00  0.00    +0.140 C 
ATOM      8  C   UNL     1       2.929   1.087   1.376  0.00  0.00    +0.166 C 
ATOM      9  S   UNL     1       4.330  -0.049   1.148  0.00  0.00    -0.069 S 
ATOM     10  H   UNL     1       2.420   2.086  -1.782  0.00  0.00    +0.167 HD
ENDROOT
BRANCH   7  11
ATOM     11  C   UNL     1       0.844   1.849   0.268  0.00  0.00    -0.024 A 
ATOM     12  C   UNL     1      -0.305   1.090   0.380  0.00  0.00    +0.006 A 
ATOM     13  C   UNL     1      -1.525   1.708   0.581  0.00  0.00    +0.004 A 
ATOM     14  C   UNL     1      -1.595   3.085   0.679  0.00  0.00    -0.050 A 
ATOM     15  C   UNL     1      -0.445   3.845   0.568  0.00  0.00    +0.004 A 
ATOM     16  C   UNL     1       0.774   3.227   0.362  0.00  0.00    +0.006 A 
ATOM     17  C   UNL     1      -2.924   3.759   0.904  0.00  0.00    +0.044 C 
ENDBRANCH   7  11
BRANCH   8  18
ATOM     18  C   UNL     1       3.436   2.451   1.766  0.00  0.00    +0.233 C 
ATOM     19  O   UNL     1       3.722   3.260   0.909  0.00  0.00    -0.274 OA
ATOM     20  N   UNL     1       3.572   2.772   3.068  0.00  0.00    -0.285 N 
ATOM     21  H   UNL     1       3.273   2.155   3.754  0.00  0.00    +0.155 HD
BRANCH  20  22
ATOM     22  C   UNL     1       4.146   3.996   3.431  0.00  0.00    +0.033 A 
ATOM     23  C   UNL     1       5.151   4.552   2.650  0.00  0.00    +0.023 A 
ATOM     24  C   UNL     1       5.712   5.762   3.007  0.00  0.00    +0.005 A 
ATOM     25  C   UNL     1       5.282   6.415   4.148  0.00  0.00    -0.050 A 
ATOM     26  C   UNL     1       4.285   5.861   4.931  0.00  0.00    +0.005 A 
ATOM     27  C   UNL     1       3.717   4.654   4.575  0.00  0.00    +0.023 A 
ATOM     28  C   UNL     1       5.900   7.733   4.538  0.00  0.00    +0.044 C 
ENDBRANCH  20  22
ENDBRANCH   8  18
BRANCH   1  29
ATOM     29  C   UNL     1       4.596   2.491  -3.489  0.00  0.00    +0.078 C 
BRANCH  29  31
ATOM     30  C   UNL     1       3.513   2.528  -5.740  0.00  0.00    +0.004 C 
ATOM     31  C   UNL     1       3.866   1.650  -4.537  0.00  0.00    +0.004 C 
ENDBRANCH  29  31
ENDBRANCH   1  29
TORSDOF 5
