REMARK  Name = ZINC64110950
REMARK  8 active torsions:
REMARK  status: ('A' for Active; 'I' for Inactive)
REMARK    1  A    between atoms: C_6  and  C_10
REMARK    2  A    between atoms: C_10  and  C_11
REMARK    3  A    between atoms: C_11  and  N_12
REMARK    4  A    between atoms: C_13  and  C_15
REMARK    5  A    between atoms: N_17  and  C_28
REMARK    6  A    between atoms: C_19  and  C_22
REMARK    7  A    between atoms: N_24  and  C_25
REMARK    8  A    between atoms: C_28  and  C_29
REMARK                            x       y       z     vdW  Elec       q    Type
REMARK                         _______ _______ _______ _____ _____    ______ ____
ROOT
ATOM      1  C   UNL     1       3.473  -6.866  -3.974  0.00  0.00    +0.100 A 
ATOM      2  C   UNL     1       3.049  -8.149  -4.243  0.00  0.00    +0.102 A 
ATOM      3  N   UNL     1       3.379  -8.770  -5.387  0.00  0.00    -0.351 N 
ATOM      4  C   UNL     1       4.132  -8.204  -6.344  0.00  0.00    +0.102 A 
ATOM      5  C   UNL     1       4.624  -6.924  -6.207  0.00  0.00    +0.100 A 
ATOM      6  C   UNL     1       4.298  -6.178  -4.981  0.00  0.00    +0.206 A 
ATOM      7  O   UNL     1       4.700  -5.040  -4.803  0.00  0.00    -0.286 OA
ENDROOT
BRANCH   1   9
ATOM      8  N   UNL     1       3.432  -4.905  -2.517  0.00  0.00    -0.311 N 
ATOM      9  C   UNL     1       3.104  -6.197  -2.715  0.00  0.00    +0.249 C 
ATOM     10  O   UNL     1       2.504  -6.811  -1.853  0.00  0.00    -0.270 OA
ATOM     11  H   UNL     1       3.974  -4.436  -3.171  0.00  0.00    +0.149 HD
BRANCH   8  12
ATOM     12  C   UNL     1       2.969  -4.207  -1.315  0.00  0.00    +0.108 C 
BRANCH  12  13
ATOM     13  C   UNL     1       3.475  -2.764  -1.335  0.00  0.00    +0.065 C 
BRANCH  13  19
ATOM     14  C   UNL     1      -0.140   1.330  -0.067  0.00  0.00    +0.002 A 
ATOM     15  C   UNL     1       1.024   2.119  -0.076  0.00  0.00    +0.002 A 
ATOM     16  C   UNL     1       2.263   1.587  -0.083  0.00  0.00    +0.027 A 
ATOM     17  C   UNL     1       2.425   0.127  -0.081  0.00  0.00    +0.060 A 
ATOM     18  N   UNL     1       3.471  -0.648  -0.086  0.00  0.00    -0.363 N 
ATOM     19  C   UNL     1       2.992  -2.036  -0.079  0.00  0.00    +0.175 C 
ATOM     20  N   UNL     1       1.525  -1.967  -0.070  0.00  0.00    -0.363 N 
ATOM     21  C   UNL     1       1.193  -0.709  -0.070  0.00  0.00    +0.060 A 
ATOM     22  C   UNL     1      -0.104  -0.018  -0.064  0.00  0.00    +0.027 A 
ATOM     23  H   UNL     1       4.397  -0.361  -0.093  0.00  0.00    +0.162 HD
ATOM     24  H   UNL     1       0.915  -2.721  -0.065  0.00  0.00    +0.162 HD
ENDBRANCH  13  19
ENDBRANCH  12  13
ENDBRANCH   8  12
ENDBRANCH   1   9
BRANCH   5  25
ATOM     25  C   UNL     1       5.450  -6.316  -7.265  0.00  0.00    +0.249 C 
ATOM     26  O   UNL     1       5.620  -6.902  -8.316  0.00  0.00    -0.270 OA
ATOM     27  N   UNL     1       6.017  -5.109  -7.066  0.00  0.00    -0.308 N 
ATOM     28  H   UNL     1       5.822  -4.608  -6.259  0.00  0.00    +0.149 HD
BRANCH  27  29
ATOM     29  C   UNL     1       6.927  -4.554  -8.071  0.00  0.00    +0.073 C 
ATOM     30  C   UNL     1       8.215  -3.896  -7.570  0.00  0.00    +0.024 C 
ATOM     31  C   UNL     1       7.079  -3.032  -8.122  0.00  0.00    +0.024 C 
ENDBRANCH  27  29
ENDBRANCH   5  25
BRANCH   3  32
ATOM     32  C   UNL     1       2.893 -10.135  -5.602  0.00  0.00    +0.124 C 
BRANCH  32  33
ATOM     33  C   UNL     1       1.534 -10.088  -6.304  0.00  0.00    +0.009 C 
ATOM     34  C   UNL     1       0.505  -9.432  -5.380  0.00  0.00    +0.005 C 
ATOM     35  C   UNL     1      -0.854  -9.385  -6.081  0.00  0.00    +0.000 C 
ATOM     36  C   UNL     1      -1.304 -10.808  -6.418  0.00  0.00    +0.000 C 
ATOM     37  C   UNL     1      -0.276 -11.463  -7.342  0.00  0.00    +0.000 C 
ATOM     38  C   UNL     1       1.083 -11.511  -6.640  0.00  0.00    +0.005 C 
ENDBRANCH  32  33
ENDBRANCH   3  32
TORSDOF 8
