REMARK  Name = ZINC40733007
REMARK  7 active torsions:
REMARK  status: ('A' for Active; 'I' for Inactive)
REMARK    1  A    between atoms: C_1  and  C_2
REMARK    2  A    between atoms: C_2  and  C_3
REMARK    3  A    between atoms: C_4  and  C_20
REMARK    4  A    between atoms: N_6  and  C_9
REMARK    5  A    between atoms: C_7  and  C_8
REMARK    6  A    between atoms: C_10  and  C_18
REMARK    7  A    between atoms: C_18  and  O_19
REMARK                            x       y       z     vdW  Elec       q    Type
REMARK                         _______ _______ _______ _____ _____    ______ ____
ROOT
ATOM      1  C   UNL     1       1.006  -1.600   4.585  0.00  0.00    +0.178 A 
ATOM      2  C   UNL     1       2.002  -2.012   5.410  0.00  0.00    +0.095 A 
ATOM      3  N   UNL     1       1.430  -2.301   6.620  0.00  0.00    -0.299 N 
ATOM      4  C   UNL     1       1.948  -2.749   7.800  0.00  0.00    +0.093 A 
ATOM      5  C   UNL     1       1.147  -2.957   8.867  0.00  0.00    +0.018 A 
ATOM      6  C   UNL     1      -0.233  -2.713   8.775  0.00  0.00    +0.005 A 
ATOM      7  C   UNL     1      -0.761  -2.266   7.604  0.00  0.00    +0.047 A 
ATOM      8  C   UNL     1       0.087  -2.054   6.499  0.00  0.00    +0.140 A 
ATOM      9  N   UNL     1      -0.145  -1.627   5.266  0.00  0.00    -0.209 NA
ENDROOT
BRANCH   1  13
ATOM     10  C   UNL     1       0.731  -0.503   1.223  0.00  0.00    -0.004 A 
ATOM     11  C   UNL     1       2.104  -0.754   1.317  0.00  0.00    +0.064 A 
ATOM     12  N   UNL     1       2.362  -1.175   2.529  0.00  0.00    -0.170 NA
ATOM     13  N   UNL     1       1.159  -1.205   3.247  0.00  0.00    -0.217 N 
ATOM     14  C   UNL     1       0.173  -0.783   2.424  0.00  0.00    +0.047 A 
ATOM     15  C   UNL     1      -1.285  -0.651   2.780  0.00  0.00    +0.066 C 
ATOM     16  C   UNL     1       3.112  -0.571   0.212  0.00  0.00    +0.068 C 
BRANCH  10  18
ATOM     17  C   UNL     1      -0.019   1.526   0.010  0.00  0.00    +0.009 C 
ATOM     18  C   UNL     1       0.002  -0.004   0.002  0.00  0.00    +0.035 C 
ENDBRANCH  10  18
ENDBRANCH   1  13
BRANCH   2  19
ATOM     19  C   UNL     1       3.463  -2.131   5.059  0.00  0.00    +0.213 C 
BRANCH  19  20
ATOM     20  O   UNL     1       3.727  -3.440   4.551  0.00  0.00    -0.389 OA
ATOM     21  H   UNL     1       4.650  -3.588   4.305  0.00  0.00    +0.210 HD
ENDBRANCH  19  20
ENDBRANCH   2  19
TORSDOF 4
