REMARK  Name = ZINC09411517
REMARK  14 active torsions:
REMARK  status: ('A' for Active; 'I' for Inactive)
REMARK    1  A    between atoms: C_1  and  C_2
REMARK    2  A    between atoms: C_2  and  C_3
REMARK    3  A    between atoms: C_3  and  O_4
REMARK    4  A    between atoms: O_4  and  C_5
REMARK    5  A    between atoms: C_8  and  C_11
REMARK    6  A    between atoms: C_18  and  N_36
REMARK    7  A    between atoms: C_19  and  C_34
REMARK    8  A    between atoms: C_20  and  C_22
REMARK    9  A    between atoms: C_25  and  O_32
REMARK   10  A    between atoms: C_26  and  O_30
REMARK   11  A    between atoms: C_27  and  O_28
REMARK   12  A    between atoms: O_28  and  C_29
REMARK   13  A    between atoms: O_30  and  C_31
REMARK   14  A    between atoms: O_32  and  C_33
REMARK                            x       y       z     vdW  Elec       q    Type
REMARK                         _______ _______ _______ _____ _____    ______ ____
ROOT
ATOM      1  C   UNL     1       3.524  -3.855  -6.254  0.00  0.00    +0.074 A 
ATOM      2  C   UNL     1       3.206  -5.105  -6.670  0.00  0.00    +0.054 A 
ATOM      3  C   UNL     1       3.944  -5.377  -7.839  0.00  0.00    +0.245 A 
ATOM      4  N   UNL     1       4.674  -4.333  -8.115  0.00  0.00    -0.135 NA
ATOM      5  N   UNL     1       4.432  -3.352  -7.142  0.00  0.00    -0.273 N 
ATOM      6  H   UNL     1       4.839  -2.472  -7.105  0.00  0.00    +0.189 HD
ATOM      7  O   UNL     1       3.842  -6.564  -8.495  0.00  0.00    -0.421 OA
ATOM      8  C   UNL     1       3.225  -7.577  -7.855  0.00  0.00    +0.201 C 
ATOM      9  C   UNL     1       2.482  -7.436  -6.737  0.00  0.00    +0.098 C 
ATOM     10  C   UNL     1       2.252  -6.104  -6.068  0.00  0.00    +0.105 C 
ENDROOT
BRANCH   1  14
ATOM     11  C   UNL     1       1.968  -1.865  -2.835  0.00  0.00    +0.121 A 
ATOM     12  C   UNL     1       1.977  -1.223  -4.066  0.00  0.00    +0.046 A 
ATOM     13  C   UNL     1       2.481  -1.865  -5.177  0.00  0.00    +0.013 A 
ATOM     14  C   UNL     1       2.983  -3.162  -5.064  0.00  0.00    +0.000 A 
ATOM     15  C   UNL     1       2.973  -3.804  -3.825  0.00  0.00    +0.013 A 
ATOM     16  C   UNL     1       2.472  -3.154  -2.717  0.00  0.00    +0.046 A 
BRANCH  11  17
ATOM     17  O   UNL     1       1.471  -1.230  -1.742  0.00  0.00    -0.492 OA
BRANCH  17  18
ATOM     18  C   UNL     1       0.969   0.095  -1.935  0.00  0.00    +0.229 C 
BRANCH  18  20
ATOM     19  C   UNL     1      -0.082   2.062  -0.808  0.00  0.00    +0.007 C 
ATOM     20  C   UNL     1       0.456   0.644  -0.602  0.00  0.00    +0.038 C 
ENDBRANCH  18  20
ENDBRANCH  17  18
ENDBRANCH  11  17
ENDBRANCH   1  14
BRANCH  10  21
ATOM     21  C   UNL     1       0.832  -5.656  -6.301  0.00  0.00    +0.011 A 
ATOM     22  C   UNL     1      -0.086  -5.708  -5.269  0.00  0.00    +0.012 A 
ATOM     23  C   UNL     1      -1.390  -5.298  -5.479  0.00  0.00    +0.050 A 
ATOM     24  C   UNL     1      -1.781  -4.833  -6.725  0.00  0.00    +0.165 A 
ATOM     25  C   UNL     1      -0.861  -4.780  -7.765  0.00  0.00    +0.204 A 
ATOM     26  C   UNL     1       0.451  -5.188  -7.549  0.00  0.00    +0.169 A 
BRANCH  26  27
ATOM     27  O   UNL     1       1.356  -5.132  -8.562  0.00  0.00    -0.491 OA
ATOM     28  C   UNL     1       1.326  -6.194  -9.518  0.00  0.00    +0.277 C 
ENDBRANCH  26  27
BRANCH  25  29
ATOM     29  O   UNL     1      -1.241  -4.325  -8.990  0.00  0.00    -0.488 OA
ATOM     30  C   UNL     1      -1.105  -2.923  -9.232  0.00  0.00    +0.277 C 
ENDBRANCH  25  29
BRANCH  24  31
ATOM     31  O   UNL     1      -3.064  -4.432  -6.930  0.00  0.00    -0.491 OA
ATOM     32  C   UNL     1      -3.956  -4.515  -5.817  0.00  0.00    +0.277 C 
ENDBRANCH  24  31
ENDBRANCH  10  21
BRANCH   8  33
ATOM     33  N   UNL     1       3.360  -8.839  -8.376  0.00  0.00    -0.328 N 
ATOM     34  H   UNL     1       3.886  -8.979  -9.179  0.00  0.00    +0.145 HD
ATOM     35  H   UNL     1       2.930  -9.592  -7.942  0.00  0.00    +0.145 HD
ENDBRANCH   8  33
BRANCH   9  36
ATOM     36  C   UNL     1       1.887  -8.603  -6.159  0.00  0.00    +0.101 C 
ATOM     37  N   UNL     1       1.415  -9.529  -5.702  0.00  0.00    -0.191 NA
ENDBRANCH   9  36
TORSDOF 10
