REMARK  Name = ZINC43736102
REMARK  15 active torsions:
REMARK  status: ('A' for Active; 'I' for Inactive)
REMARK    1  A    between atoms: C_1  and  C_2
REMARK    2  A    between atoms: C_2  and  O_3
REMARK    3  A    between atoms: O_3  and  C_4
REMARK    4  A    between atoms: N_6  and  N_7
REMARK    5  A    between atoms: C_8  and  C_9
REMARK    6  A    between atoms: C_8  and  C_10
REMARK    7  A    between atoms: C_10  and  O_42
REMARK    8  A    between atoms: C_11  and  O_38
REMARK    9  A    between atoms: C_16  and  C_37
REMARK   10  A    between atoms: C_26  and  C_36
REMARK   11  A    between atoms: C_29  and  O_32
REMARK   12  A    between atoms: O_32  and  C_33
REMARK   13  A    between atoms: C_33  and  C_35
REMARK   14  A    between atoms: O_38  and  C_39
REMARK   15  A    between atoms: C_39  and  C_41
REMARK                            x       y       z     vdW  Elec       q    Type
REMARK                         _______ _______ _______ _____ _____    ______ ____
ROOT
ATOM      1  C   UNL     1       2.521  -3.493   4.270  0.00  0.00    +0.147 C 
ATOM      2  C   UNL     1       3.972  -3.943   4.016  0.00  0.00    +0.214 C 
ATOM      3  C   UNL     1       3.983  -4.646   2.643  0.00  0.00    +0.052 C 
ATOM      4  C   UNL     1       2.532  -5.154   2.447  0.00  0.00    +0.005 C 
ATOM      5  C   UNL     1       1.678  -4.095   3.144  0.00  0.00    +0.009 C 
ATOM      6  C   UNL     1       0.308  -4.557   3.570  0.00  0.00    +0.010 C 
ATOM      7  C   UNL     1       0.320  -5.936   4.226  0.00  0.00    +0.005 C 
ATOM      8  C   UNL     1       0.951  -6.931   3.250  0.00  0.00    +0.003 C 
ATOM      9  C   UNL     1       2.413  -6.550   3.042  0.00  0.00    +0.001 C 
ATOM     10  C   UNL     1       3.162  -6.661   4.368  0.00  0.00    +0.031 C 
ATOM     11  C   UNL     1       2.956  -8.035   4.943  0.00  0.00    -0.027 C 
ATOM     12  C   UNL     1       1.918  -8.770   4.675  0.00  0.00    -0.064 C 
ATOM     13  C   UNL     1       0.811  -8.358   3.749  0.00  0.00    -0.008 C 
ATOM     14  C   UNL     1      -0.535  -8.554   4.447  0.00  0.00    +0.015 C 
ATOM     15  C   UNL     1      -0.655  -9.967   5.014  0.00  0.00    +0.046 C 
ATOM     16  C   UNL     1       0.456 -10.229   6.031  0.00  0.00    +0.180 C 
ATOM     17  C   UNL     1       1.819 -10.133   5.340  0.00  0.00    +0.075 C 
ATOM     18  C   UNL     1       0.851  -9.275   2.520  0.00  0.00    +0.016 C 
ATOM     19  C   UNL     1       1.448  -2.959   2.115  0.00  0.00    +0.015 C 
ENDROOT
BRANCH   1  21
ATOM     20  N   UNL     1       1.607  -1.349   4.932  0.00  0.00    -0.184 NA
ATOM     21  C   UNL     1       2.448  -1.982   4.203  0.00  0.00    +0.069 C 
ATOM     22  C   UNL     1       3.364  -1.224   3.278  0.00  0.00    +0.065 C 
BRANCH  20  25
ATOM     23  C   UNL     1      -0.182  -1.400   6.502  0.00  0.00    +0.420 C 
ATOM     24  O   UNL     1      -1.094  -1.991   7.045  0.00  0.00    -0.225 OA
ATOM     25  N   UNL     1       0.626  -2.053   5.643  0.00  0.00    -0.172 N 
ATOM     26  H   UNL     1       0.529  -3.010   5.516  0.00  0.00    +0.181 HD
BRANCH  23  27
ATOM     27  O   UNL     1       0.022  -0.094   6.758  0.00  0.00    -0.450 OA
BRANCH  27  29
ATOM     28  C   UNL     1      -0.487   2.006   7.841  0.00  0.00    +0.048 C 
ATOM     29  C   UNL     1      -0.873   0.534   7.678  0.00  0.00    +0.230 C 
ENDBRANCH  27  29
ENDBRANCH  23  27
ENDBRANCH  20  25
ENDBRANCH   1  21
BRANCH   1  30
ATOM     30  O   UNL     1       2.069  -3.927   5.551  0.00  0.00    -0.378 OA
ATOM     31  H   UNL     1       2.582  -3.572   6.290  0.00  0.00    +0.211 HD
ENDBRANCH   1  30
BRANCH  16  32
ATOM     32  O   UNL     1       0.384  -9.263   7.081  0.00  0.00    -0.461 OA
BRANCH  32  33
ATOM     33  C   UNL     1       0.805  -9.651   8.296  0.00  0.00    +0.304 C 
ATOM     34  O   UNL     1       1.221 -10.773   8.461  0.00  0.00    -0.251 OA
ATOM     35  C   UNL     1       0.758  -8.686   9.452  0.00  0.00    +0.136 C 
ENDBRANCH  32  33
ENDBRANCH  16  32
BRANCH   2  36
ATOM     36  O   UNL     1       4.836  -2.802   3.985  0.00  0.00    -0.458 OA
BRANCH  36  37
ATOM     37  C   UNL     1       6.103  -2.986   4.388  0.00  0.00    +0.304 C 
ATOM     38  O   UNL     1       6.468  -4.078   4.755  0.00  0.00    -0.251 OA
ATOM     39  C   UNL     1       7.071  -1.830   4.382  0.00  0.00    +0.136 C 
ENDBRANCH  36  37
ENDBRANCH   2  36
TORSDOF 9
