REMARK  Name = ZINC39688619
REMARK  10 active torsions:
REMARK  status: ('A' for Active; 'I' for Inactive)
REMARK    1  A    between atoms: C_1  and  C_2
REMARK    2  A    between atoms: C_3  and  C_12
REMARK    3  A    between atoms: C_7  and  O_8
REMARK    4  A    between atoms: O_8  and  C_9
REMARK    5  A    between atoms: C_9  and  C_11
REMARK    6  A    between atoms: C_16  and  C_25
REMARK    7  A    between atoms: N_27  and  C_28
REMARK    8  A    between atoms: C_28  and  C_30
REMARK    9  A    between atoms: C_28  and  C_31
REMARK   10  A    between atoms: C_31  and  C_32
REMARK                            x       y       z     vdW  Elec       q    Type
REMARK                         _______ _______ _______ _____ _____    ______ ____
ROOT
ATOM      1  C   UNL     1      -0.721  -0.542  -2.199  0.00  0.00    +0.247 C 
ATOM      2  O   UNL     1      -0.760   0.664  -2.342  0.00  0.00    -0.270 OA
ATOM      3  N   UNL     1      -0.580  -1.344  -3.274  0.00  0.00    -0.296 N 
ATOM      4  C   UNL     1      -0.612  -2.825  -3.312  0.00  0.00    +0.121 C 
ATOM      5  C   UNL     1      -1.384  -3.165  -4.606  0.00  0.00    +0.100 C 
ATOM      6  C   UNL     1      -1.213  -1.927  -5.503  0.00  0.00    -0.004 C 
ATOM      7  C   UNL     1      -0.365  -0.942  -4.685  0.00  0.00    +0.115 C 
ATOM      8  C   UNL     1      -0.490  -2.304  -6.792  0.00  0.00    -0.010 C 
ATOM      9  C   UNL     1      -0.384  -1.070  -7.692  0.00  0.00    -0.082 C 
ATOM     10  N   UNL     1      -1.728  -0.563  -7.992  0.00  0.00    +0.379 N 
ATOM     11  C   UNL     1      -2.382  -0.116  -6.756  0.00  0.00    -0.082 C 
ATOM     12  C   UNL     1      -2.573  -1.310  -5.816  0.00  0.00    -0.010 C 
ATOM     13  H   UNL     1      -1.658   0.213  -8.633  0.00  0.00    -0.086 HD
ATOM     14  H   UNL     1      -2.276  -1.297  -8.414  0.00  0.00    -0.086 HD
ENDROOT
BRANCH   1  17
ATOM     15  C   UNL     1      -2.459   0.686  -0.239  0.00  0.00    +0.048 C 
ATOM     16  C   UNL     1      -1.664  -0.547   0.106  0.00  0.00    +0.004 A 
ATOM     17  C   UNL     1      -0.829  -1.131  -0.847  0.00  0.00    +0.043 A 
ATOM     18  C   UNL     1      -0.096  -2.272  -0.520  0.00  0.00    +0.013 A 
ATOM     19  C   UNL     1      -0.199  -2.819   0.743  0.00  0.00    +0.004 A 
ATOM     20  C   UNL     1      -1.027  -2.239   1.687  0.00  0.00    +0.047 A 
ATOM     21  C   UNL     1      -1.756  -1.101   1.372  0.00  0.00    +0.135 A 
BRANCH  21  22
ATOM     22  O   UNL     1      -2.565  -0.532   2.305  0.00  0.00    -0.426 OA
BRANCH  22  23
ATOM     23  C   UNL     1      -2.130   0.577   2.925  0.00  0.00    +0.309 C 
ATOM     24  O   UNL     1      -1.012   0.986   2.717  0.00  0.00    -0.251 OA
ATOM     25  C   UNL     1      -3.035   1.311   3.879  0.00  0.00    +0.136 C 
ENDBRANCH  22  23
ENDBRANCH  21  22
ENDBRANCH   1  17
BRANCH   5  26
ATOM     26  C   UNL     1      -2.842  -3.397  -4.301  0.00  0.00    +0.218 C 
ATOM     27  O   UNL     1      -3.387  -2.760  -3.425  0.00  0.00    -0.275 OA
ATOM     28  N   UNL     1      -3.539  -4.314  -5.002  0.00  0.00    -0.312 N 
ATOM     29  H   UNL     1      -3.087  -4.874  -5.652  0.00  0.00    +0.149 HD
BRANCH  28  30
ATOM     30  C   UNL     1      -4.980  -4.463  -4.781  0.00  0.00    +0.074 C 
ATOM     31  C   UNL     1      -5.739  -3.522  -5.718  0.00  0.00    +0.028 C 
BRANCH  30  32
ATOM     32  C   UNL     1      -5.392  -5.909  -5.067  0.00  0.00    +0.057 C 
BRANCH  32  33
ATOM     33  C   UNL     1      -4.734  -6.825  -4.067  0.00  0.00    -0.045 A 
ATOM     34  C   UNL     1      -3.451  -7.287  -4.294  0.00  0.00    +0.006 A 
ATOM     35  C   UNL     1      -2.847  -8.127  -3.378  0.00  0.00    +0.038 A 
ATOM     36  C   UNL     1      -3.527  -8.506  -2.232  0.00  0.00    +0.123 A 
ATOM     37  C   UNL     1      -4.812  -8.042  -2.007  0.00  0.00    +0.038 A 
ATOM     38  C   UNL     1      -5.412  -7.198  -2.921  0.00  0.00    +0.006 A 
ATOM     39  F   UNL     1      -2.937  -9.327  -1.337  0.00  0.00    -0.205 F 
ENDBRANCH  32  33
ENDBRANCH  30  32
ENDBRANCH  28  30
ENDBRANCH   5  26
TORSDOF 7
