REMARK  Name = ZINC38903531
REMARK  14 active torsions:
REMARK  status: ('A' for Active; 'I' for Inactive)
REMARK    1  A    between atoms: C_1  and  C_2
REMARK    2  A    between atoms: C_2  and  C_3
REMARK    3  A    between atoms: C_2  and  C_4
REMARK    4  A    between atoms: C_4  and  C_5
REMARK    5  A    between atoms: C_5  and  C_7
REMARK    6  A    between atoms: C_5  and  N_13
REMARK    7  A    between atoms: C_14  and  C_16
REMARK    8  A    between atoms: N_21  and  C_23
REMARK    9  A    between atoms: C_23  and  C_24
REMARK   10  A    between atoms: C_26  and  C_29
REMARK   11  A    between atoms: C_32  and  C_35
REMARK   12  A    between atoms: C_35  and  C_36
REMARK   13  A    between atoms: C_35  and  C_37
REMARK   14  A    between atoms: C_35  and  C_38
REMARK                            x       y       z     vdW  Elec       q    Type
REMARK                         _______ _______ _______ _____ _____    ______ ____
ROOT
ATOM      1  C   UNL     1      -0.811   3.555  -1.603  0.00  0.00    +0.058 C 
ATOM      2  C   UNL     1      -1.951   4.183  -2.410  0.00  0.00    +0.009 C 
ATOM      3  C   UNL     1      -1.782   5.705  -2.413  0.00  0.00    -0.018 C 
ATOM      4  C   UNL     1      -0.406   6.059  -2.982  0.00  0.00    -0.078 C 
ATOM      5  N   UNL     1       0.642   5.451  -2.152  0.00  0.00    +0.386 N 
ATOM      6  C   UNL     1       0.530   3.988  -2.200  0.00  0.00    -0.065 C 
ATOM      7  H   UNL     1       0.537   5.763  -1.198  0.00  0.00    -0.081 HD
ENDROOT
BRANCH   1   9
ATOM      8  N   UNL     1      -2.029   1.443  -1.185  0.00  0.00    -0.308 N 
ATOM      9  C   UNL     1      -0.924   2.053  -1.657  0.00  0.00    +0.215 C 
ATOM     10  O   UNL     1      -0.021   1.393  -2.126  0.00  0.00    -0.276 OA
ATOM     11  H   UNL     1      -2.781   1.973  -0.876  0.00  0.00    +0.149 HD
BRANCH   8  12
ATOM     12  C   UNL     1      -2.095  -0.019  -1.137  0.00  0.00    +0.103 C 
BRANCH  12  13
ATOM     13  C   UNL     1      -3.537  -0.456  -1.090  0.00  0.00    -0.027 A 
ATOM     14  C   UNL     1      -4.448   0.249  -0.325  0.00  0.00    +0.005 A 
ATOM     15  C   UNL     1      -5.770  -0.152  -0.282  0.00  0.00    +0.000 A 
ATOM     16  C   UNL     1      -6.182  -1.257  -1.004  0.00  0.00    +0.000 A 
ATOM     17  C   UNL     1      -5.271  -1.961  -1.769  0.00  0.00    +0.000 A 
ATOM     18  C   UNL     1      -3.950  -1.558  -1.816  0.00  0.00    +0.005 A 
ENDBRANCH  12  13
BRANCH  12  19
ATOM     19  C   UNL     1      -1.369  -0.522   0.112  0.00  0.00    +0.030 C 
BRANCH  19  21
ATOM     20  C   UNL     1      -0.439  -2.506  -1.089  0.00  0.00    +0.007 C 
ATOM     21  C   UNL     1      -1.308  -2.051   0.085  0.00  0.00    -0.015 C 
ATOM     22  C   UNL     1      -0.702  -2.560   1.395  0.00  0.00    +0.007 C 
ENDBRANCH  19  21
ENDBRANCH  12  19
ENDBRANCH   8  12
ENDBRANCH   1   9
BRANCH   5  23
ATOM     23  C   UNL     1       1.961   5.856  -2.655  0.00  0.00    +0.022 C 
BRANCH  23  24
ATOM     24  C   UNL     1       2.128   7.344  -2.483  0.00  0.00    +0.211 A 
ATOM     25  N   UNL     1       2.632   7.937  -1.439  0.00  0.00    -0.193 NA
ATOM     26  C   UNL     1       2.632   9.270  -1.621  0.00  0.00    +0.202 A 
ATOM     27  N   UNL     1       2.120   9.531  -2.799  0.00  0.00    -0.056 NA
ATOM     28  O   UNL     1       1.789   8.279  -3.380  0.00  0.00    -0.340 OA
BRANCH  26  29
ATOM     29  C   UNL     1       3.128  10.277  -0.650  0.00  0.00    +0.022 A 
ATOM     30  C   UNL     1       3.656   9.868   0.573  0.00  0.00    +0.012 A 
ATOM     31  C   UNL     1       4.116  10.808   1.472  0.00  0.00    +0.005 A 
ATOM     32  C   UNL     1       4.052  12.155   1.162  0.00  0.00    -0.042 A 
ATOM     33  C   UNL     1       3.529  12.566  -0.051  0.00  0.00    +0.005 A 
ATOM     34  C   UNL     1       3.072  11.634  -0.960  0.00  0.00    +0.012 A 
BRANCH  32  35
ATOM     35  C   UNL     1       4.555  13.177   2.148  0.00  0.00    -0.013 C 
ATOM     36  C   UNL     1       6.039  12.930   2.427  0.00  0.00    +0.015 C 
ATOM     37  C   UNL     1       4.372  14.580   1.566  0.00  0.00    +0.015 C 
ATOM     38  C   UNL     1       3.764  13.059   3.453  0.00  0.00    +0.015 C 
ENDBRANCH  32  35
ENDBRANCH  26  29
ENDBRANCH  23  24
ENDBRANCH   5  23
TORSDOF 9
