REMARK  Name = ZINC02707343
REMARK  9 active torsions:
REMARK  status: ('A' for Active; 'I' for Inactive)
REMARK    1  A    between atoms: C_1  and  C_2
REMARK    2  A    between atoms: C_2  and  O_3
REMARK    3  A    between atoms: O_3  and  C_4
REMARK    4  A    between atoms: C_7  and  C_12
REMARK    5  A    between atoms: C_9  and  O_10
REMARK    6  A    between atoms: O_10  and  C_11
REMARK    7  A    between atoms: C_29  and  C_31
REMARK    8  A    between atoms: C_36  and  O_37
REMARK    9  A    between atoms: O_37  and  C_38
REMARK                            x       y       z     vdW  Elec       q    Type
REMARK                         _______ _______ _______ _____ _____    ______ ____
ROOT
ATOM      1  C   UNL     1       2.816   4.114   2.565  0.00  0.00    +0.234 C 
ATOM      2  C   UNL     1       2.523   4.886   1.298  0.00  0.00    +0.025 C 
ATOM      3  C   UNL     1       2.348   6.207   1.368  0.00  0.00    +0.050 C 
ATOM      4  C   UNL     1       2.401   6.857   2.700  0.00  0.00    +0.038 A 
ATOM      5  C   UNL     1       2.551   8.232   2.831  0.00  0.00    +0.013 A 
ATOM      6  C   UNL     1       2.594   8.795   4.093  0.00  0.00    +0.001 A 
ATOM      7  C   UNL     1       2.489   7.996   5.218  0.00  0.00    +0.004 A 
ATOM      8  C   UNL     1       2.340   6.626   5.096  0.00  0.00    +0.046 A 
ATOM      9  C   UNL     1       2.296   6.050   3.840  0.00  0.00    +0.131 A 
ATOM     10  O   UNL     1       2.152   4.710   3.679  0.00  0.00    -0.479 OA
ATOM     11  N   UNL     1       2.106   6.989   0.233  0.00  0.00    -0.283 N 
ATOM     12  C   UNL     1       2.320   6.399  -1.003  0.00  0.00    +0.219 A 
ATOM     13  N   UNL     1       2.404   6.930  -2.192  0.00  0.00    -0.201 NA
ATOM     14  C   UNL     1       2.631   5.970  -3.095  0.00  0.00    +0.247 A 
ATOM     15  N   UNL     1       2.692   4.812  -2.486  0.00  0.00    -0.156 NA
ATOM     16  N   UNL     1       2.490   5.059  -1.128  0.00  0.00    -0.221 N 
ATOM     17  C   UNL     1       2.450   4.130  -0.005  0.00  0.00    +0.176 C 
ATOM     18  H   UNL     1       1.801   7.906   0.308  0.00  0.00    +0.155 HD
ENDROOT
BRANCH   1  22
ATOM     19  C   UNL     1       7.033   4.114   3.275  0.00  0.00    +0.162 A 
ATOM     20  C   UNL     1       6.283   5.251   3.534  0.00  0.00    +0.050 A 
ATOM     21  C   UNL     1       4.920   5.248   3.303  0.00  0.00    +0.011 A 
ATOM     22  C   UNL     1       4.302   4.112   2.814  0.00  0.00    +0.001 A 
ATOM     23  C   UNL     1       5.043   2.973   2.558  0.00  0.00    +0.057 A 
ATOM     24  C   UNL     1       6.410   2.972   2.782  0.00  0.00    +0.162 A 
BRANCH  24  25
ATOM     25  O   UNL     1       7.141   1.854   2.526  0.00  0.00    -0.491 OA
ATOM     26  C   UNL     1       6.436   0.719   2.021  0.00  0.00    +0.277 C 
ENDBRANCH  24  25
BRANCH  19  27
ATOM     27  O   UNL     1       8.374   4.116   3.502  0.00  0.00    -0.489 OA
BRANCH  27  29
ATOM     28  C   UNL     1      10.451   5.135   4.199  0.00  0.00    +0.048 C 
ATOM     29  C   UNL     1       8.944   5.324   4.009  0.00  0.00    +0.226 C 
ENDBRANCH  27  29
ENDBRANCH  19  27
ENDBRANCH   1  22
BRANCH  17  30
ATOM     30  C   UNL     1       1.168   3.341  -0.054  0.00  0.00    +0.023 A 
ATOM     31  C   UNL     1      -0.049   3.994   0.009  0.00  0.00    +0.009 A 
ATOM     32  C   UNL     1      -1.226   3.270  -0.035  0.00  0.00    +0.001 A 
ATOM     33  C   UNL     1      -1.190   1.893  -0.149  0.00  0.00    +0.004 A 
ATOM     34  C   UNL     1       0.024   1.235  -0.207  0.00  0.00    +0.046 A 
ATOM     35  C   UNL     1       1.207   1.959  -0.162  0.00  0.00    +0.126 A 
BRANCH  35  36
ATOM     36  O   UNL     1       2.401   1.314  -0.224  0.00  0.00    -0.495 OA
ATOM     37  C   UNL     1       2.365  -0.110  -0.334  0.00  0.00    +0.277 C 
ENDBRANCH  35  36
ENDBRANCH  17  30
TORSDOF 6
