REMARK  Name = ZINC21114559
REMARK  3 active torsions:
REMARK  status: ('A' for Active; 'I' for Inactive)
REMARK    1  A    between atoms: C_4  and  C_7
REMARK    2  A    between atoms: C_9  and  C_15
REMARK    3  A    between atoms: C_15  and  C_16
REMARK                            x       y       z     vdW  Elec       q    Type
REMARK                         _______ _______ _______ _____ _____    ______ ____
ROOT
ATOM      1  C   UNL     1       3.698  -0.688  -0.038  0.00  0.00    +0.180 A 
ATOM      2  N   UNL     1       3.702  -2.028  -0.051  0.00  0.00    -0.225 NA
ATOM      3  C   UNL     1       4.842  -2.676  -0.067  0.00  0.00    +0.116 A 
ATOM      4  C   UNL     1       6.047  -1.924  -0.070  0.00  0.00    +0.287 A 
ATOM      5  O   UNL     1       7.131  -2.483  -0.084  0.00  0.00    -0.264 OA
ATOM      6  N   UNL     1       5.967  -0.576  -0.056  0.00  0.00    -0.240 N 
ATOM      7  H   UNL     1       6.777  -0.042  -0.058  0.00  0.00    +0.192 HD
ATOM      8  N   UNL     1       4.816   0.001  -0.046  0.00  0.00    -0.151 NA
ENDROOT
BRANCH   1  12
ATOM      9  C   UNL     1      -0.017   1.379   0.010  0.00  0.00    +0.000 A 
ATOM     10  C   UNL     1       1.169   2.092   0.002  0.00  0.00    +0.001 A 
ATOM     11  C   UNL     1       2.377   1.426  -0.013  0.00  0.00    +0.011 A 
ATOM     12  C   UNL     1       2.402   0.033  -0.021  0.00  0.00    +0.021 A 
ATOM     13  C   UNL     1       1.205  -0.680  -0.013  0.00  0.00    +0.011 A 
ATOM     14  C   UNL     1       0.002  -0.004   0.002  0.00  0.00    +0.001 A 
ENDBRANCH   1  12
BRANCH   3  15
ATOM     15  C   UNL     1       4.873  -4.183  -0.081  0.00  0.00    +0.135 C 
BRANCH  15  16
ATOM     16  C   UNL     1       3.463  -4.714  -0.073  0.00  0.00    +0.111 A 
ATOM     17  C   UNL     1       2.720  -4.987  -1.161  0.00  0.00    +0.045 A 
ATOM     18  C   UNL     1       1.471  -5.461  -0.695  0.00  0.00    +0.041 A 
ATOM     19  C   UNL     1       1.527  -5.449   0.649  0.00  0.00    +0.195 A 
ATOM     20  O   UNL     1       2.738  -5.002   1.020  0.00  0.00    -0.467 OA
ENDBRANCH  15  16
ENDBRANCH   3  15
TORSDOF 3
