REMARK  Name = ZINC54260236
REMARK  10 active torsions:
REMARK  status: ('A' for Active; 'I' for Inactive)
REMARK    1  A    between atoms: C_1  and  C_2
REMARK    2  A    between atoms: C_5  and  C_32
REMARK    3  A    between atoms: N_8  and  C_10
REMARK    4  A    between atoms: C_10  and  C_11
REMARK    5  A    between atoms: C_10  and  C_12
REMARK    6  A    between atoms: C_10  and  C_13
REMARK    7  A    between atoms: C_13  and  N_14
REMARK    8  A    between atoms: C_15  and  C_17
REMARK    9  A    between atoms: C_17  and  C_18
REMARK   10  A    between atoms: C_18  and  N_19
REMARK                            x       y       z     vdW  Elec       q    Type
REMARK                         _______ _______ _______ _____ _____    ______ ____
ROOT
ATOM      1  N   UNL     1       3.474  -2.390   0.904  0.00  0.00    -0.317 N 
ATOM      2  C   UNL     1       4.768  -2.196   0.578  0.00  0.00    +0.215 C 
ATOM      3  O   UNL     1       5.533  -1.722   1.391  0.00  0.00    -0.276 OA
ATOM      4  H   UNL     1       2.862  -2.769   0.254  0.00  0.00    +0.149 HD
ENDROOT
BRANCH   1   5
ATOM      5  C   UNL     1       2.993  -2.028   2.239  0.00  0.00    +0.092 C 
BRANCH   5   6
ATOM      6  C   UNL     1       1.478  -2.227   2.306  0.00  0.00    -0.055 C 
ATOM      7  C   UNL     1       0.963  -1.768   3.672  0.00  0.00    -0.008 C 
ATOM      8  C   UNL     1       1.148  -3.708   2.108  0.00  0.00    -0.008 C 
BRANCH   6  14
ATOM      9  C   UNL     1       0.932   2.275   0.460  0.00  0.00    +0.005 C 
ATOM     10  C   UNL     1       0.574   0.798   0.277  0.00  0.00    -0.031 C 
ATOM     11  C   UNL     1      -0.949   0.636   0.287  0.00  0.00    +0.003 C 
ATOM     12  C   UNL     1      -1.294  -0.852   0.182  0.00  0.00    -0.031 C 
ATOM     13  C   UNL     1      -0.623  -1.609   1.330  0.00  0.00    -0.075 C 
ATOM     14  N   UNL     1       0.833  -1.436   1.250  0.00  0.00    +0.384 N 
ATOM     15  C   UNL     1       1.177  -0.019   1.421  0.00  0.00    -0.075 C 
ATOM     16  C   UNL     1      -2.811  -1.032   0.269  0.00  0.00    +0.005 C 
ATOM     17  H   UNL     1       1.159  -1.753   0.349  0.00  0.00    -0.081 HD
ENDBRANCH   6  14
ENDBRANCH   5   6
ENDBRANCH   1   5
BRANCH   2  18
ATOM     18  C   UNL     1       5.263  -2.568  -0.796  0.00  0.00    +0.117 C 
BRANCH  18  19
ATOM     19  C   UNL     1       6.755  -2.248  -0.904  0.00  0.00    +0.136 C 
BRANCH  19  20
ATOM     20  N   UNL     1       7.236  -2.610  -2.240  0.00  0.00    -0.293 N 
ATOM     21  C   UNL     1       7.722  -3.889  -2.472  0.00  0.00    +0.059 A 
ATOM     22  C   UNL     1       7.767  -4.843  -1.467  0.00  0.00    +0.027 A 
ATOM     23  C   UNL     1       8.258  -6.103  -1.740  0.00  0.00    +0.002 A 
ATOM     24  C   UNL     1       8.709  -6.426  -3.010  0.00  0.00    +0.001 A 
ATOM     25  C   UNL     1       8.673  -5.491  -4.023  0.00  0.00    +0.015 A 
ATOM     26  C   UNL     1       8.179  -4.215  -3.761  0.00  0.00    +0.063 A 
ATOM     27  C   UNL     1       8.118  -3.178  -4.806  0.00  0.00    +0.262 A 
ATOM     28  O   UNL     1       8.499  -3.408  -5.937  0.00  0.00    -0.267 OA
ATOM     29  N   UNL     1       7.626  -1.964  -4.474  0.00  0.00    -0.274 N 
ATOM     30  H   UNL     1       7.579  -1.269  -5.150  0.00  0.00    +0.173 HD
ATOM     31  C   UNL     1       7.198  -1.702  -3.230  0.00  0.00    +0.330 A 
ATOM     32  O   UNL     1       6.760  -0.594  -2.986  0.00  0.00    -0.246 OA
ENDBRANCH  19  20
ENDBRANCH  18  19
ENDBRANCH   2  18
TORSDOF 6
