REMARK  Name = ZINC20763922
REMARK  7 active torsions:
REMARK  status: ('A' for Active; 'I' for Inactive)
REMARK    1  A    between atoms: C_1  and  C_2
REMARK    2  A    between atoms: C_2  and  O_3
REMARK    3  A    between atoms: O_3  and  C_4
REMARK    4  A    between atoms: C_7  and  C_10
REMARK    5  A    between atoms: C_12  and  C_26
REMARK    6  A    between atoms: C_15  and  C_18
REMARK    7  A    between atoms: C_23  and  O_24
REMARK                            x       y       z     vdW  Elec       q    Type
REMARK                         _______ _______ _______ _____ _____    ______ ____
ROOT
ATOM      1  C   UNL     1       4.381   3.536  -1.407  0.00  0.00    +0.040 C 
ATOM      2  N   UNL     1       3.500   3.107  -0.584  0.00  0.00    -0.298 NA
ATOM      3  C   UNL     1       2.452   3.936  -0.001  0.00  0.00    +0.082 C 
ATOM      4  N   UNL     1       2.276   5.169  -0.776  0.00  0.00    +0.401 N 
ATOM      5  C   UNL     1       3.574   5.838  -0.970  0.00  0.00    -0.028 C 
ATOM      6  C   UNL     1       4.433   4.960  -1.885  0.00  0.00    +0.044 C 
ATOM      7  H   UNL     1       1.846   4.926  -1.759  0.00  0.00    -0.081 HD
ATOM      8  H   UNL     1       1.598   5.848  -0.237  0.00  0.00    -0.081 HD
ENDROOT
BRANCH   3   9
ATOM      9  C   UNL     1       1.157   3.165   0.008  0.00  0.00    -0.022 A 
ATOM     10  C   UNL     1       1.175   1.783   0.000  0.00  0.00    +0.006 A 
ATOM     11  C   UNL     1      -0.013   1.076   0.008  0.00  0.00    +0.020 A 
ATOM     12  C   UNL     1      -1.220   1.751   0.017  0.00  0.00    +0.042 A 
ATOM     13  C   UNL     1      -1.239   3.134   0.030  0.00  0.00    +0.040 A 
ATOM     14  C   UNL     1      -0.050   3.841   0.023  0.00  0.00    +0.046 A 
ATOM     15 CL   UNL     1      -0.072   5.577   0.032  0.00  0.00    -0.083 Cl
ATOM     16 CL   UNL     1      -2.712   0.863   0.019  0.00  0.00    -0.083 Cl
ENDBRANCH   3   9
BRANCH   5  17
ATOM     17  C   UNL     1       3.361   7.185  -1.610  0.00  0.00    -0.018 A 
ATOM     18  C   UNL     1       2.190   7.449  -2.294  0.00  0.00    +0.020 A 
ATOM     19  C   UNL     1       1.992   8.687  -2.877  0.00  0.00    +0.018 A 
ATOM     20  C   UNL     1       2.971   9.661  -2.788  0.00  0.00    +0.019 A 
ATOM     21  C   UNL     1       4.146   9.400  -2.110  0.00  0.00    +0.047 A 
ATOM     22  C   UNL     1       4.344   8.160  -1.519  0.00  0.00    +0.119 A 
ATOM     23 BR   UNL     1       0.385   9.047  -3.806  0.00  0.00    -0.050 Br
BRANCH  22  24
ATOM     24  O   UNL     1       5.500   7.901  -0.852  0.00  0.00    -0.507 OA
ATOM     25  H   UNL     1       6.278   8.675  -0.779  0.00  0.00    +0.292 HD
ENDBRANCH  22  24
ENDBRANCH   5  17
BRANCH   1  29
ATOM     26  C   UNL     1       7.294   0.809  -2.856  0.00  0.00    +0.121 A 
ATOM     27  C   UNL     1       6.324   0.375  -1.961  0.00  0.00    +0.046 A 
ATOM     28  C   UNL     1       5.377   1.256  -1.488  0.00  0.00    +0.013 A 
ATOM     29  C   UNL     1       5.393   2.589  -1.910  0.00  0.00    -0.004 A 
ATOM     30  C   UNL     1       6.367   3.019  -2.815  0.00  0.00    +0.013 A 
ATOM     31  C   UNL     1       7.313   2.132  -3.279  0.00  0.00    +0.046 A 
BRANCH  26  32
ATOM     32  O   UNL     1       8.226  -0.063  -3.320  0.00  0.00    -0.492 OA
BRANCH  32  34
ATOM     33  C   UNL     1      10.152  -0.672  -4.646  0.00  0.00    +0.048 C 
ATOM     34  C   UNL     1       9.194   0.449  -4.237  0.00  0.00    +0.225 C 
ENDBRANCH  32  34
ENDBRANCH  26  32
ENDBRANCH   1  29
TORSDOF 6
