REMARK  Name = ZINC39752974
REMARK  15 active torsions:
REMARK  status: ('A' for Active; 'I' for Inactive)
REMARK    1  A    between atoms: C_1  and  C_2
REMARK    2  A    between atoms: C_5  and  N_8
REMARK    3  A    between atoms: C_9  and  C_11
REMARK    4  A    between atoms: C_11  and  C_13
REMARK    5  A    between atoms: C_11  and  S_14
REMARK    6  A    between atoms: S_14  and  C_15
REMARK    7  A    between atoms: C_18  and  C_21
REMARK    8  A    between atoms: N_19  and  C_20
REMARK    9  A    between atoms: C_21  and  C_23
REMARK   10  A    between atoms: C_21  and  N_26
REMARK   11  A    between atoms: C_23  and  C_24
REMARK   12  A    between atoms: C_23  and  C_25
REMARK   13  A    between atoms: C_27  and  C_29
REMARK   14  A    between atoms: C_32  and  O_35
REMARK   15  A    between atoms: O_35  and  C_36
REMARK                            x       y       z     vdW  Elec       q    Type
REMARK                         _______ _______ _______ _____ _____    ______ ____
ROOT
ATOM      1  C   UNL     1      -0.201  -8.771   2.469  0.00  0.00    +0.192 A 
ATOM      2  N   UNL     1       0.205  -9.399   1.390  0.00  0.00    -0.122 NA
ATOM      3  N   UNL     1       0.131 -10.670   1.571  0.00  0.00    -0.132 NA
ATOM      4  C   UNL     1      -0.322 -10.926   2.765  0.00  0.00    +0.155 A 
ATOM      5  N   UNL     1      -0.545  -9.726   3.382  0.00  0.00    -0.308 N 
ATOM      6  C   UNL     1      -1.050  -9.511   4.740  0.00  0.00    +0.152 C 
ENDROOT
BRANCH   1   7
ATOM      7  S   UNL     1      -0.281  -7.026   2.698  0.00  0.00    -0.074 S 
BRANCH   7   8
ATOM      8  C   UNL     1       0.309  -6.349   1.121  0.00  0.00    +0.137 C 
ATOM      9  C   UNL     1       1.777  -6.729   0.921  0.00  0.00    +0.029 C 
BRANCH   8  11
ATOM     10  N   UNL     1       0.059  -4.170  -0.021  0.00  0.00    -0.285 N 
ATOM     11  C   UNL     1       0.175  -4.848   1.138  0.00  0.00    +0.230 C 
ATOM     12  O   UNL     1       0.173  -4.251   2.193  0.00  0.00    -0.274 OA
ATOM     13  H   UNL     1      -0.017  -4.651  -0.860  0.00  0.00    +0.155 HD
BRANCH  10  18
ATOM     14  C   UNL     1       0.008   1.503   0.007  0.00  0.00    +0.044 C 
ATOM     15  C   UNL     1       0.022  -0.004  -0.001  0.00  0.00    -0.050 A 
ATOM     16  C   UNL     1       0.777  -0.692   0.931  0.00  0.00    +0.005 A 
ATOM     17  C   UNL     1       0.791  -2.073   0.927  0.00  0.00    +0.023 A 
ATOM     18  C   UNL     1       0.046  -2.771  -0.014  0.00  0.00    +0.033 A 
ATOM     19  C   UNL     1      -0.712  -2.077  -0.948  0.00  0.00    +0.023 A 
ATOM     20  C   UNL     1      -0.726  -0.696  -0.936  0.00  0.00    +0.005 A 
ENDBRANCH  10  18
ENDBRANCH   8  11
ENDBRANCH   7   8
ENDBRANCH   1   7
BRANCH   4  21
ATOM     21  C   UNL     1      -0.553 -12.292   3.358  0.00  0.00    +0.144 C 
BRANCH  21  22
ATOM     22  N   UNL     1       0.599 -13.151   3.069  0.00  0.00    -0.301 N 
ATOM     23  C   UNL     1       0.877 -14.198   3.871  0.00  0.00    +0.245 C 
ATOM     24  O   UNL     1       0.173 -14.429   4.835  0.00  0.00    -0.270 OA
ATOM     25  H   UNL     1       1.160 -12.966   2.300  0.00  0.00    +0.150 HD
BRANCH  23  26
ATOM     26  C   UNL     1       2.037 -15.063   3.579  0.00  0.00    +0.037 A 
ATOM     27  C   UNL     1       2.850 -14.795   2.475  0.00  0.00    +0.016 A 
ATOM     28  C   UNL     1       3.932 -15.604   2.207  0.00  0.00    +0.046 A 
ATOM     29  C   UNL     1       4.214 -16.687   3.032  0.00  0.00    +0.120 A 
ATOM     30  C   UNL     1       3.407 -16.956   4.131  0.00  0.00    +0.046 A 
ATOM     31  C   UNL     1       2.327 -16.148   4.410  0.00  0.00    +0.016 A 
BRANCH  29  32
ATOM     32  O   UNL     1       5.280 -17.482   2.763  0.00  0.00    -0.495 OA
ATOM     33  C   UNL     1       5.513 -18.577   3.652  0.00  0.00    +0.277 C 
ENDBRANCH  29  32
ENDBRANCH  23  26
ENDBRANCH  21  22
BRANCH  21  34
ATOM     34  C   UNL     1      -1.814 -12.907   2.749  0.00  0.00    +0.011 C 
ATOM     35  C   UNL     1      -2.048 -14.294   3.351  0.00  0.00    +0.009 C 
ATOM     36  C   UNL     1      -3.016 -12.010   3.051  0.00  0.00    +0.009 C 
ENDBRANCH  21  34
ENDBRANCH   4  21
TORSDOF 9
