REMARK  Name = ZINC04406348
REMARK  7 active torsions:
REMARK  status: ('A' for Active; 'I' for Inactive)
REMARK    1  A    between atoms: C_1  and  N_2
REMARK    2  A    between atoms: N_2  and  C_3
REMARK    3  A    between atoms: N_2  and  C_4
REMARK    4  A    between atoms: C_7  and  C_10
REMARK    5  A    between atoms: C_11  and  C_12
REMARK    6  A    between atoms: C_14  and  C_18
REMARK    7  A    between atoms: C_23  and  O_24
REMARK                            x       y       z     vdW  Elec       q    Type
REMARK                         _______ _______ _______ _____ _____    ______ ____
ROOT
ATOM      1  C   UNL     1      -7.282  -2.989   0.048  0.00  0.00    +0.175 A 
ATOM      2  N   UNL     1      -8.509  -2.450   0.051  0.00  0.00    -0.207 NA
ATOM      3  C   UNL     1      -9.414  -3.406   0.057  0.00  0.00    +0.160 A 
ATOM      4  N   UNL     1      -8.763  -4.600   0.057  0.00  0.00    -0.258 N 
ATOM      5  H   UNL     1      -9.167  -5.481   0.060  0.00  0.00    +0.191 HD
ATOM      6  N   UNL     1      -7.390  -4.303   0.045  0.00  0.00    -0.153 NA
ENDROOT
BRANCH   3   7
ATOM      7  C   UNL     1     -10.880  -3.215   0.063  0.00  0.00    +0.060 A 
ATOM      8  C   UNL     1     -11.731  -4.320   0.075  0.00  0.00    +0.015 A 
ATOM      9  C   UNL     1     -13.098  -4.136   0.080  0.00  0.00    +0.001 A 
ATOM     10  C   UNL     1     -13.629  -2.858   0.074  0.00  0.00    +0.004 A 
ATOM     11  C   UNL     1     -12.797  -1.756   0.061  0.00  0.00    +0.046 A 
ATOM     12  C   UNL     1     -11.421  -1.924   0.062  0.00  0.00    +0.128 A 
BRANCH  12  13
ATOM     13  O   UNL     1     -10.602  -0.841   0.056  0.00  0.00    -0.506 OA
ATOM     14  H   UNL     1     -10.368  -0.530  -0.829  0.00  0.00    +0.292 HD
ENDBRANCH  12  13
ENDBRANCH   3   7
BRANCH   1  16
ATOM     15  C   UNL     1      -4.843  -2.890   0.031  0.00  0.00    +0.011 C 
ATOM     16  C   UNL     1      -6.015  -2.235   0.041  0.00  0.00    +0.050 C 
BRANCH  15  20
ATOM     17  C   UNL     1      -1.196  -0.718   0.010  0.00  0.00    +0.029 A 
ATOM     18  C   UNL     1      -1.175  -2.109   0.008  0.00  0.00    +0.023 A 
ATOM     19  C   UNL     1      -2.357  -2.817   0.015  0.00  0.00    +0.010 A 
ATOM     20  C   UNL     1      -3.578  -2.136   0.024  0.00  0.00    -0.025 A 
ATOM     21  C   UNL     1      -3.595  -0.738   0.027  0.00  0.00    +0.010 A 
ATOM     22  C   UNL     1      -2.409  -0.037   0.025  0.00  0.00    +0.023 A 
BRANCH  17  24
ATOM     23  C   UNL     1      -0.018   1.461   0.010  0.00  0.00    +0.129 C 
ATOM     24  N   UNL     1       0.002  -0.004   0.002  0.00  0.00    -0.336 N 
ATOM     25  C   UNL     1       1.281  -0.719  -0.014  0.00  0.00    +0.129 C 
ENDBRANCH  17  24
ENDBRANCH  15  20
ENDBRANCH   1  16
TORSDOF 5
