REMARK  Name = ZINC64776207
REMARK  8 active torsions:
REMARK  status: ('A' for Active; 'I' for Inactive)
REMARK    1  A    between atoms: C_1  and  C_2
REMARK    2  A    between atoms: C_2  and  C_3
REMARK    3  A    between atoms: C_3  and  C_5
REMARK    4  A    between atoms: C_3  and  N_19
REMARK    5  A    between atoms: N_7  and  C_8
REMARK    6  A    between atoms: C_8  and  C_9
REMARK    7  A    between atoms: C_9  and  C_10
REMARK    8  A    between atoms: N_29  and  C_34
REMARK                            x       y       z     vdW  Elec       q    Type
REMARK                         _______ _______ _______ _____ _____    ______ ____
ROOT
ATOM      1  C   UNL     1      -1.433  -0.534   0.013  0.00  0.00    +0.160 C 
ENDROOT
BRANCH   1   2
ATOM      2  N   UNL     1      -2.105  -0.148  -1.230  0.00  0.00    -0.303 N 
ATOM      3  C   UNL     1      -1.704  -0.513  -2.523  0.00  0.00    +0.039 A 
ATOM      4  C   UNL     1      -0.724  -1.409  -2.933  0.00  0.00    +0.024 A 
ATOM      5  C   UNL     1      -0.501  -1.635  -4.277  0.00  0.00    +0.002 A 
ATOM      6  C   UNL     1      -1.250  -0.971  -5.232  0.00  0.00    +0.001 A 
ATOM      7  C   UNL     1      -2.222  -0.070  -4.847  0.00  0.00    +0.010 A 
ATOM      8  C   UNL     1      -2.454   0.174  -3.493  0.00  0.00    +0.003 A 
ATOM      9  C   UNL     1      -3.369   1.078  -2.796  0.00  0.00    +0.006 C 
ATOM     10  C   UNL     1      -4.128   2.098  -3.208  0.00  0.00    +0.094 C 
ATOM     11  N   UNL     1      -4.779   2.766  -2.153  0.00  0.00    -0.269 N 
ATOM     12  N   UNL     1      -4.012   2.983  -0.984  0.00  0.00    -0.224 N 
ATOM     13  C   UNL     1      -3.222   1.960  -0.539  0.00  0.00    +0.256 C 
ATOM     14  O   UNL     1      -2.503   2.077   0.430  0.00  0.00    -0.272 OA
ATOM     15  C   UNL     1      -3.305   0.672  -1.328  0.00  0.00    +0.194 C 
ATOM     16  C   UNL     1      -4.061   4.264  -0.274  0.00  0.00    +0.156 C 
ATOM     17  H   UNL     1      -5.700   3.061  -2.223  0.00  0.00    +0.170 HD
ENDBRANCH   1   2
BRANCH   1  18
ATOM     18  C   UNL     1      -1.414  -2.036   0.129  0.00  0.00    +0.234 C 
ATOM     19  O   UNL     1      -1.912  -2.718  -0.742  0.00  0.00    -0.274 OA
ATOM     20  N   UNL     1      -0.842  -2.622   1.199  0.00  0.00    -0.313 N 
ATOM     21  H   UNL     1      -0.444  -2.077   1.895  0.00  0.00    +0.149 HD
BRANCH  20  22
ATOM     22  C   UNL     1      -0.823  -4.083   1.312  0.00  0.00    +0.108 C 
BRANCH  22  23
ATOM     23  C   UNL     1      -0.121  -4.485   2.610  0.00  0.00    +0.052 C 
BRANCH  23  24
ATOM     24  C   UNL     1      -0.101  -5.987   2.726  0.00  0.00    -0.040 C 
ATOM     25  C   UNL     1       0.900  -6.818   2.357  0.00  0.00    -0.001 A 
ATOM     26  C   UNL     1       2.220  -6.581   1.760  0.00  0.00    +0.010 A 
ATOM     27  C   UNL     1       3.021  -7.639   1.497  0.00  0.00    +0.001 A 
ATOM     28  C   UNL     1       2.623  -8.953   1.779  0.00  0.00    +0.002 A 
ATOM     29  C   UNL     1       1.426  -9.250   2.328  0.00  0.00    +0.026 A 
ATOM     30  C   UNL     1       0.504  -8.215   2.646  0.00  0.00    +0.043 A 
ATOM     31  N   UNL     1      -0.696  -8.246   3.173  0.00  0.00    -0.380 N 
ATOM     32  C   UNL     1      -1.195  -6.871   3.284  0.00  0.00    +0.144 C 
ATOM     33  H   UNL     1      -1.173  -9.045   3.448  0.00  0.00    +0.160 HD
ENDBRANCH  23  24
ENDBRANCH  22  23
ENDBRANCH  20  22
ENDBRANCH   1  18
BRANCH   1  35
ATOM     34  C   UNL     1      -0.019   1.526   0.010  0.00  0.00    +0.006 C 
ATOM     35  C   UNL     1       0.002  -0.004   0.002  0.00  0.00    +0.028 C 
ENDBRANCH   1  35
TORSDOF 6
