REMARK  Name = ZINC36800207
REMARK  10 active torsions:
REMARK  status: ('A' for Active; 'I' for Inactive)
REMARK    1  A    between atoms: C_1  and  C_2
REMARK    2  A    between atoms: C_5  and  N_8
REMARK    3  A    between atoms: C_9  and  C_11
REMARK    4  A    between atoms: C_11  and  C_13
REMARK    5  A    between atoms: C_11  and  S_19
REMARK    6  A    between atoms: S_19  and  C_20
REMARK    7  A    between atoms: C_23  and  C_26
REMARK    8  A    between atoms: N_24  and  N_25
REMARK    9  A    between atoms: C_31  and  O_32
REMARK   10  A    between atoms: O_32  and  C_33
REMARK                            x       y       z     vdW  Elec       q    Type
REMARK                         _______ _______ _______ _____ _____    ______ ____
ROOT
ATOM      1  C   UNL     1       0.297  -6.335   1.162  0.00  0.00    +0.170 C 
ENDROOT
BRANCH   1   2
ATOM      2  C   UNL     1       1.749  -6.695   0.981  0.00  0.00    -0.025 A 
ATOM      3  C   UNL     1       2.683  -6.291   1.917  0.00  0.00    +0.005 A 
ATOM      4  C   UNL     1       4.015  -6.622   1.751  0.00  0.00    +0.000 A 
ATOM      5  C   UNL     1       4.413  -7.356   0.650  0.00  0.00    +0.000 A 
ATOM      6  C   UNL     1       3.479  -7.761  -0.285  0.00  0.00    +0.000 A 
ATOM      7  C   UNL     1       2.146  -7.434  -0.117  0.00  0.00    +0.005 A 
ENDBRANCH   1   2
BRANCH   1   9
ATOM      8  N   UNL     1       0.045  -4.146   0.037  0.00  0.00    -0.284 N 
ATOM      9  C   UNL     1       0.151  -4.835   1.190  0.00  0.00    +0.235 C 
ATOM     10  O   UNL     1       0.129  -4.248   2.251  0.00  0.00    -0.274 OA
ATOM     11  H   UNL     1       0.000  -4.620  -0.809  0.00  0.00    +0.155 HD
BRANCH   8  16
ATOM     12  C   UNL     1      -0.138   1.523   0.127  0.00  0.00    +0.044 C 
ATOM     13  C   UNL     1      -0.090   0.017   0.103  0.00  0.00    -0.050 A 
ATOM     14  C   UNL     1      -0.686  -0.708   1.118  0.00  0.00    +0.005 A 
ATOM     15  C   UNL     1      -0.643  -2.089   1.099  0.00  0.00    +0.023 A 
ATOM     16  C   UNL     1      -0.001  -2.748   0.059  0.00  0.00    +0.033 A 
ATOM     17  C   UNL     1       0.596  -2.016  -0.960  0.00  0.00    +0.023 A 
ATOM     18  C   UNL     1       0.546  -0.636  -0.937  0.00  0.00    +0.005 A 
ENDBRANCH   8  16
ENDBRANCH   1   9
BRANCH   1  19
ATOM     19  S   UNL     1      -0.309  -7.031   2.723  0.00  0.00    -0.067 S 
BRANCH  19  20
ATOM     20  C   UNL     1      -0.213  -8.773   2.479  0.00  0.00    +0.210 A 
ATOM     21  N   UNL     1       0.214  -9.386   1.398  0.00  0.00    -0.121 NA
ATOM     22  N   UNL     1       0.152 -10.660   1.559  0.00  0.00    -0.127 NA
ATOM     23  C   UNL     1      -0.319 -10.938   2.752  0.00  0.00    +0.185 A 
ATOM     24  N   UNL     1      -0.562  -9.739   3.380  0.00  0.00    -0.224 N 
BRANCH  23  25
ATOM     25  C   UNL     1      -0.541 -12.286   3.316  0.00  0.00    +0.062 A 
ATOM     26  C   UNL     1      -1.762 -12.604   3.913  0.00  0.00    +0.015 A 
ATOM     27  C   UNL     1      -1.964 -13.864   4.437  0.00  0.00    +0.001 A 
ATOM     28  C   UNL     1      -0.960 -14.815   4.375  0.00  0.00    +0.004 A 
ATOM     29  C   UNL     1       0.254 -14.511   3.786  0.00  0.00    +0.046 A 
ATOM     30  C   UNL     1       0.469 -13.253   3.249  0.00  0.00    +0.131 A 
BRANCH  30  31
ATOM     31  O   UNL     1       1.659 -12.956   2.664  0.00  0.00    -0.494 OA
ATOM     32  C   UNL     1       2.643 -13.992   2.633  0.00  0.00    +0.277 C 
ENDBRANCH  30  31
ENDBRANCH  23  25
BRANCH  24  33
ATOM     33  N   UNL     1      -1.053  -9.552   4.641  0.00  0.00    -0.295 N 
ATOM     34  H   UNL     1      -2.053  -9.424   4.625  0.00  0.00    +0.163 HD
ATOM     35  H   UNL     1      -0.796 -10.318   5.246  0.00  0.00    +0.163 HD
ENDBRANCH  24  33
ENDBRANCH  19  20
ENDBRANCH   1  19
TORSDOF 8
