REMARK  Name = ZINC20416689
REMARK  7 active torsions:
REMARK  status: ('A' for Active; 'I' for Inactive)
REMARK    1  A    between atoms: C_1  and  C_2
REMARK    2  A    between atoms: C_2  and  C_3
REMARK    3  A    between atoms: C_3  and  C_4
REMARK    4  A    between atoms: C_17  and  C_20
REMARK    5  A    between atoms: N_22  and  C_23
REMARK    6  A    between atoms: C_23  and  C_25
REMARK    7  A    between atoms: C_23  and  C_26
REMARK                            x       y       z     vdW  Elec       q    Type
REMARK                         _______ _______ _______ _____ _____    ______ ____
ROOT
ATOM      1  C   UNL     1      -4.603   3.174 -14.137  0.00  0.00    +0.049 A 
ATOM      2  C   UNL     1      -5.619   3.140 -13.205  0.00  0.00    +0.095 A 
ATOM      3  C   UNL     1      -5.324   2.855 -11.871  0.00  0.00    +0.275 A 
ATOM      4  O   UNL     1      -6.219   2.824 -11.040  0.00  0.00    -0.266 OA
ATOM      5  N   UNL     1      -4.033   2.611 -11.496  0.00  0.00    -0.170 N 
ATOM      6  C   UNL     1      -3.090   2.665 -12.484  0.00  0.00    +0.201 A 
ATOM      7  N   UNL     1      -3.357   2.931 -13.737  0.00  0.00    -0.226 NA
ATOM      8  S   UNL     1      -1.586   2.307 -11.603  0.00  0.00    -0.013 S 
ATOM      9  C   UNL     1      -2.306   2.099  -9.982  0.00  0.00    +0.184 A 
ATOM     10  N   UNL     1      -3.573   2.314 -10.217  0.00  0.00    -0.139 NA
ATOM     11  N   UNL     1      -1.682   1.796  -8.785  0.00  0.00    -0.308 N 
ATOM     12  C   UNL     1      -0.603   2.749  -8.497  0.00  0.00    +0.108 C 
ATOM     13  C   UNL     1       0.156   2.300  -7.247  0.00  0.00    +0.032 C 
ATOM     14  C   UNL     1      -0.815   2.228  -6.065  0.00  0.00    +0.078 C 
ATOM     15  C   UNL     1      -1.955   1.266  -6.409  0.00  0.00    +0.032 C 
ATOM     16  C   UNL     1      -2.653   1.745  -7.684  0.00  0.00    +0.108 C 
ENDROOT
BRANCH  14  17
ATOM     17  C   UNL     1      -0.086   1.729  -4.844  0.00  0.00    +0.216 C 
ATOM     18  O   UNL     1       1.094   1.456  -4.911  0.00  0.00    -0.276 OA
ATOM     19  N   UNL     1      -0.745   1.585  -3.677  0.00  0.00    -0.312 N 
ATOM     20  H   UNL     1      -1.815   1.831  -3.616  0.00  0.00    +0.149 HD
BRANCH  19  21
ATOM     21  C   UNL     1      -0.037   1.099  -2.490  0.00  0.00    +0.076 C 
ATOM     22  C   UNL     1      -0.016  -0.431  -2.499  0.00  0.00    +0.028 C 
BRANCH  21  23
ATOM     23  C   UNL     1      -0.753   1.593  -1.232  0.00  0.00    -0.010 C 
ATOM     24  C   UNL     1      -0.013   1.086   0.008  0.00  0.00    +0.012 C 
ATOM     25  C   UNL     1      -0.729   1.579   1.267  0.00  0.00    -0.010 C 
ATOM     26  C   UNL     1      -0.750   3.109   1.275  0.00  0.00    +0.007 C 
ATOM     27  C   UNL     1      -1.490   3.616   0.036  0.00  0.00    -0.010 C 
ATOM     28  C   UNL     1      -0.773   3.123  -1.223  0.00  0.00    +0.012 C 
ATOM     29  C   UNL     1      -2.925   3.086   0.047  0.00  0.00    +0.007 C 
ATOM     30  C   UNL     1      -2.904   1.556   0.038  0.00  0.00    -0.010 C 
ATOM     31  C   UNL     1      -2.164   1.050   1.278  0.00  0.00    +0.007 C 
ATOM     32  C   UNL     1      -2.188   1.063  -1.221  0.00  0.00    +0.012 C 
ENDBRANCH  21  23
ENDBRANCH  19  21
ENDBRANCH  14  17
BRANCH   1  33
ATOM     33  C   UNL     1      -4.899   3.479 -15.583  0.00  0.00    +0.055 C 
BRANCH  33  35
ATOM     34  C   UNL     1      -4.987   5.282 -17.310  0.00  0.00    +0.004 C 
ATOM     35  C   UNL     1      -4.687   4.972 -15.842  0.00  0.00    +0.003 C 
ENDBRANCH  33  35
ENDBRANCH   1  33
TORSDOF 5
