REMARK  Name = ZINC12563127
REMARK  9 active torsions:
REMARK  status: ('A' for Active; 'I' for Inactive)
REMARK    1  A    between atoms: C_1  and  C_2
REMARK    2  A    between atoms: C_5  and  O_27
REMARK    3  A    between atoms: C_6  and  N_8
REMARK    4  A    between atoms: N_8  and  C_9
REMARK    5  A    between atoms: C_9  and  C_11
REMARK    6  A    between atoms: C_9  and  C_12
REMARK    7  A    between atoms: N_14  and  C_15
REMARK    8  A    between atoms: C_16  and  C_25
REMARK    9  A    between atoms: O_27  and  C_28
REMARK                            x       y       z     vdW  Elec       q    Type
REMARK                         _______ _______ _______ _____ _____    ______ ____
ROOT
ATOM      1  C   UNL     1      -0.014   1.209   0.009  0.00  0.00    +0.238 C 
ATOM      2  O   UNL     1       0.002  -0.004   0.002  0.00  0.00    -0.273 OA
ATOM      3  N   UNL     1       1.143   1.898   0.001  0.00  0.00    -0.277 N 
ATOM      4  H   UNL     1       1.130   2.868   0.007  0.00  0.00    +0.155 HD
ENDROOT
BRANCH   3   5
ATOM      5  C   UNL     1       2.355   1.221  -0.014  0.00  0.00    +0.090 A 
ATOM      6  C   UNL     1       3.636   1.747  -0.023  0.00  0.00    +0.084 A 
ATOM      7  C   UNL     1       4.753   0.814  -0.036  0.00  0.00    -0.018 A 
ATOM      8  C   UNL     1       4.404  -0.491  -0.047  0.00  0.00    -0.004 A 
ATOM      9  S   UNL     1       2.632  -0.489  -0.018  0.00  0.00    -0.077 S 
ATOM     10  C   UNL     1       5.311  -1.682  -0.076  0.00  0.00    +0.043 C 
ATOM     11  C   UNL     1       6.392  -1.520   1.001  0.00  0.00    +0.005 C 
ATOM     12  C   UNL     1       7.579  -0.783   0.387  0.00  0.00    +0.001 C 
ATOM     13  C   UNL     1       7.093   0.214  -0.663  0.00  0.00    +0.005 C 
ATOM     14  C   UNL     1       6.205   1.275  -0.022  0.00  0.00    +0.037 C 
BRANCH   6  15
ATOM     15  C   UNL     1       3.854   3.163  -0.020  0.00  0.00    +0.102 C 
ATOM     16  N   UNL     1       4.028   4.285  -0.018  0.00  0.00    -0.191 NA
ENDBRANCH   6  15
ENDBRANCH   3   5
BRANCH   1  17
ATOM     17  C   UNL     1      -1.330   1.944   0.019  0.00  0.00    +0.154 C 
ATOM     18  C   UNL     1      -1.429   2.830  -1.225  0.00  0.00    +0.038 C 
BRANCH  17  19
ATOM     19  N   UNL     1      -2.430   0.977   0.019  0.00  0.00    -0.330 N 
ATOM     20  H   UNL     1      -2.293   0.087  -0.342  0.00  0.00    +0.147 HD
BRANCH  19  26
ATOM     21  C   UNL     1      -5.322   4.347   2.128  0.00  0.00    +0.044 C 
ATOM     22  C   UNL     1      -5.109   2.964   1.568  0.00  0.00    -0.048 A 
ATOM     23  C   UNL     1      -6.149   2.052   1.569  0.00  0.00    +0.007 A 
ATOM     24  C   UNL     1      -5.960   0.782   1.056  0.00  0.00    +0.048 A 
ATOM     25  C   UNL     1      -4.728   0.421   0.535  0.00  0.00    +0.141 A 
ATOM     26  C   UNL     1      -3.679   1.338   0.539  0.00  0.00    +0.070 A 
ATOM     27  C   UNL     1      -3.876   2.610   1.055  0.00  0.00    +0.030 A 
BRANCH  25  28
ATOM     28  O   UNL     1      -4.542  -0.826   0.025  0.00  0.00    -0.493 OA
ATOM     29  C   UNL     1      -5.662  -1.712   0.054  0.00  0.00    +0.277 C 
ENDBRANCH  25  28
ENDBRANCH  19  26
ENDBRANCH  17  19
ENDBRANCH   1  17
TORSDOF 6
