REMARK  Name = ZINC12124510
REMARK  1 active torsions:
REMARK  status: ('A' for Active; 'I' for Inactive)
REMARK    1  A    between atoms: C_4  and  C_7
REMARK                            x       y       z     vdW  Elec       q    Type
REMARK                         _______ _______ _______ _____ _____    ______ ____
ROOT
ATOM      1  C   UNL     1       2.433   4.396   2.944  0.00  0.00    +0.068 C 
ATOM      2  N   UNL     1       1.953   3.437   2.222  0.00  0.00    -0.184 NA
ATOM      3  N   UNL     1       1.144   3.874   1.190  0.00  0.00    -0.195 N 
ATOM      4  C   UNL     1       0.871   5.319   1.379  0.00  0.00    +0.137 C 
ATOM      5  C   UNL     1       1.906   5.723   2.437  0.00  0.00    +0.086 C 
ATOM      6  C   UNL     1       1.129   5.980   0.050  0.00  0.00    +0.017 A 
ATOM      7  C   UNL     1       1.269   7.355  -0.001  0.00  0.00    +0.009 A 
ATOM      8  C   UNL     1       1.478   7.991  -1.209  0.00  0.00    +0.001 A 
ATOM      9  C   UNL     1       1.548   7.247  -2.373  0.00  0.00    +0.004 A 
ATOM     10  C   UNL     1       1.419   5.876  -2.326  0.00  0.00    +0.046 A 
ATOM     11  C   UNL     1       1.213   5.224  -1.110  0.00  0.00    +0.129 A 
ATOM     12  O   UNL     1       1.109   3.869  -1.139  0.00  0.00    -0.454 OA
ATOM     13  C   UNL     1       0.635   3.173   0.012  0.00  0.00    +0.298 C 
ATOM     14  C   UNL     1      -0.857   3.090   0.026  0.00  0.00    +0.046 A 
ATOM     15  C   UNL     1      -1.829   4.066   0.041  0.00  0.00    +0.011 A 
ATOM     16  C   UNL     1      -3.153   3.638   0.050  0.00  0.00    +0.001 A 
ATOM     17  C   UNL     1      -3.474   2.296   0.045  0.00  0.00    +0.002 A 
ATOM     18  C   UNL     1      -2.501   1.308   0.031  0.00  0.00    +0.024 A 
ATOM     19  C   UNL     1      -1.169   1.724   0.017  0.00  0.00    +0.043 A 
ATOM     20  N   UNL     1      -0.011   0.966   0.007  0.00  0.00    -0.280 N 
ATOM     21  C   UNL     1       1.098   1.736   0.001  0.00  0.00    +0.287 C 
ATOM     22  O   UNL     1       2.247   1.348  -0.012  0.00  0.00    -0.269 OA
ATOM     23  H   UNL     1       0.002  -0.004   0.002  0.00  0.00    +0.155 HD
ENDROOT
BRANCH   1  27
ATOM     24  C   UNL     1       5.077   3.904   6.228  0.00  0.00    +0.000 A 
ATOM     25  C   UNL     1       4.630   2.795   5.532  0.00  0.00    +0.001 A 
ATOM     26  C   UNL     1       3.771   2.947   4.463  0.00  0.00    +0.010 A 
ATOM     27  C   UNL     1       3.352   4.225   4.086  0.00  0.00    -0.002 A 
ATOM     28  C   UNL     1       3.810   5.340   4.790  0.00  0.00    +0.010 A 
ATOM     29  C   UNL     1       4.665   5.173   5.860  0.00  0.00    +0.001 A 
ENDBRANCH   1  27
TORSDOF 1
