REMARK  Name = ZINC62914169
REMARK  7 active torsions:
REMARK  status: ('A' for Active; 'I' for Inactive)
REMARK    1  A    between atoms: C_1  and  C_2
REMARK    2  A    between atoms: C_6  and  C_23
REMARK    3  A    between atoms: N_8  and  C_9
REMARK    4  A    between atoms: C_9  and  C_11
REMARK    5  A    between atoms: C_9  and  C_12
REMARK    6  A    between atoms: C_17  and  C_19
REMARK    7  A    between atoms: C_17  and  C_20
REMARK                            x       y       z     vdW  Elec       q    Type
REMARK                         _______ _______ _______ _____ _____    ______ ____
ROOT
ATOM      1  C   UNL     1       1.954   1.749   1.048  0.00  0.00    +0.202 C 
ATOM      2  O   UNL     1       2.512   1.484   0.004  0.00  0.00    -0.277 OA
ATOM      3  N   UNL     1       1.865   3.029   1.459  0.00  0.00    -0.302 N 
ATOM      4  C   UNL     1       1.317   3.481   2.751  0.00  0.00    +0.109 C 
ATOM      5  C   UNL     1       1.981   4.858   3.003  0.00  0.00    +0.038 C 
ATOM      6  C   UNL     1       2.029   5.448   1.569  0.00  0.00    +0.086 C 
ATOM      7  C   UNL     1       2.304   4.207   0.695  0.00  0.00    +0.125 C 
ATOM      8  C   UNL     1       0.688   6.088   1.202  0.00  0.00    +0.024 C 
ENDROOT
BRANCH   6   9
ATOM      9  C   UNL     1       3.150   6.447   1.440  0.00  0.00    +0.363 C 
ATOM     10  O   UNL     1       3.850   6.705   2.405  0.00  0.00    -0.246 OA
ATOM     11  O   UNL     1       3.358   6.996   0.372  0.00  0.00    -0.246 OA
ENDBRANCH   6   9
BRANCH   1  12
ATOM     12  C   UNL     1       1.359   0.646   1.885  0.00  0.00    +0.017 C 
ATOM     13  C   UNL     1       2.396   0.162   2.901  0.00  0.00    -0.004 C 
BRANCH  12  19
ATOM     14  C   UNL     1      -0.545   1.388   0.462  0.00  0.00    -0.013 C 
ATOM     15  C   UNL     1      -0.148  -0.055   0.145  0.00  0.00    -0.070 C 
ATOM     16  C   UNL     1      -1.333  -1.001   0.431  0.00  0.00    -0.017 C 
ATOM     17  C   UNL     1      -0.644  -2.252   1.036  0.00  0.00    -0.017 C 
ATOM     18  C   UNL     1       0.512  -1.613   1.844  0.00  0.00    -0.070 C 
ATOM     19  N   UNL     1       0.967  -0.472   1.016  0.00  0.00    +0.391 N 
ATOM     20  C   UNL     1       1.648  -2.619   2.035  0.00  0.00    -0.013 C 
ATOM     21  H   UNL     1       1.754  -0.752   0.450  0.00  0.00    -0.080 HD
ENDBRANCH  12  19
ENDBRANCH   1  12
TORSDOF 3
