REMARK  Name = ZINC58848925
REMARK  7 active torsions:
REMARK  status: ('A' for Active; 'I' for Inactive)
REMARK    1  A    between atoms: C_1  and  O_2
REMARK    2  A    between atoms: O_2  and  C_3
REMARK    3  A    between atoms: C_8  and  N_9
REMARK    4  A    between atoms: N_9  and  S_10
REMARK    5  A    between atoms: S_10  and  C_13
REMARK    6  A    between atoms: C_26  and  C_29
REMARK    7  A    between atoms: C_31  and  N_36
REMARK                            x       y       z     vdW  Elec       q    Type
REMARK                         _______ _______ _______ _____ _____    ______ ____
ROOT
ATOM      1  C   UNL     1      -1.790  -4.072  -3.034  0.00  0.00    +0.109 A 
ATOM      2  C   UNL     1      -2.772  -3.809  -3.972  0.00  0.00    +0.030 A 
ATOM      3  C   UNL     1      -2.418  -3.540  -5.278  0.00  0.00    +0.025 A 
ATOM      4  C   UNL     1      -1.078  -3.531  -5.651  0.00  0.00    +0.031 A 
ATOM      5  C   UNL     1      -0.091  -3.781  -4.709  0.00  0.00    -0.018 A 
ATOM      6  C   UNL     1      -0.459  -4.053  -3.400  0.00  0.00    +0.034 A 
ATOM      7  C   UNL     1       1.357  -3.740  -5.062  0.00  0.00    +0.049 C 
ATOM      8  C   UNL     1       1.951  -5.121  -5.184  0.00  0.00    -0.023 C 
ATOM      9  C   UNL     1       2.841  -5.147  -6.144  0.00  0.00    -0.030 C 
ATOM     10  C   UNL     1       2.966  -3.792  -6.803  0.00  0.00    +0.033 C 
ATOM     11  C   UNL     1       1.667  -3.060  -6.394  0.00  0.00    +0.029 C 
ATOM     12  C   UNL     1       0.625  -3.313  -7.464  0.00  0.00    +0.106 C 
ATOM     13  N   UNL     1      -0.737  -3.277  -6.974  0.00  0.00    -0.336 N 
ATOM     14  H   UNL     1      -1.449  -3.089  -7.605  0.00  0.00    +0.147 HD
ENDROOT
BRANCH  12  15
ATOM     15  C   UNL     1       0.902  -4.654  -8.094  0.00  0.00    -0.007 A 
ATOM     16  C   UNL     1       0.412  -5.806  -7.510  0.00  0.00    +0.039 A 
ATOM     17  C   UNL     1       0.666  -7.036  -8.087  0.00  0.00    +0.127 A 
ATOM     18  C   UNL     1       1.410  -7.114  -9.250  0.00  0.00    +0.034 A 
ATOM     19  C   UNL     1       1.900  -5.962  -9.836  0.00  0.00    +0.022 A 
ATOM     20  C   UNL     1       1.641  -4.731  -9.261  0.00  0.00    +0.046 A 
ATOM     21 CL   UNL     1       2.250  -3.283 -10.000  0.00  0.00    -0.083 Cl
BRANCH  17  22
ATOM     22  N   UNL     1       0.141  -8.270  -7.461  0.00  0.00    +0.056 N 
ATOM     23  O   UNL     1      -0.509  -8.203  -6.444  0.00  0.00    -0.126 OA
ATOM     24  O   UNL     1       0.363  -9.346  -7.966  0.00  0.00    -0.126 OA
ENDBRANCH  17  22
ENDBRANCH  12  15
BRANCH   1  25
ATOM     25  S   UNL     1      -2.239  -4.424  -1.367  0.00  0.00    +0.072 S 
ATOM     26  O   UNL     1      -1.165  -5.166  -0.806  0.00  0.00    -0.150 OA
ATOM     27  O   UNL     1      -3.571  -4.918  -1.401  0.00  0.00    -0.150 OA
BRANCH  25  28
ATOM     28  N   UNL     1      -2.290  -2.980  -0.558  0.00  0.00    -0.213 N 
ATOM     29  H   UNL     1      -1.708  -2.830   0.203  0.00  0.00    +0.174 HD
BRANCH  28  35
ATOM     30  C   UNL     1      -2.801  -0.637  -0.882  0.00  0.00    +0.142 A 
ATOM     31  C   UNL     1      -3.676   0.352  -1.300  0.00  0.00    +0.047 A 
ATOM     32  C   UNL     1      -4.918   0.009  -1.801  0.00  0.00    +0.004 A 
ATOM     33  C   UNL     1      -5.291  -1.320  -1.887  0.00  0.00    +0.002 A 
ATOM     34  C   UNL     1      -4.423  -2.312  -1.472  0.00  0.00    +0.028 A 
ATOM     35  C   UNL     1      -3.173  -1.976  -0.974  0.00  0.00    +0.090 A 
BRANCH  30  37
ATOM     36  C   UNL     1      -1.265   1.091  -0.324  0.00  0.00    +0.277 C 
ATOM     37  O   UNL     1      -1.579  -0.301  -0.388  0.00  0.00    -0.493 OA
ENDBRANCH  30  37
ENDBRANCH  28  35
ENDBRANCH  25  28
ENDBRANCH   1  25
TORSDOF 6
