REMARK  Name = ZINC12540130
REMARK  14 active torsions:
REMARK  status: ('A' for Active; 'I' for Inactive)
REMARK    1  A    between atoms: C_1  and  O_2
REMARK    2  A    between atoms: O_2  and  C_3
REMARK    3  A    between atoms: C_7  and  C_11
REMARK    4  A    between atoms: C_8  and  O_9
REMARK    5  A    between atoms: O_9  and  C_10
REMARK    6  A    between atoms: C_11  and  C_13
REMARK    7  A    between atoms: C_11  and  C_31
REMARK    8  A    between atoms: C_13  and  N_72
REMARK    9  A    between atoms: C_14  and  C_15
REMARK   10  A    between atoms: C_14  and  N_72
REMARK   11  A    between atoms: C_15  and  C_17
REMARK   12  A    between atoms: C_15  and  O_30
REMARK   13  A    between atoms: C_17  and  O_18
REMARK   14  A    between atoms: O_18  and  C_19
REMARK                            x       y       z     vdW  Elec       q    Type
REMARK                         _______ _______ _______ _____ _____    ______ ____
ROOT
ATOM      1  C   UNL     1      -3.761   7.437   4.947  0.00  0.00    +0.038 C 
ENDROOT
BRANCH   1   2
ATOM      2  C   UNL     1      -4.378   8.809   4.860  0.00  0.00    -0.017 A 
ATOM      3  C   UNL     1      -3.775   9.931   4.437  0.00  0.00    +0.087 A 
ATOM      4  N   UNL     1      -4.649  10.982   4.498  0.00  0.00    -0.360 N 
ATOM      5  H   UNL     1      -4.441  11.895   4.245  0.00  0.00    +0.165 HD
ATOM      6  C   UNL     1      -5.867  10.552   4.974  0.00  0.00    +0.047 A 
ATOM      7  C   UNL     1      -5.753   9.170   5.216  0.00  0.00    +0.003 A 
ATOM      8  C   UNL     1      -6.848   8.456   5.705  0.00  0.00    +0.010 A 
ATOM      9  C   UNL     1      -8.028   9.102   5.942  0.00  0.00    +0.001 A 
ATOM     10  C   UNL     1      -8.147  10.464   5.702  0.00  0.00    +0.002 A 
ATOM     11  C   UNL     1      -7.077  11.190   5.227  0.00  0.00    +0.026 A 
ENDBRANCH   1   2
BRANCH   1  16
ATOM     12  C   UNL     1      -1.465   6.720   7.869  0.00  0.00    +0.162 A 
ATOM     13  C   UNL     1      -0.396   7.554   7.585  0.00  0.00    +0.049 A 
ATOM     14  C   UNL     1      -0.419   8.346   6.452  0.00  0.00    +0.004 A 
ATOM     15  C   UNL     1      -1.504   8.304   5.598  0.00  0.00    +0.008 A 
ATOM     16  C   UNL     1      -2.577   7.477   5.878  0.00  0.00    +0.004 A 
ATOM     17  C   UNL     1      -2.560   6.681   7.012  0.00  0.00    +0.165 A 
BRANCH  12  19
ATOM     18  C   UNL     1      -0.287   6.032   9.818  0.00  0.00    +0.277 C 
ATOM     19  O   UNL     1      -1.444   5.940   8.983  0.00  0.00    -0.491 OA
ENDBRANCH  12  19
BRANCH  17  20
ATOM     20  O   UNL     1      -3.612   5.864   7.286  0.00  0.00    -0.491 OA
ATOM     21  C   UNL     1      -3.561   4.539   6.752  0.00  0.00    +0.277 C 
ENDBRANCH  17  20
ENDBRANCH   1  16
BRANCH   1  22
ATOM     22  C   UNL     1      -3.301   6.997   3.555  0.00  0.00    -0.069 C 
BRANCH  22  23
ATOM     23  N   UNL     1      -2.809   5.608   3.626  0.00  0.00    +0.381 N 
ATOM     24  H   UNL     1      -3.566   4.997   3.953  0.00  0.00    -0.086 HD
ATOM     25  H   UNL     1      -2.022   5.561   4.285  0.00  0.00    -0.086 HD
BRANCH  23  26
ATOM     26  C   UNL     1      -2.358   5.156   2.296  0.00  0.00    -0.049 C 
BRANCH  26  27
ATOM     27  C   UNL     1      -1.854   3.715   2.401  0.00  0.00    +0.123 C 
BRANCH  27  28
ATOM     28  O   UNL     1      -2.940   2.854   2.749  0.00  0.00    -0.391 OA
ATOM     29  H   UNL     1      -3.665   2.857   2.109  0.00  0.00    +0.210 HD
ENDBRANCH  27  28
BRANCH  27  30
ATOM     30  C   UNL     1      -1.270   3.280   1.056  0.00  0.00    +0.190 C 
BRANCH  30  31
ATOM     31  O   UNL     1      -0.694   1.979   1.184  0.00  0.00    -0.369 OA
BRANCH  31  32
ATOM     32  C   UNL     1      -0.104   1.483  -0.019  0.00  0.00    +0.149 C 
ATOM     33  C   UNL     1      -1.168   0.758  -0.840  0.00  0.00    +0.037 C 
ATOM     34  C   UNL     1      -0.475   0.051  -2.012  0.00  0.00    +0.007 C 
ATOM     35  C   UNL     1       0.346  -1.110  -1.456  0.00  0.00    +0.035 C 
ATOM     36  C   UNL     1       1.233  -0.642  -0.332  0.00  0.00    -0.042 A 
ATOM     37  C   UNL     1       1.024   0.547   0.331  0.00  0.00    -0.016 A 
ATOM     38  C   UNL     1       1.875   0.917   1.364  0.00  0.00    +0.006 A 
ATOM     39  C   UNL     1       2.929   0.105   1.729  0.00  0.00    +0.000 A 
ATOM     40  C   UNL     1       3.141  -1.086   1.061  0.00  0.00    +0.000 A 
ATOM     41  C   UNL     1       2.296  -1.456   0.035  0.00  0.00    +0.004 A 
ENDBRANCH  31  32
ENDBRANCH  30  31
ENDBRANCH  27  30
ENDBRANCH  26  27
ENDBRANCH  23  26
ENDBRANCH  22  23
ENDBRANCH   1  22
TORSDOF 12
