REMARK  Name = ZINC36597621
REMARK  20 active torsions:
REMARK  status: ('A' for Active; 'I' for Inactive)
REMARK    1  A    between atoms: C_1  and  C_2
REMARK    2  A    between atoms: C_5  and  C_7
REMARK    3  A    between atoms: C_7  and  N_8
REMARK    4  A    between atoms: N_8  and  C_9
REMARK    5  A    between atoms: C_9  and  C_11
REMARK    6  A    between atoms: C_9  and  C_20
REMARK    7  A    between atoms: C_14  and  N_17
REMARK    8  A    between atoms: N_17  and  C_18
REMARK    9  A    between atoms: N_17  and  C_19
REMARK   10  A    between atoms: N_22  and  C_23
REMARK   11  A    between atoms: C_23  and  C_24
REMARK   12  A    between atoms: C_23  and  C_25
REMARK   13  A    between atoms: C_23  and  C_26
REMARK   14  A    between atoms: C_26  and  C_27
REMARK   15  A    between atoms: C_27  and  C_28
REMARK   16  A    between atoms: C_27  and  C_29
REMARK   17  A    between atoms: C_27  and  C_30
REMARK   18  A    between atoms: C_31  and  C_33
REMARK   19  A    between atoms: C_34  and  O_40
REMARK   20  A    between atoms: C_38  and  O_39
REMARK                            x       y       z     vdW  Elec       q    Type
REMARK                         _______ _______ _______ _____ _____    ______ ____
ROOT
ATOM      1  C   UNL     1       3.299  -1.774  -1.764  0.00  0.00    +0.193 C 
ENDROOT
BRANCH   1   2
ATOM      2  C   UNL     1       3.773  -1.410  -0.381  0.00  0.00    -0.018 A 
ATOM      3  C   UNL     1       2.877  -0.910   0.546  0.00  0.00    +0.008 A 
ATOM      4  C   UNL     1       3.309  -0.576   1.815  0.00  0.00    +0.023 A 
ATOM      5  C   UNL     1       4.644  -0.743   2.159  0.00  0.00    +0.029 A 
ATOM      6  C   UNL     1       5.541  -1.246   1.225  0.00  0.00    +0.023 A 
ATOM      7  C   UNL     1       5.102  -1.583  -0.040  0.00  0.00    +0.008 A 
BRANCH   5   8
ATOM      8  N   UNL     1       5.084  -0.405   3.441  0.00  0.00    -0.336 N 
ATOM      9  C   UNL     1       4.136   0.126   4.424  0.00  0.00    +0.129 C 
ATOM     10  C   UNL     1       6.493  -0.582   3.803  0.00  0.00    +0.129 C 
ENDBRANCH   5   8
ENDBRANCH   1   2
BRANCH   1  11
ATOM     11  C   UNL     1       3.040  -0.516  -2.554  0.00  0.00    +0.239 C 
ATOM     12  O   UNL     1       2.052   0.149  -2.328  0.00  0.00    -0.273 OA
ATOM     13  N   UNL     1       3.908  -0.131  -3.510  0.00  0.00    -0.308 N 
ATOM     14  H   UNL     1       4.699  -0.663  -3.691  0.00  0.00    +0.149 HD
BRANCH  13  15
ATOM     15  C   UNL     1       3.657   1.091  -4.277  0.00  0.00    +0.030 C 
ATOM     16  C   UNL     1       2.421   0.896  -5.158  0.00  0.00    +0.031 C 
ATOM     17  C   UNL     1       3.418   2.257  -3.316  0.00  0.00    +0.031 C 
BRANCH  15  18
ATOM     18  C   UNL     1       4.869   1.398  -5.160  0.00  0.00    +0.031 C 
BRANCH  18  19
ATOM     19  C   UNL     1       6.146   0.958  -4.442  0.00  0.00    -0.036 C 
ATOM     20  C   UNL     1       6.403  -0.525  -4.721  0.00  0.00    +0.010 C 
ATOM     21  C   UNL     1       7.328   1.785  -4.951  0.00  0.00    +0.010 C 
ATOM     22  C   UNL     1       5.985   1.173  -2.936  0.00  0.00    +0.010 C 
ENDBRANCH  18  19
ENDBRANCH  15  18
ENDBRANCH  13  15
ENDBRANCH   1  11
BRANCH   1  23
ATOM     23  N   UNL     1       2.062  -2.553  -1.667  0.00  0.00    -0.274 N 
ATOM     24  C   UNL     1       2.089  -3.802  -1.162  0.00  0.00    +0.255 C 
ATOM     25  O   UNL     1       1.062  -4.448  -1.082  0.00  0.00    -0.270 OA
BRANCH  24  26
ATOM     26  C   UNL     1       3.363  -4.384  -0.708  0.00  0.00    +0.119 A 
ATOM     27  C   UNL     1       3.778  -4.224   0.622  0.00  0.00    +0.133 A 
ATOM     28  C   UNL     1       4.978  -4.776   1.039  0.00  0.00    +0.046 A 
ATOM     29  C   UNL     1       5.766  -5.484   0.149  0.00  0.00    +0.007 A 
ATOM     30  C   UNL     1       5.366  -5.647  -1.164  0.00  0.00    +0.046 A 
ATOM     31  C   UNL     1       4.167  -5.108  -1.601  0.00  0.00    +0.133 A 
BRANCH  31  32
ATOM     32  O   UNL     1       3.774  -5.276  -2.888  0.00  0.00    -0.506 OA
ATOM     33  H   UNL     1       4.080  -4.580  -3.486  0.00  0.00    +0.292 HD
ENDBRANCH  31  32
BRANCH  27  34
ATOM     34  O   UNL     1       3.008  -3.530   1.497  0.00  0.00    -0.506 OA
ATOM     35  H   UNL     1       2.365  -4.073   1.972  0.00  0.00    +0.292 HD
ENDBRANCH  27  34
ENDBRANCH  24  26
BRANCH  23  36
ATOM     36  C   UNL     1       0.794  -1.973  -2.119  0.00  0.00    +0.183 C 
BRANCH  36  41
ATOM     37  C   UNL     1       0.899  -1.170  -7.098  0.00  0.00    +0.086 C 
ATOM     38  C   UNL     1       0.687  -1.845  -5.767  0.00  0.00    +0.102 A 
ATOM     39  C   UNL     1       0.198  -3.084  -5.582  0.00  0.00    +0.045 A 
ATOM     40  C   UNL     1       0.168  -3.309  -4.187  0.00  0.00    +0.046 A 
ATOM     41  C   UNL     1       0.641  -2.194  -3.602  0.00  0.00    +0.122 A 
ATOM     42  O   UNL     1       0.959  -1.313  -4.564  0.00  0.00    -0.463 OA
ENDBRANCH  36  41
ENDBRANCH  23  36
ENDBRANCH   1  23
TORSDOF 12
