REMARK  Name = ZINC40706030
REMARK  7 active torsions:
REMARK  status: ('A' for Active; 'I' for Inactive)
REMARK    1  A    between atoms: C_1  and  C_2
REMARK    2  A    between atoms: C_10  and  N_25
REMARK    3  A    between atoms: C_11  and  N_15
REMARK    4  A    between atoms: N_15  and  C_16
REMARK    5  A    between atoms: C_19  and  C_22
REMARK    6  A    between atoms: C_22  and  C_23
REMARK    7  A    between atoms: C_22  and  C_24
REMARK                            x       y       z     vdW  Elec       q    Type
REMARK                         _______ _______ _______ _____ _____    ______ ____
ROOT
ATOM      1  C   UNL     1      -1.628  -0.186   2.825  0.00  0.00    +0.028 C 
ATOM      2  C   UNL     1      -0.997  -0.997   1.692  0.00  0.00    +0.072 C 
ATOM      3  C   UNL     1      -1.865  -0.882   0.434  0.00  0.00    +0.022 C 
ATOM      4  C   UNL     1      -1.160  -1.579  -0.732  0.00  0.00    +0.003 C 
ATOM      5  C   UNL     1       0.180  -0.891  -1.005  0.00  0.00    +0.019 C 
ATOM      6  C   UNL     1       1.070  -1.006   0.236  0.00  0.00    +0.107 C 
ATOM      7  N   UNL     1       0.342  -0.471   1.395  0.00  0.00    -0.311 N 
ATOM      8  C   UNL     1       0.908   0.516   2.194  0.00  0.00    +0.147 A 
ATOM      9  C   UNL     1       1.738   0.174   3.263  0.00  0.00    +0.106 A 
ATOM     10  C   UNL     1       2.280   1.204   4.033  0.00  0.00    +0.149 A 
ATOM     11  N   UNL     1       1.987   2.465   3.720  0.00  0.00    -0.219 NA
ATOM     12  C   UNL     1       1.199   2.745   2.703  0.00  0.00    +0.225 A 
ATOM     13  N   UNL     1       0.671   1.802   1.948  0.00  0.00    -0.219 NA
ENDROOT
BRANCH   9  14
ATOM     14  N   UNL     1       2.020  -1.170   3.556  0.00  0.00    -0.353 N 
ATOM     15  H   UNL     1       1.700  -1.872   2.968  0.00  0.00    +0.143 HD
ATOM     16  H   UNL     1       2.534  -1.397   4.347  0.00  0.00    +0.143 HD
ENDBRANCH   9  14
BRANCH  10  17
ATOM     17  N   UNL     1       3.112   0.919   5.109  0.00  0.00    -0.298 N 
ATOM     18  H   UNL     1       3.389   0.005   5.280  0.00  0.00    +0.154 HD
BRANCH  17  19
ATOM     19  C   UNL     1       3.552   1.949   5.945  0.00  0.00    +0.032 A 
ATOM     20  C   UNL     1       4.830   1.908   6.488  0.00  0.00    +0.023 A 
ATOM     21  C   UNL     1       5.261   2.927   7.314  0.00  0.00    +0.006 A 
ATOM     22  C   UNL     1       4.421   3.988   7.601  0.00  0.00    -0.045 A 
ATOM     23  C   UNL     1       3.148   4.032   7.063  0.00  0.00    +0.006 A 
ATOM     24  C   UNL     1       2.713   3.019   6.231  0.00  0.00    +0.023 A 
BRANCH  22  25
ATOM     25  C   UNL     1       4.894   5.099   8.503  0.00  0.00    +0.013 C 
ATOM     26  C   UNL     1       4.861   6.425   7.741  0.00  0.00    +0.012 C 
ATOM     27  C   UNL     1       3.978   5.189   9.725  0.00  0.00    +0.012 C 
ENDBRANCH  22  25
ENDBRANCH  17  19
ENDBRANCH  10  17
TORSDOF 4
