REMARK  Name = ZINC27531192
REMARK  8 active torsions:
REMARK  status: ('A' for Active; 'I' for Inactive)
REMARK    1  A    between atoms: C_1  and  C_2
REMARK    2  A    between atoms: C_2  and  C_3
REMARK    3  A    between atoms: C_9  and  C_10
REMARK    4  A    between atoms: C_15  and  O_16
REMARK    5  A    between atoms: O_16  and  C_17
REMARK    6  A    between atoms: C_17  and  C_18
REMARK    7  A    between atoms: C_18  and  O_19
REMARK    8  A    between atoms: O_19  and  C_20
REMARK                            x       y       z     vdW  Elec       q    Type
REMARK                         _______ _______ _______ _____ _____    ______ ____
ROOT
ATOM      1  C   UNL     1       5.547  -0.804   6.459  0.00  0.00    +0.017 A 
ATOM      2  C   UNL     1       5.471  -2.204   6.480  0.00  0.00    +0.011 A 
ATOM      3  C   UNL     1       6.394  -2.929   7.199  0.00  0.00    +0.001 A 
ATOM      4  C   UNL     1       7.399  -2.283   7.903  0.00  0.00    +0.004 A 
ATOM      5  C   UNL     1       7.487  -0.905   7.892  0.00  0.00    +0.046 A 
ATOM      6  C   UNL     1       6.572  -0.154   7.171  0.00  0.00    +0.128 A 
ENDROOT
BRANCH   1  13
ATOM      7  C   UNL     1      -0.549  -1.252   3.000  0.00  0.00    +0.100 C 
ATOM      8  N   UNL     1       0.433  -0.439   3.264  0.00  0.00    -0.169 NA
ATOM      9  N   UNL     1       1.218  -0.605   4.385  0.00  0.00    -0.152 N 
ATOM     10  C   UNL     1       2.244   0.266   4.811  0.00  0.00    +0.153 C 
ATOM     11  N   UNL     1       2.312   1.522   4.457  0.00  0.00    -0.283 NA
ATOM     12  C   UNL     1       3.243  -0.389   5.703  0.00  0.00    +0.081 C 
ATOM     13  C   UNL     1       4.570  -0.024   5.697  0.00  0.00    +0.028 C 
ATOM     14  C   UNL     1       2.729  -1.455   6.598  0.00  0.00    +0.273 C 
ATOM     15  O   UNL     1       3.301  -1.730   7.640  0.00  0.00    -0.268 OA
ATOM     16  N   UNL     1       1.611  -2.111   6.227  0.00  0.00    -0.152 NA
ATOM     17  C   UNL     1       0.952  -1.705   5.171  0.00  0.00    +0.181 C 
ATOM     18  S   UNL     1      -0.471  -2.398   4.370  0.00  0.00    -0.038 S 
ATOM     19  H   UNL     1       1.635   1.899   3.874  0.00  0.00    +0.188 HD
BRANCH   7  21
ATOM     20  C   UNL     1      -1.174  -0.051   0.923  0.00  0.00    +0.011 C 
ATOM     21  C   UNL     1      -1.510  -1.229   1.839  0.00  0.00    +0.061 C 
ENDBRANCH   7  21
ENDBRANCH   1  13
BRANCH   6  22
ATOM     22  O   UNL     1       6.661   1.199   7.155  0.00  0.00    -0.488 OA
BRANCH  22  23
ATOM     23  C   UNL     1       7.728   1.788   7.902  0.00  0.00    +0.270 C 
BRANCH  23  24
ATOM     24  C   UNL     1       7.666   3.310   7.766  0.00  0.00    +0.270 C 
BRANCH  24  25
ATOM     25  O   UNL     1       6.467   3.794   8.374  0.00  0.00    -0.489 OA
BRANCH  25  26
ATOM     26  C   UNL     1       6.256   5.137   8.340  0.00  0.00    +0.121 A 
ATOM     27  C   UNL     1       7.182   5.970   7.729  0.00  0.00    +0.047 A 
ATOM     28  C   UNL     1       6.966   7.334   7.696  0.00  0.00    +0.019 A 
ATOM     29  C   UNL     1       5.828   7.869   8.271  0.00  0.00    +0.018 A 
ATOM     30  C   UNL     1       4.904   7.040   8.882  0.00  0.00    +0.019 A 
ATOM     31  C   UNL     1       5.113   5.675   8.912  0.00  0.00    +0.047 A 
ATOM     32 BR   UNL     1       5.535   9.737   8.224  0.00  0.00    -0.050 Br
ENDBRANCH  25  26
ENDBRANCH  24  25
ENDBRANCH  23  24
ENDBRANCH  22  23
ENDBRANCH   6  22
TORSDOF 7
