REMARK  Name = ZINC46027373
REMARK  7 active torsions:
REMARK  status: ('A' for Active; 'I' for Inactive)
REMARK    1  A    between atoms: C_1  and  C_2
REMARK    2  A    between atoms: C_6  and  N_8
REMARK    3  A    between atoms: N_8  and  S_9
REMARK    4  A    between atoms: S_9  and  C_12
REMARK    5  A    between atoms: C_14  and  C_19
REMARK    6  A    between atoms: C_17  and  C_18
REMARK    7  A    between atoms: N_24  and  C_26
REMARK                            x       y       z     vdW  Elec       q    Type
REMARK                         _______ _______ _______ _____ _____    ______ ____
ROOT
ATOM      1  C   UNL     1       2.671  -3.531   2.534  0.00  0.00    +0.112 A 
ATOM      2  C   UNL     1       3.519  -3.688   3.612  0.00  0.00    +0.039 A 
ATOM      3  C   UNL     1       4.682  -2.925   3.697  0.00  0.00    +0.004 A 
ATOM      4  C   UNL     1       4.982  -2.007   2.693  0.00  0.00    +0.010 A 
ATOM      5  C   UNL     1       4.127  -1.858   1.620  0.00  0.00    +0.006 A 
ATOM      6  C   UNL     1       2.976  -2.622   1.538  0.00  0.00    -0.024 A 
ATOM      7  C   UNL     1       2.050  -2.459   0.360  0.00  0.00    +0.046 C 
ENDROOT
BRANCH   3   8
ATOM      8  C   UNL     1       5.597  -3.090   4.853  0.00  0.00    +0.095 A 
ATOM      9  C   UNL     1       6.164  -1.946   5.472  0.00  0.00    -0.011 A 
ATOM     10  C   UNL     1       6.990  -2.133   6.529  0.00  0.00    +0.024 A 
ATOM     11  C   UNL     1       7.245  -3.463   6.945  0.00  0.00    +0.270 A 
ATOM     12  O   UNL     1       7.988  -3.679   7.889  0.00  0.00    -0.266 OA
ATOM     13  N   UNL     1       6.662  -4.486   6.295  0.00  0.00    -0.232 N 
ATOM     14  N   UNL     1       5.872  -4.290   5.301  0.00  0.00    -0.168 NA
ATOM     15  C   UNL     1       6.931  -5.857   6.734  0.00  0.00    +0.176 C 
ATOM     16  C   UNL     1       7.636  -1.001   7.276  0.00  0.00    +0.041 C 
ATOM     17  C   UNL     1       7.598   0.280   6.443  0.00  0.00    +0.005 C 
ATOM     18  C   UNL     1       6.161   0.498   5.953  0.00  0.00    +0.005 C 
ATOM     19  C   UNL     1       5.831  -0.585   4.927  0.00  0.00    +0.038 C 
ENDBRANCH   3   8
BRANCH   1  20
ATOM     20  S   UNL     1       1.200  -4.495   2.424  0.00  0.00    +0.073 S 
ATOM     21  O   UNL     1       0.139  -3.589   2.156  0.00  0.00    -0.150 OA
ATOM     22  O   UNL     1       1.197  -5.361   3.552  0.00  0.00    -0.150 OA
BRANCH  20  23
ATOM     23  N   UNL     1       1.347  -5.461   1.087  0.00  0.00    -0.216 N 
ATOM     24  H   UNL     1       0.718  -5.373   0.354  0.00  0.00    +0.174 HD
BRANCH  23  30
ATOM     25  C   UNL     1       4.925  -7.628  -1.493  0.00  0.00    +0.044 C 
ATOM     26  C   UNL     1       4.128  -7.475  -0.224  0.00  0.00    -0.049 A 
ATOM     27  C   UNL     1       4.415  -8.268   0.873  0.00  0.00    +0.003 A 
ATOM     28  C   UNL     1       3.686  -8.131   2.039  0.00  0.00    +0.002 A 
ATOM     29  C   UNL     1       2.668  -7.201   2.114  0.00  0.00    +0.024 A 
ATOM     30  C   UNL     1       2.376  -6.403   1.015  0.00  0.00    +0.048 A 
ATOM     31  C   UNL     1       3.114  -6.540  -0.154  0.00  0.00    +0.027 A 
ENDBRANCH  23  30
ENDBRANCH  20  23
ENDBRANCH   1  20
TORSDOF 4
