REMARK  Name = ZINC39325650
REMARK  6 active torsions:
REMARK  status: ('A' for Active; 'I' for Inactive)
REMARK    1  A    between atoms: C_1  and  C_2
REMARK    2  A    between atoms: C_4  and  C_16
REMARK    3  A    between atoms: C_6  and  C_14
REMARK    4  A    between atoms: C_7  and  N_13
REMARK    5  A    between atoms: C_19  and  O_22
REMARK    6  A    between atoms: O_22  and  C_23
REMARK                            x       y       z     vdW  Elec       q    Type
REMARK                         _______ _______ _______ _____ _____    ______ ____
ROOT
ATOM      1  C   UNL     1       0.062   1.248   0.513  0.00  0.00    +0.067 C 
ATOM      2  C   UNL     1      -0.046  -0.254   0.466  0.00  0.00    +0.066 C 
ATOM      3  C   UNL     1      -1.158  -0.919   0.268  0.00  0.00    +0.030 C 
ATOM      4  C   UNL     1      -2.604  -0.515   0.171  0.00  0.00    +0.098 C 
ATOM      5  C   UNL     1      -3.372  -1.560   0.961  0.00  0.00    +0.097 C 
ATOM      6  C   UNL     1      -2.777  -2.679   1.422  0.00  0.00    +0.195 C 
ATOM      7  O   UNL     1      -1.481  -3.014   1.288  0.00  0.00    -0.448 OA
ATOM      8  C   UNL     1      -0.743  -2.390   0.234  0.00  0.00    +0.343 C 
ATOM      9  N   UNL     1       0.691  -2.308   0.533  0.00  0.00    -0.138 NA
ATOM     10  N   UNL     1       0.995  -1.112   0.616  0.00  0.00    -0.155 NA
ENDROOT
BRANCH   4  11
ATOM     11  C   UNL     1      -2.805   0.850   0.775  0.00  0.00    -0.035 A 
ATOM     12  C   UNL     1      -2.492   1.070   2.104  0.00  0.00    +0.008 A 
ATOM     13  C   UNL     1      -2.675   2.321   2.660  0.00  0.00    +0.046 A 
ATOM     14  C   UNL     1      -3.175   3.357   1.885  0.00  0.00    +0.121 A 
ATOM     15  C   UNL     1      -3.489   3.134   0.552  0.00  0.00    +0.046 A 
ATOM     16  C   UNL     1      -3.298   1.883  -0.001  0.00  0.00    +0.008 A 
BRANCH  14  17
ATOM     17  O   UNL     1      -3.357   4.589   2.430  0.00  0.00    -0.489 OA
BRANCH  17  18
ATOM     18  C   UNL     1      -2.901   4.779   3.771  0.00  0.00    +0.173 C 
ATOM     19  C   UNL     1      -4.003   4.364   4.768  0.00  0.00    +0.044 C 
ATOM     20  C   UNL     1      -3.882   5.393   5.918  0.00  0.00    +0.004 C 
ATOM     21  C   UNL     1      -3.557   6.708   5.168  0.00  0.00    +0.004 C 
ATOM     22  C   UNL     1      -2.618   6.270   4.025  0.00  0.00    +0.044 C 
ENDBRANCH  17  18
ENDBRANCH  14  17
ENDBRANCH   4  11
BRANCH   6  23
ATOM     23  N   UNL     1      -3.575  -3.568   2.097  0.00  0.00    -0.329 N 
ATOM     24  H   UNL     1      -4.518  -3.375   2.221  0.00  0.00    +0.145 HD
ATOM     25  H   UNL     1      -3.198  -4.389   2.449  0.00  0.00    +0.145 HD
ENDBRANCH   6  23
BRANCH   5  26
ATOM     26  C   UNL     1      -4.764  -1.351   1.223  0.00  0.00    +0.101 C 
ATOM     27  N   UNL     1      -5.869  -1.186   1.431  0.00  0.00    -0.191 NA
ENDBRANCH   5  26
TORSDOF 5
