REMARK  Name = ZINC14746945
REMARK  8 active torsions:
REMARK  status: ('A' for Active; 'I' for Inactive)
REMARK    1  A    between atoms: C_1  and  C_2
REMARK    2  A    between atoms: C_2  and  N_3
REMARK    3  A    between atoms: N_6  and  C_28
REMARK    4  A    between atoms: C_14  and  C_15
REMARK    5  A    between atoms: C_14  and  N_70
REMARK    6  A    between atoms: N_18  and  C_20
REMARK    7  A    between atoms: C_25  and  O_26
REMARK    8  A    between atoms: O_26  and  C_27
REMARK                            x       y       z     vdW  Elec       q    Type
REMARK                         _______ _______ _______ _____ _____    ______ ____
ROOT
ATOM      1  N   UNL     1      -3.633   6.999  -3.368  0.00  0.00    -0.271 N 
ATOM      2  C   UNL     1      -4.393   7.122  -4.473  0.00  0.00    +0.312 C 
ATOM      3  O   UNL     1      -5.548   6.749  -4.544  0.00  0.00    -0.252 OA
ATOM      4  N   UNL     1      -3.735   7.702  -5.484  0.00  0.00    -0.220 N 
ATOM      5  C   UNL     1      -2.470   8.017  -5.137  0.00  0.00    +0.247 C 
ATOM      6  O   UNL     1      -1.629   8.549  -5.830  0.00  0.00    -0.273 OA
ATOM      7  C   UNL     1      -2.321   7.567  -3.702  0.00  0.00    +0.112 C 
ATOM      8  C   UNL     1      -2.007   8.757  -2.800  0.00  0.00    +0.017 C 
ATOM      9  C   UNL     1      -1.836   8.268  -1.358  0.00  0.00    -0.076 C 
ATOM     10  C   UNL     1      -1.085   6.090  -2.118  0.00  0.00    -0.076 C 
ATOM     11  C   UNL     1      -1.232   6.506  -3.585  0.00  0.00    +0.017 C 
ATOM     12  N   UNL     1      -0.734   7.282  -1.316  0.00  0.00    +0.383 N 
ATOM     13  H   UNL     1       0.112   7.711  -1.711  0.00  0.00    -0.081 HD
ENDROOT
BRANCH   4  14
ATOM     14  C   UNL     1      -4.316   7.963  -6.803  0.00  0.00    +0.094 C 
ATOM     15  C   UNL     1      -5.602   8.807  -6.679  0.00  0.00    +0.058 C 
ATOM     16  C   UNL     1      -6.520   8.288  -7.769  0.00  0.00    -0.042 A 
ATOM     17  C   UNL     1      -7.652   8.853  -8.332  0.00  0.00    +0.004 A 
ATOM     18  C   UNL     1      -8.337   8.190  -9.331  0.00  0.00    +0.000 A 
ATOM     19  C   UNL     1      -7.893   6.957  -9.770  0.00  0.00    +0.000 A 
ATOM     20  C   UNL     1      -6.765   6.391  -9.210  0.00  0.00    +0.004 A 
ATOM     21  C   UNL     1      -6.076   7.055  -8.208  0.00  0.00    -0.042 A 
ATOM     22  C   UNL     1      -4.832   6.657  -7.443  0.00  0.00    +0.058 C 
ENDBRANCH   4  14
BRANCH   1  24
ATOM     23  C   UNL     1      -5.104   7.295  -1.437  0.00  0.00    +0.024 C 
ATOM     24  C   UNL     1      -4.035   6.414  -2.087  0.00  0.00    +0.107 C 
ENDBRANCH   1  24
BRANCH  12  25
ATOM     25  C   UNL     1      -0.464   6.888   0.082  0.00  0.00    -0.040 C 
BRANCH  25  26
ATOM     26  C   UNL     1       0.460   5.697   0.089  0.00  0.00    -0.026 A 
ATOM     27  C   UNL     1       1.859   5.740   0.093  0.00  0.00    +0.136 A 
ATOM     28  N   UNL     1       2.307   4.511   0.099  0.00  0.00    -0.175 NA
ATOM     29  N   UNL     1       1.206   3.644   0.098  0.00  0.00    -0.236 N 
ATOM     30  C   UNL     1       0.084   4.397   0.086  0.00  0.00    +0.116 A 
BRANCH  29  31
ATOM     31  C   UNL     1       1.260   2.242   0.102  0.00  0.00    +0.107 A 
ATOM     32  C   UNL     1       0.087   1.501   0.100  0.00  0.00    +0.031 A 
ATOM     33  C   UNL     1       0.142   0.120   0.103  0.00  0.00    +0.002 A 
ATOM     34  C   UNL     1       1.364  -0.526   0.108  0.00  0.00    +0.004 A 
ATOM     35  C   UNL     1       2.537   0.205   0.111  0.00  0.00    +0.048 A 
ATOM     36  C   UNL     1       2.491   1.590   0.108  0.00  0.00    +0.145 A 
BRANCH  36  37
ATOM     37  O   UNL     1       3.643   2.310   0.110  0.00  0.00    -0.493 OA
ATOM     38  C   UNL     1       4.868   1.575   0.116  0.00  0.00    +0.277 C 
ENDBRANCH  36  37
ENDBRANCH  29  31
ENDBRANCH  25  26
ENDBRANCH  12  25
TORSDOF 6
