REMARK  Name = ZINC21250402
REMARK  10 active torsions:
REMARK  status: ('A' for Active; 'I' for Inactive)
REMARK    1  A    between atoms: C_1  and  C_2
REMARK    2  A    between atoms: C_2  and  C_3
REMARK    3  A    between atoms: C_2  and  O_4
REMARK    4  A    between atoms: O_4  and  C_5
REMARK    5  A    between atoms: C_6  and  C_13
REMARK    6  A    between atoms: C_10  and  O_11
REMARK    7  A    between atoms: O_11  and  C_12
REMARK    8  A    between atoms: C_18  and  C_23
REMARK    9  A    between atoms: C_28  and  O_29
REMARK   10  A    between atoms: O_29  and  C_30
REMARK                            x       y       z     vdW  Elec       q    Type
REMARK                         _______ _______ _______ _____ _____    ______ ____
ROOT
ATOM      1  C   UNL     1       1.143  -2.177   0.669  0.00  0.00    +0.140 C 
ATOM      2  C   UNL     1       1.039  -0.671   0.650  0.00  0.00    +0.037 C 
ATOM      3  C   UNL     1       0.065   0.045   0.062  0.00  0.00    +0.017 C 
ATOM      4  C   UNL     1       0.083   1.563   0.121  0.00  0.00    +0.060 C 
ATOM      5  C   UNL     1       1.524   2.068   0.144  0.00  0.00    +0.035 C 
ATOM      6  C   UNL     1       2.204   1.478   1.385  0.00  0.00    +0.088 C 
ATOM      7  C   UNL     1       2.098  -0.016   1.322  0.00  0.00    +0.163 C 
ATOM      8  O   UNL     1       2.950  -0.689   1.868  0.00  0.00    -0.292 OA
ATOM      9  N   UNL     1      -0.991  -0.486  -0.604  0.00  0.00    -0.316 N 
ATOM     10  C   UNL     1      -0.907  -1.504  -1.547  0.00  0.00    +0.052 A 
ATOM     11  C   UNL     1      -1.289  -1.324  -2.865  0.00  0.00    +0.025 A 
ATOM     12  C   UNL     1      -1.289  -2.409  -3.726  0.00  0.00    +0.002 A 
ATOM     13  C   UNL     1      -0.909  -3.659  -3.272  0.00  0.00    +0.002 A 
ATOM     14  C   UNL     1      -0.506  -3.836  -1.960  0.00  0.00    +0.025 A 
ATOM     15  C   UNL     1      -0.488  -2.749  -1.101  0.00  0.00    +0.049 A 
ATOM     16  N   UNL     1      -0.046  -2.867   0.216  0.00  0.00    -0.331 N 
ATOM     17  H   UNL     1      -2.008  -0.112  -0.412  0.00  0.00    +0.152 HD
ATOM     18  H   UNL     1      -0.617  -3.497   0.914  0.00  0.00    +0.147 HD
ENDROOT
BRANCH   1  20
ATOM     19  C   UNL     1       3.429  -3.154   0.353  0.00  0.00    +0.168 A 
ATOM     20  C   UNL     1       2.296  -2.587  -0.210  0.00  0.00    +0.023 A 
ATOM     21  C   UNL     1       2.228  -2.393  -1.577  0.00  0.00    +0.009 A 
ATOM     22  C   UNL     1       3.284  -2.768  -2.385  0.00  0.00    +0.004 A 
ATOM     23  C   UNL     1       4.414  -3.340  -1.831  0.00  0.00    +0.049 A 
ATOM     24  C   UNL     1       4.490  -3.537  -0.461  0.00  0.00    +0.162 A 
BRANCH  24  25
ATOM     25  O   UNL     1       5.601  -4.099   0.086  0.00  0.00    -0.491 OA
ATOM     26  C   UNL     1       6.653  -4.462  -0.810  0.00  0.00    +0.277 C 
ENDBRANCH  24  25
BRANCH  19  27
ATOM     27  O   UNL     1       3.500  -3.341   1.698  0.00  0.00    -0.485 OA
BRANCH  27  29
ATOM     28  C   UNL     1       4.168  -5.600   2.239  0.00  0.00    +0.051 C 
ATOM     29  C   UNL     1       3.021  -4.588   2.207  0.00  0.00    +0.168 C 
ATOM     30  C   UNL     1       2.478  -4.387   3.623  0.00  0.00    +0.051 C 
ENDBRANCH  27  29
ENDBRANCH  19  27
ENDBRANCH   1  20
BRANCH   5  31
ATOM     31  C   UNL     1       1.537   3.573   0.222  0.00  0.00    -0.002 A 
ATOM     32  C   UNL     1       0.942   4.215   1.290  0.00  0.00    +0.007 A 
ATOM     33  C   UNL     1       0.958   5.596   1.364  0.00  0.00    +0.001 A 
ATOM     34  C   UNL     1       1.560   6.337   0.364  0.00  0.00    +0.004 A 
ATOM     35  C   UNL     1       2.152   5.700  -0.709  0.00  0.00    +0.046 A 
ATOM     36  C   UNL     1       2.142   4.314  -0.783  0.00  0.00    +0.124 A 
BRANCH  36  37
ATOM     37  O   UNL     1       2.723   3.685  -1.837  0.00  0.00    -0.495 OA
ATOM     38  C   UNL     1       3.327   4.512  -2.834  0.00  0.00    +0.277 C 
ENDBRANCH  36  37
ENDBRANCH   5  31
TORSDOF 6
