REMARK  Name = ZINC01822023
REMARK  2 active torsions:
REMARK  status: ('A' for Active; 'I' for Inactive)
REMARK    1  A    between atoms: C_4  and  C_7
REMARK    2  A    between atoms: C_13  and  C_15
REMARK                            x       y       z     vdW  Elec       q    Type
REMARK                         _______ _______ _______ _____ _____    ______ ____
ROOT
ATOM      1  C   UNL     1       1.412   8.536  -0.501  0.00  0.00    +0.294 C 
ATOM      2  N   UNL     1       0.454   7.461  -0.637  0.00  0.00    -0.175 NA
ATOM      3  C   UNL     1      -0.857   7.921  -0.081  0.00  0.00    +0.138 C 
ATOM      4  C   UNL     1      -1.634   6.635  -0.146  0.00  0.00    +0.023 C 
ATOM      5  C   UNL     1      -0.687   5.670  -0.089  0.00  0.00    +0.047 C 
ATOM      6  N   UNL     1       0.592   6.270  -0.005  0.00  0.00    -0.273 N 
ATOM      7  C   UNL     1      -1.309   9.031  -0.971  0.00  0.00    +0.018 A 
ATOM      8  C   UNL     1      -2.645   9.286  -1.191  0.00  0.00    +0.024 A 
ATOM      9  C   UNL     1      -3.026  10.332  -2.012  0.00  0.00    +0.018 A 
ATOM     10  C   UNL     1      -2.062  11.123  -2.611  0.00  0.00    +0.019 A 
ATOM     11  C   UNL     1      -0.723  10.869  -2.397  0.00  0.00    +0.047 A 
ATOM     12  C   UNL     1      -0.330   9.816  -1.579  0.00  0.00    +0.128 A 
ATOM     13  O   UNL     1       0.997   9.582  -1.398  0.00  0.00    -0.468 OA
ATOM     14 BR   UNL     1      -4.860  10.680  -2.315  0.00  0.00    -0.050 Br
ATOM     15  H   UNL     1       1.390   5.908   0.411  0.00  0.00    +0.167 HD
ENDROOT
BRANCH   1  19
ATOM     16  C   UNL     1       1.422   9.981   3.519  0.00  0.00    +0.000 A 
ATOM     17  C   UNL     1       1.381  10.873   2.464  0.00  0.00    +0.000 A 
ATOM     18  C   UNL     1       1.377  10.405   1.163  0.00  0.00    +0.008 A 
ATOM     19  C   UNL     1       1.415   9.046   0.917  0.00  0.00    +0.009 A 
ATOM     20  C   UNL     1       1.451   8.153   1.972  0.00  0.00    +0.008 A 
ATOM     21  C   UNL     1       1.459   8.621   3.273  0.00  0.00    +0.000 A 
ENDBRANCH   1  19
BRANCH   5  22
ATOM     22  C   UNL     1      -0.948   4.212  -0.106  0.00  0.00    -0.003 A 
ATOM     23  C   UNL     1       0.113   3.310  -0.043  0.00  0.00    +0.010 A 
ATOM     24  C   UNL     1      -0.137   1.953  -0.058  0.00  0.00    +0.001 A 
ATOM     25  C   UNL     1      -1.437   1.487  -0.136  0.00  0.00    +0.000 A 
ATOM     26  C   UNL     1      -2.494   2.377  -0.205  0.00  0.00    +0.001 A 
ATOM     27  C   UNL     1      -2.257   3.736  -0.185  0.00  0.00    +0.010 A 
ENDBRANCH   5  22
TORSDOF 2
