REMARK  Name = ZINC03175225
REMARK  9 active torsions:
REMARK  status: ('A' for Active; 'I' for Inactive)
REMARK    1  A    between atoms: C_3  and  C_10
REMARK    2  A    between atoms: C_5  and  N_7
REMARK    3  A    between atoms: C_10  and  O_12
REMARK    4  A    between atoms: O_12  and  C_13
REMARK    5  A    between atoms: C_16  and  C_19
REMARK    6  A    between atoms: C_21  and  C_33
REMARK    7  A    between atoms: C_23  and  C_28
REMARK    8  A    between atoms: C_23  and  O_32
REMARK    9  A    between atoms: C_33  and  C_35
REMARK                            x       y       z     vdW  Elec       q    Type
REMARK                         _______ _______ _______ _____ _____    ______ ____
ROOT
ATOM      1  C   UNL     1       8.376   6.556   0.095  0.00  0.00    +0.120 C 
ATOM      2  C   UNL     1       8.691   6.961   1.539  0.00  0.00    +0.144 C 
ATOM      3  C   UNL     1       9.914   7.883   1.531  0.00  0.00    +0.243 C 
ATOM      4  N   UNL     1       9.654   9.019   0.644  0.00  0.00    -0.264 N 
ATOM      5  C   UNL     1       8.834   8.906  -0.411  0.00  0.00    +0.302 C 
ATOM      6  O   UNL     1       8.660   9.877  -1.122  0.00  0.00    -0.253 OA
ATOM      7  N   UNL     1       8.199   7.763  -0.716  0.00  0.00    -0.292 N 
ATOM      8  H   UNL     1      10.083   9.870   0.823  0.00  0.00    +0.153 HD
ATOM      9  H   UNL     1       7.611   7.736  -1.486  0.00  0.00    +0.151 HD
ENDROOT
BRANCH   1  13
ATOM     10  C   UNL     1       4.784   4.242   0.011  0.00  0.00    +0.132 A 
ATOM     11  C   UNL     1       6.018   3.612  -0.047  0.00  0.00    +0.047 A 
ATOM     12  C   UNL     1       7.178   4.362  -0.020  0.00  0.00    +0.009 A 
ATOM     13  C   UNL     1       7.109   5.740   0.065  0.00  0.00    -0.026 A 
ATOM     14  C   UNL     1       5.880   6.371   0.124  0.00  0.00    +0.009 A 
ATOM     15  C   UNL     1       4.717   5.626   0.091  0.00  0.00    +0.047 A 
BRANCH  10  16
ATOM     16  O   UNL     1       3.641   3.506  -0.015  0.00  0.00    -0.422 OA
BRANCH  16  17
ATOM     17  C   UNL     1       3.271   2.872   1.115  0.00  0.00    +0.345 C 
ATOM     18  O   UNL     1       3.997   2.894   2.089  0.00  0.00    -0.245 OA
BRANCH  17  21
ATOM     19  C   UNL     1      -0.053   1.447   0.108  0.00  0.00    +0.003 A 
ATOM     20  C   UNL     1       1.148   2.123   0.051  0.00  0.00    +0.015 A 
ATOM     21  C   UNL     1       1.984   2.151   1.169  0.00  0.00    +0.062 A 
ATOM     22  C   UNL     1       1.597   1.492   2.338  0.00  0.00    +0.047 A 
ATOM     23  C   UNL     1       0.394   0.819   2.381  0.00  0.00    +0.127 A 
ATOM     24  C   UNL     1      -0.430   0.796   1.269  0.00  0.00    +0.033 A 
BRANCH  23  25
ATOM     25  N   UNL     1      -0.017   0.120   3.619  0.00  0.00    +0.056 N 
ATOM     26  O   UNL     1       0.701   0.140   4.591  0.00  0.00    -0.126 OA
ATOM     27  O   UNL     1      -1.072  -0.469   3.659  0.00  0.00    -0.126 OA
ENDBRANCH  23  25
ENDBRANCH  17  21
ENDBRANCH  16  17
ENDBRANCH  10  16
ENDBRANCH   1  13
BRANCH   3  28
ATOM     28  C   UNL     1      10.180   8.393   2.949  0.00  0.00    +0.436 C 
ATOM     29  F   UNL     1      10.421   7.307   3.797  0.00  0.00    -0.166 F 
ATOM     30  F   UNL     1      11.297   9.235   2.940  0.00  0.00    -0.166 F 
ATOM     31  F   UNL     1       9.064   9.102   3.406  0.00  0.00    -0.166 F 
ENDBRANCH   3  28
BRANCH   3  32
ATOM     32  O   UNL     1      11.054   7.162   1.060  0.00  0.00    -0.364 OA
ATOM     33  H   UNL     1      11.866   7.686   1.029  0.00  0.00    +0.212 HD
ENDBRANCH   3  32
BRANCH   2  34
ATOM     34  C   UNL     1       8.987   5.729   2.356  0.00  0.00    +0.174 C 
ATOM     35  O   UNL     1       9.479   4.755   1.827  0.00  0.00    -0.291 OA
BRANCH  34  36
ATOM     36  C   UNL     1       8.678   5.709   3.794  0.00  0.00    +0.036 A 
ATOM     37  C   UNL     1       8.953   4.571   4.568  0.00  0.00    +0.014 A 
ATOM     38  C   UNL     1       8.643   4.605   5.915  0.00  0.00    +0.020 A 
ATOM     39  C   UNL     1       8.078   5.748   6.452  0.00  0.00    +0.111 A 
ATOM     40  N   UNL     1       7.829   6.804   5.702  0.00  0.00    -0.263 NA
ATOM     41  C   UNL     1       8.110   6.825   4.415  0.00  0.00    +0.122 A 
ENDBRANCH  34  36
ENDBRANCH   2  34
TORSDOF 9
