REMARK  Name = ZINC07738371
REMARK  2 active torsions:
REMARK  status: ('A' for Active; 'I' for Inactive)
REMARK    1  A    between atoms: C_4  and  C_7
REMARK    2  A    between atoms: C_18  and  N_19
REMARK                            x       y       z     vdW  Elec       q    Type
REMARK                         _______ _______ _______ _____ _____    ______ ____
ROOT
ATOM      1  C   UNL     1       3.692  -0.697   0.165  0.00  0.00    +0.020 A 
ATOM      2  C   UNL     1       2.408   0.007   0.313  0.00  0.00    +0.010 A 
ATOM      3  C   UNL     1       2.366   1.361   0.655  0.00  0.00    +0.030 A 
ATOM      4  C   UNL     1       1.148   1.992   0.787  0.00  0.00    +0.042 A 
ATOM      5  C   UNL     1      -0.032   1.290   0.581  0.00  0.00    +0.022 A 
ATOM      6  C   UNL     1      -0.005  -0.046   0.243  0.00  0.00    +0.028 A 
ATOM      7  C   UNL     1       1.213  -0.703   0.105  0.00  0.00    +0.050 A 
ATOM      8  N   UNL     1       1.258  -2.041  -0.232  0.00  0.00    -0.320 N 
ATOM      9  H   UNL     1       0.402  -2.537  -0.378  0.00  0.00    +0.169 HD
ATOM     10  C   UNL     1       2.425  -2.691  -0.370  0.00  0.00    +0.274 A 
ATOM     11  O   UNL     1       2.415  -3.873  -0.669  0.00  0.00    -0.266 OA
ATOM     12  C   UNL     1       3.666  -2.039  -0.176  0.00  0.00    +0.123 A 
ATOM     13 CL   UNL     1       1.089   3.675   1.211  0.00  0.00    -0.084 Cl
ENDROOT
BRANCH  12  14
ATOM     14  N   UNL     1       4.860  -2.747  -0.327  0.00  0.00    -0.268 N 
ATOM     15  C   UNL     1       5.220  -3.718   0.587  0.00  0.00    +0.076 A 
ATOM     16  C   UNL     1       4.390  -4.011   1.665  0.00  0.00    +0.028 A 
ATOM     17  C   UNL     1       4.758  -4.986   2.567  0.00  0.00    +0.002 A 
ATOM     18  C   UNL     1       5.949  -5.682   2.407  0.00  0.00    +0.002 A 
ATOM     19  C   UNL     1       6.775  -5.415   1.355  0.00  0.00    +0.030 A 
ATOM     20  C   UNL     1       6.425  -4.427   0.422  0.00  0.00    +0.088 A 
ATOM     21  N   UNL     1       7.238  -4.161  -0.618  0.00  0.00    -0.248 NA
ATOM     22  C   UNL     1       6.931  -3.248  -1.495  0.00  0.00    +0.182 A 
ATOM     23  C   UNL     1       5.684  -2.489  -1.365  0.00  0.00    +0.275 A 
ATOM     24  O   UNL     1       5.395  -1.635  -2.184  0.00  0.00    -0.266 OA
ENDBRANCH  12  14
BRANCH   1  28
ATOM     25  C   UNL     1       7.376   1.333   0.763  0.00  0.00    +0.000 A 
ATOM     26  C   UNL     1       6.568   1.673  -0.308  0.00  0.00    +0.001 A 
ATOM     27  C   UNL     1       5.370   1.018  -0.508  0.00  0.00    +0.008 A 
ATOM     28  C   UNL     1       4.974   0.010   0.373  0.00  0.00    -0.015 A 
ATOM     29  C   UNL     1       5.791  -0.325   1.454  0.00  0.00    +0.008 A 
ATOM     30  C   UNL     1       6.989   0.334   1.639  0.00  0.00    +0.001 A 
ENDBRANCH   1  28
TORSDOF 2
