REMARK  Name = ZINC19453139
REMARK  9 active torsions:
REMARK  status: ('A' for Active; 'I' for Inactive)
REMARK    1  A    between atoms: C_1  and  C_2
REMARK    2  A    between atoms: C_2  and  C_3
REMARK    3  A    between atoms: C_2  and  C_4
REMARK    4  A    between atoms: C_7  and  C_12
REMARK    5  A    between atoms: C_12  and  N_14
REMARK    6  A    between atoms: C_18  and  C_20
REMARK    7  A    between atoms: C_20  and  C_21
REMARK    8  A    between atoms: C_24  and  O_27
REMARK    9  A    between atoms: O_27  and  C_28
REMARK                            x       y       z     vdW  Elec       q    Type
REMARK                         _______ _______ _______ _____ _____    ______ ____
ROOT
ATOM      1  N   UNL     1       0.055  -0.002  -0.016  0.00  0.00    -0.152 NA
ATOM      2  C   UNL     1       1.288  -0.630  -0.138  0.00  0.00    +0.163 A 
ATOM      3  N   UNL     1       2.486  -0.090  -0.246  0.00  0.00    -0.342 N 
ATOM      4  C   UNL     1       3.566  -0.839  -0.350  0.00  0.00    +0.095 A 
ATOM      5  C   UNL     1       3.420  -2.187  -0.355  0.00  0.00    +0.013 A 
ATOM      6  S   UNL     1       1.646  -2.329  -0.195  0.00  0.00    -0.057 S 
ATOM      7  H   UNL     1       2.598   1.004  -0.251  0.00  0.00    +0.167 HD
ENDROOT
BRANCH   1   8
ATOM      8  C   UNL     1      -0.016   1.344   0.009  0.00  0.00    +0.275 C 
ATOM      9  O   UNL     1       1.004   2.006   0.021  0.00  0.00    -0.268 OA
BRANCH   8  13
ATOM     10  C   UNL     1      -3.793   3.229   0.034  0.00  0.00    +0.022 A 
ATOM     11  C   UNL     1      -2.677   3.995  -0.073  0.00  0.00    +0.022 A 
ATOM     12  C   UNL     1      -1.417   3.398  -0.083  0.00  0.00    +0.020 A 
ATOM     13  C   UNL     1      -1.327   2.011   0.017  0.00  0.00    +0.103 A 
ATOM     14  C   UNL     1      -2.522   1.253   0.121  0.00  0.00    +0.261 A 
ATOM     15  O   UNL     1      -2.470   0.038   0.206  0.00  0.00    -0.267 OA
ATOM     16  N   UNL     1      -3.713   1.881   0.133  0.00  0.00    -0.325 N 
ATOM     17  H   UNL     1      -4.630   1.281   0.224  0.00  0.00    +0.169 HD
BRANCH  10  19
ATOM     18  C   UNL     1      -5.975   3.378  -1.135  0.00  0.00    +0.013 C 
ATOM     19  C   UNL     1      -5.146   3.892   0.044  0.00  0.00    +0.029 C 
ATOM     20  C   UNL     1      -5.865   3.565   1.354  0.00  0.00    +0.013 C 
ENDBRANCH  10  19
ENDBRANCH   8  13
ENDBRANCH   1   8
BRANCH   5  21
ATOM     21  C   UNL     1       4.464  -3.267  -0.467  0.00  0.00    +0.079 C 
BRANCH  21  22
ATOM     22  C   UNL     1       4.943  -3.647   0.911  0.00  0.00    -0.042 A 
ATOM     23  C   UNL     1       6.022  -2.990   1.472  0.00  0.00    +0.007 A 
ATOM     24  C   UNL     1       6.459  -3.333   2.737  0.00  0.00    +0.046 A 
ATOM     25  C   UNL     1       5.821  -4.345   3.440  0.00  0.00    +0.120 A 
ATOM     26  C   UNL     1       4.742  -5.007   2.872  0.00  0.00    +0.046 A 
ATOM     27  C   UNL     1       4.306  -4.656   1.609  0.00  0.00    +0.007 A 
BRANCH  25  28
ATOM     28  O   UNL     1       6.252  -4.688   4.682  0.00  0.00    -0.495 OA
ATOM     29  C   UNL     1       7.369  -3.964   5.204  0.00  0.00    +0.277 C 
ENDBRANCH  25  28
ENDBRANCH  21  22
ENDBRANCH   5  21
TORSDOF 6
