REMARK  Name = ZINC20545467
REMARK  5 active torsions:
REMARK  status: ('A' for Active; 'I' for Inactive)
REMARK    1  A    between atoms: C_1  and  C_2
REMARK    2  A    between atoms: C_3  and  N_21
REMARK    3  A    between atoms: C_5  and  S_9
REMARK    4  A    between atoms: S_9  and  N_12
REMARK    5  A    between atoms: N_12  and  C_13
REMARK                            x       y       z     vdW  Elec       q    Type
REMARK                         _______ _______ _______ _____ _____    ______ ____
ROOT
ATOM      1  S   UNL     1       2.821  -3.020  -0.066  0.00  0.00    +0.092 S 
ATOM      2  O   UNL     1       2.633  -4.336  -0.567  0.00  0.00    -0.148 OA
ATOM      3  O   UNL     1       3.768  -2.119  -0.626  0.00  0.00    -0.148 OA
ENDROOT
BRANCH   1   8
ATOM      4  C   UNL     1      -2.558  -0.287  -0.338  0.00  0.00    +0.047 C 
ATOM      5  C   UNL     1      -1.214  -0.968  -0.273  0.00  0.00    -0.011 A 
ATOM      6  C   UNL     1      -0.050  -0.210  -0.275  0.00  0.00    +0.031 A 
ATOM      7  C   UNL     1       1.186  -0.841  -0.210  0.00  0.00    +0.052 A 
ATOM      8  C   UNL     1       1.254  -2.219  -0.149  0.00  0.00    +0.113 A 
ATOM      9  C   UNL     1       0.094  -2.972  -0.153  0.00  0.00    +0.049 A 
ATOM     10  C   UNL     1      -1.139  -2.347  -0.218  0.00  0.00    +0.047 A 
ATOM     11 CL   UNL     1      -2.593  -3.295  -0.223  0.00  0.00    -0.083 Cl
BRANCH   6  12
ATOM     12  N   UNL     1      -0.122   1.183  -0.337  0.00  0.00    -0.358 N 
ATOM     13  H   UNL     1       0.801   1.782  -0.338  0.00  0.00    +0.142 HD
ATOM     14  H   UNL     1      -1.101   1.682  -0.384  0.00  0.00    +0.142 HD
ENDBRANCH   6  12
ENDBRANCH   1   8
BRANCH   1  15
ATOM     15  N   UNL     1       3.207  -3.175   1.537  0.00  0.00    -0.096 NA
BRANCH  15  16
ATOM     16  C   UNL     1       2.378  -3.912   2.387  0.00  0.00    +0.094 A 
ATOM     17  C   UNL     1       1.733  -5.048   1.917  0.00  0.00    +0.048 A 
ATOM     18  C   UNL     1       0.914  -5.775   2.760  0.00  0.00    +0.043 A 
ATOM     19  C   UNL     1       0.737  -5.371   4.072  0.00  0.00    +0.021 A 
ATOM     20  C   UNL     1       1.377  -4.240   4.543  0.00  0.00    +0.023 A 
ATOM     21  C   UNL     1       2.202  -3.512   3.707  0.00  0.00    +0.065 A 
ATOM     22 CL   UNL     1       3.012  -2.096   4.301  0.00  0.00    -0.082 Cl
ATOM     23 CL   UNL     1       0.107  -7.196   2.174  0.00  0.00    -0.083 Cl
ENDBRANCH  15  16
ENDBRANCH   1  15
TORSDOF 4
