REMARK  Name = ZINC11909880
REMARK  10 active torsions:
REMARK  status: ('A' for Active; 'I' for Inactive)
REMARK    1  A    between atoms: C_1  and  C_2
REMARK    2  A    between atoms: C_4  and  C_8
REMARK    3  A    between atoms: N_5  and  C_7
REMARK    4  A    between atoms: N_10  and  C_11
REMARK    5  A    between atoms: N_10  and  C_12
REMARK    6  A    between atoms: C_12  and  C_14
REMARK    7  A    between atoms: C_12  and  C_21
REMARK    8  A    between atoms: C_14  and  C_15
REMARK    9  A    between atoms: C_26  and  C_27
REMARK   10  A    between atoms: C_26  and  N_73
REMARK                            x       y       z     vdW  Elec       q    Type
REMARK                         _______ _______ _______ _____ _____    ______ ____
ROOT
ATOM      1  C   UNL     1       6.235   3.241   5.146  0.00  0.00    +0.083 C 
ENDROOT
BRANCH   1   2
ATOM      2  C   UNL     1       6.013   3.614   3.679  0.00  0.00    +0.006 C 
ATOM      3  C   UNL     1       7.184   4.467   3.184  0.00  0.00    -0.013 C 
ATOM      4  C   UNL     1       6.986   4.786   1.701  0.00  0.00    -0.078 C 
ATOM      5  C   UNL     1       5.766   2.720   1.361  0.00  0.00    -0.078 C 
ATOM      6  C   UNL     1       5.927   2.340   2.834  0.00  0.00    -0.013 C 
ATOM      7  N   UNL     1       6.936   3.519   0.941  0.00  0.00    +0.383 N 
ATOM      8  H   UNL     1       7.791   2.983   1.131  0.00  0.00    -0.081 HD
BRANCH   7   9
ATOM      9  C   UNL     1       6.860   3.802  -0.508  0.00  0.00    -0.024 C 
BRANCH   9  10
ATOM     10  C   UNL     1       7.031   2.510  -1.264  0.00  0.00    +0.009 A 
ATOM     11  C   UNL     1       6.036   1.731  -1.733  0.00  0.00    +0.021 A 
ATOM     12  C   UNL     1       6.630   0.626  -2.376  0.00  0.00    +0.020 A 
ATOM     13  C   UNL     1       7.967   0.773  -2.280  0.00  0.00    +0.093 A 
ATOM     14  N   UNL     1       8.222   1.927  -1.594  0.00  0.00    -0.307 N 
ATOM     15  C   UNL     1       9.489   2.429  -1.286  0.00  0.00    +0.138 A 
ATOM     16  C   UNL     1      10.622   1.730  -1.684  0.00  0.00    +0.047 A 
ATOM     17  C   UNL     1      11.871   2.239  -1.373  0.00  0.00    +0.005 A 
ATOM     18  C   UNL     1      11.943   3.434  -0.671  0.00  0.00    +0.020 A 
ATOM     19  C   UNL     1      10.775   4.075  -0.307  0.00  0.00    +0.113 A 
ATOM     20  N   UNL     1       9.599   3.566  -0.618  0.00  0.00    -0.238 NA
ENDBRANCH   9  10
ENDBRANCH   7   9
ENDBRANCH   1   2
BRANCH   1  23
ATOM     21  C   UNL     1       5.205   1.308   6.212  0.00  0.00    +0.265 C 
ATOM     22  O   UNL     1       6.316   0.839   6.372  0.00  0.00    -0.268 OA
ATOM     23  N   UNL     1       5.061   2.525   5.651  0.00  0.00    -0.296 N 
ATOM     24  C   UNL     1       3.732   3.131   5.547  0.00  0.00    +0.132 C 
BRANCH  21  28
ATOM     25  C   UNL     1       0.444  -0.225   7.052  0.00  0.00    +0.067 C 
ATOM     26  C   UNL     1       1.948  -0.137   7.005  0.00  0.00    +0.061 A 
ATOM     27  C   UNL     1       2.693   0.897   6.435  0.00  0.00    +0.057 A 
ATOM     28  C   UNL     1       4.018   0.546   6.631  0.00  0.00    +0.123 A 
ATOM     29  N   UNL     1       4.001  -0.653   7.286  0.00  0.00    -0.262 N 
ATOM     30  N   UNL     1       2.786  -1.016   7.491  0.00  0.00    -0.176 NA
ATOM     31  C   UNL     1       5.189  -1.407   7.696  0.00  0.00    +0.173 C 
ENDBRANCH  21  28
ENDBRANCH   1  23
BRANCH   1  32
ATOM     32  C   UNL     1       6.449   4.514   5.969  0.00  0.00    +0.058 C 
BRANCH  32  33
ATOM     33  C   UNL     1       6.790   4.142   7.389  0.00  0.00    -0.046 A 
ATOM     34  C   UNL     1       5.783   3.990   8.324  0.00  0.00    +0.004 A 
ATOM     35  C   UNL     1       6.095   3.644   9.626  0.00  0.00    +0.000 A 
ATOM     36  C   UNL     1       7.415   3.461   9.995  0.00  0.00    +0.000 A 
ATOM     37  C   UNL     1       8.422   3.618   9.061  0.00  0.00    +0.000 A 
ATOM     38  C   UNL     1       8.109   3.959   7.758  0.00  0.00    +0.004 A 
ENDBRANCH  32  33
ENDBRANCH   1  32
TORSDOF 7
