REMARK  Name = ZINC39507045
REMARK  4 active torsions:
REMARK  status: ('A' for Active; 'I' for Inactive)
REMARK    1  A    between atoms: C_4  and  C_7
REMARK    2  A    between atoms: C_7  and  C_8
REMARK    3  A    between atoms: C_14  and  C_17
REMARK    4  A    between atoms: C_22  and  O_23
REMARK                            x       y       z     vdW  Elec       q    Type
REMARK                         _______ _______ _______ _____ _____    ______ ____
ROOT
ATOM      1  C   UNL     1       4.171  -0.963   1.399  0.00  0.00    +0.010 C 
ATOM      2  C   UNL     1       5.502  -1.762   1.422  0.00  0.00    +0.028 C 
ATOM      3  C   UNL     1       6.134  -1.337   2.759  0.00  0.00    +0.032 C 
ATOM      4  C   UNL     1       5.875  -2.402   3.831  0.00  0.00    +0.024 C 
ATOM      5  C   UNL     1       7.262  -2.889   4.305  0.00  0.00    +0.010 C 
ATOM      6  C   UNL     1       8.204  -2.565   3.118  0.00  0.00    +0.024 C 
ATOM      7  C   UNL     1       7.658  -1.208   2.606  0.00  0.00    +0.031 C 
ATOM      8  N   UNL     1       5.542  -0.050   3.146  0.00  0.00    -0.240 NA
ATOM      9  C   UNL     1       4.585   0.359   2.093  0.00  0.00    +0.100 C 
ATOM     10  I   UNL     1       6.992   1.373   3.416  0.00  0.00    +0.021 I 
ENDROOT
BRANCH   6  11
ATOM     11  C   UNL     1       9.629  -2.428   3.590  0.00  0.00    -0.003 A 
ATOM     12  C   UNL     1       9.951  -1.488   4.551  0.00  0.00    +0.007 A 
ATOM     13  C   UNL     1      11.258  -1.361   4.984  0.00  0.00    +0.001 A 
ATOM     14  C   UNL     1      12.245  -2.174   4.457  0.00  0.00    +0.004 A 
ATOM     15  C   UNL     1      11.928  -3.114   3.497  0.00  0.00    +0.046 A 
ATOM     16  C   UNL     1      10.616  -3.248   3.064  0.00  0.00    +0.120 A 
BRANCH  16  17
ATOM     17  O   UNL     1      10.301  -4.176   2.124  0.00  0.00    -0.506 OA
ATOM     18  H   UNL     1      10.362  -3.852   1.215  0.00  0.00    +0.292 HD
ENDBRANCH  16  17
ENDBRANCH   6  11
BRANCH   1  19
ATOM     19  C   UNL     1       3.711  -0.707  -0.038  0.00  0.00    +0.040 C 
BRANCH  19  23
ATOM     20  C   UNL     1      -0.017   1.378   0.010  0.00  0.00    +0.000 A 
ATOM     21  C   UNL     1       1.171   2.086   0.002  0.00  0.00    +0.000 A 
ATOM     22  C   UNL     1       2.377   1.411  -0.013  0.00  0.00    +0.003 A 
ATOM     23  C   UNL     1       2.396   0.029  -0.020  0.00  0.00    -0.047 A 
ATOM     24  C   UNL     1       1.208  -0.679  -0.012  0.00  0.00    +0.003 A 
ATOM     25  C   UNL     1       0.002  -0.004   0.002  0.00  0.00    +0.000 A 
ENDBRANCH  19  23
ENDBRANCH   1  19
TORSDOF 4
