REMARK  Name = ZINC40815264
REMARK  9 active torsions:
REMARK  status: ('A' for Active; 'I' for Inactive)
REMARK    1  A    between atoms: C_1  and  C_2
REMARK    2  A    between atoms: C_5  and  S_8
REMARK    3  A    between atoms: S_8  and  N_11
REMARK    4  A    between atoms: N_11  and  N_12
REMARK    5  A    between atoms: C_19  and  C_33
REMARK    6  A    between atoms: C_20  and  C_22
REMARK    7  A    between atoms: N_24  and  C_25
REMARK    8  A    between atoms: C_30  and  O_31
REMARK    9  A    between atoms: O_31  and  C_32
REMARK                            x       y       z     vdW  Elec       q    Type
REMARK                         _______ _______ _______ _____ _____    ______ ____
ROOT
ATOM      1  N   UNL     1       2.480  -4.655   1.046  0.00  0.00    -0.170 NA
ATOM      2  C   UNL     1       3.724  -5.022   1.034  0.00  0.00    +0.071 C 
ATOM      3  C   UNL     1       4.316  -5.865  -0.087  0.00  0.00    +0.058 C 
ATOM      4  C   UNL     1       5.225  -6.926   0.541  0.00  0.00    +0.014 C 
ATOM      5  C   UNL     1       6.417  -6.270   1.242  0.00  0.00    +0.075 C 
ATOM      6  C   UNL     1       5.917  -5.224   2.207  0.00  0.00    +0.115 A 
ATOM      7  C   UNL     1       4.674  -4.646   2.106  0.00  0.00    +0.042 A 
ATOM      8  C   UNL     1       4.549  -3.726   3.154  0.00  0.00    +0.009 A 
ATOM      9  C   UNL     1       5.727  -3.775   3.847  0.00  0.00    +0.193 A 
ATOM     10  O   UNL     1       6.534  -4.692   3.261  0.00  0.00    -0.454 OA
ATOM     11  C   UNL     1       3.357  -2.856   3.457  0.00  0.00    +0.048 C 
ENDROOT
BRANCH   9  12
ATOM     12  C   UNL     1       6.056  -2.978   5.034  0.00  0.00    +0.284 C 
ATOM     13  O   UNL     1       5.244  -2.188   5.481  0.00  0.00    -0.266 OA
ATOM     14  N   UNL     1       7.257  -3.119   5.629  0.00  0.00    -0.276 N 
ATOM     15  H   UNL     1       7.878  -3.793   5.313  0.00  0.00    +0.155 HD
BRANCH  14  16
ATOM     16  C   UNL     1       7.607  -2.293   6.704  0.00  0.00    +0.076 A 
ATOM     17  C   UNL     1       6.639  -1.879   7.607  0.00  0.00    +0.027 A 
ATOM     18  C   UNL     1       6.988  -1.064   8.668  0.00  0.00    +0.002 A 
ATOM     19  C   UNL     1       8.300  -0.659   8.831  0.00  0.00    +0.004 A 
ATOM     20  C   UNL     1       9.270  -1.068   7.935  0.00  0.00    +0.047 A 
ATOM     21  C   UNL     1       8.930  -1.889   6.873  0.00  0.00    +0.141 A 
BRANCH  21  22
ATOM     22  O   UNL     1       9.884  -2.297   5.993  0.00  0.00    -0.493 OA
ATOM     23  C   UNL     1      11.219  -1.844   6.229  0.00  0.00    +0.277 C 
ENDBRANCH  21  22
ENDBRANCH  14  16
ENDBRANCH   9  12
BRANCH   1  24
ATOM     24  N   UNL     1       1.626  -5.040   0.004  0.00  0.00    -0.136 N 
ATOM     25  H   UNL     1       1.966  -5.581  -0.727  0.00  0.00    +0.197 HD
BRANCH  24  26
ATOM     26  S   UNL     1       0.038  -4.571   0.019  0.00  0.00    +0.086 S 
ATOM     27  O   UNL     1      -0.495  -4.983   1.270  0.00  0.00    -0.149 OA
ATOM     28  O   UNL     1      -0.520  -4.987  -1.220  0.00  0.00    -0.149 OA
BRANCH  26  33
ATOM     29  C   UNL     1      -0.045   1.462   0.011  0.00  0.00    +0.044 C 
ATOM     30  C   UNL     1      -0.024  -0.045   0.013  0.00  0.00    -0.050 A 
ATOM     31  C   UNL     1      -0.026  -0.738  -1.183  0.00  0.00    +0.005 A 
ATOM     32  C   UNL     1      -0.006  -2.120  -1.181  0.00  0.00    +0.029 A 
ATOM     33  C   UNL     1       0.015  -2.810   0.017  0.00  0.00    +0.110 A 
ATOM     34  C   UNL     1       0.017  -2.117   1.213  0.00  0.00    +0.029 A 
ATOM     35  C   UNL     1       0.002  -0.735   1.211  0.00  0.00    +0.005 A 
ENDBRANCH  26  33
ENDBRANCH  24  26
ENDBRANCH   1  24
TORSDOF 6
