REMARK  Name = ZINC13139713
REMARK  6 active torsions:
REMARK  status: ('A' for Active; 'I' for Inactive)
REMARK    1  A    between atoms: C_4  and  C_7
REMARK    2  A    between atoms: C_8  and  C_20
REMARK    3  A    between atoms: N_10  and  C_13
REMARK    4  A    between atoms: C_11  and  N_12
REMARK    5  A    between atoms: C_20  and  N_21
REMARK    6  A    between atoms: N_24  and  C_27
REMARK                            x       y       z     vdW  Elec       q    Type
REMARK                         _______ _______ _______ _____ _____    ______ ____
ROOT
ATOM      1  C   UNL     1       3.698  -0.688  -0.037  0.00  0.00    +0.046 A 
ATOM      2  C   UNL     1       4.187  -1.503  -1.077  0.00  0.00    +0.087 A 
ATOM      3  N   UNL     1       5.358  -1.962  -0.727  0.00  0.00    -0.168 NA
ATOM      4  N   UNL     1       5.678  -1.471   0.544  0.00  0.00    -0.218 N 
ATOM      5  C   UNL     1       4.654  -0.680   0.963  0.00  0.00    +0.128 A 
ENDROOT
BRANCH   4   6
ATOM      6  C   UNL     1       6.854  -1.742   1.259  0.00  0.00    +0.068 A 
ATOM      7  C   UNL     1       7.415  -0.765   2.070  0.00  0.00    +0.029 A 
ATOM      8  C   UNL     1       8.573  -1.035   2.773  0.00  0.00    +0.022 A 
ATOM      9  C   UNL     1       9.174  -2.278   2.669  0.00  0.00    +0.041 A 
ATOM     10  C   UNL     1       8.615  -3.253   1.861  0.00  0.00    +0.022 A 
ATOM     11  C   UNL     1       7.454  -2.990   1.161  0.00  0.00    +0.029 A 
ATOM     12 CL   UNL     1      10.629  -2.614   3.553  0.00  0.00    -0.084 Cl
ENDBRANCH   4   6
BRANCH   1  16
ATOM     13  C   UNL     1      -0.017   1.379   0.010  0.00  0.00    +0.000 A 
ATOM     14  C   UNL     1       1.169   2.092   0.002  0.00  0.00    +0.001 A 
ATOM     15  C   UNL     1       2.377   1.427  -0.013  0.00  0.00    +0.008 A 
ATOM     16  C   UNL     1       2.402   0.033  -0.021  0.00  0.00    -0.013 A 
ATOM     17  C   UNL     1       1.205  -0.680  -0.013  0.00  0.00    +0.008 A 
ATOM     18  C   UNL     1       0.002  -0.004   0.002  0.00  0.00    +0.001 A 
ENDBRANCH   1  16
BRANCH   5  19
ATOM     19  N   UNL     1       4.581   0.004   2.169  0.00  0.00    -0.343 N 
ATOM     20  H   UNL     1       3.800   0.542   2.374  0.00  0.00    +0.144 HD
ATOM     21  H   UNL     1       5.309  -0.057   2.806  0.00  0.00    +0.144 HD
ENDBRANCH   5  19
BRANCH   2  22
ATOM     22  C   UNL     1       3.478  -1.795  -2.375  0.00  0.00    +0.142 C 
BRANCH  22  23
ATOM     23  N   UNL     1       3.853  -0.788  -3.376  0.00  0.00    -0.294 NA
ATOM     24  C   UNL     1       3.362   0.543  -2.993  0.00  0.00    +0.103 C 
ATOM     25  C   UNL     1       3.925   1.589  -3.961  0.00  0.00    +0.120 C 
ATOM     26  N   UNL     1       3.599   1.177  -5.335  0.00  0.00    -0.325 N 
ATOM     27  C   UNL     1       3.938  -0.193  -5.750  0.00  0.00    +0.120 C 
ATOM     28  C   UNL     1       3.375  -1.169  -4.711  0.00  0.00    +0.103 C 
BRANCH  26  29
ATOM     29  C   UNL     1       2.984   2.065  -6.224  0.00  0.00    +0.065 A 
ATOM     30  C   UNL     1       3.757   2.880  -7.039  0.00  0.00    +0.026 A 
ATOM     31  C   UNL     1       3.147   3.756  -7.917  0.00  0.00    +0.002 A 
ATOM     32  C   UNL     1       1.767   3.821  -7.984  0.00  0.00    +0.003 A 
ATOM     33  C   UNL     1       0.993   3.011  -7.173  0.00  0.00    +0.040 A 
ATOM     34  C   UNL     1       1.597   2.128  -6.297  0.00  0.00    +0.144 A 
ATOM     35  F   UNL     1       0.840   1.333  -5.510  0.00  0.00    -0.204 F 
ENDBRANCH  26  29
ENDBRANCH  22  23
ENDBRANCH   2  22
TORSDOF 6
