REMARK  Name = ZINC00786461
REMARK  9 active torsions:
REMARK  status: ('A' for Active; 'I' for Inactive)
REMARK    1  A    between atoms: C_1  and  C_2
REMARK    2  A    between atoms: C_2  and  O_3
REMARK    3  A    between atoms: O_3  and  C_4
REMARK    4  A    between atoms: C_6  and  C_11
REMARK    5  A    between atoms: C_9  and  O_10
REMARK    6  A    between atoms: C_15  and  C_19
REMARK    7  A    between atoms: C_15  and  C_20
REMARK    8  A    between atoms: C_27  and  C_29
REMARK    9  A    between atoms: C_27  and  C_30
REMARK                            x       y       z     vdW  Elec       q    Type
REMARK                         _______ _______ _______ _____ _____    ______ ____
ROOT
ATOM      1  C   UNL     1      -0.056   3.633  -0.866  0.00  0.00    +0.089 C 
ATOM      2  C   UNL     1       1.202   2.941  -0.411  0.00  0.00    +0.024 C 
ATOM      3  C   UNL     1       1.169   1.656  -0.000  0.00  0.00    +0.016 C 
ATOM      4  C   UNL     1       2.423   0.954   0.460  0.00  0.00    +0.058 C 
ATOM      5  C   UNL     1       3.632   1.522  -0.288  0.00  0.00    -0.023 C 
ATOM      6  C   UNL     1       3.706   3.029  -0.018  0.00  0.00    +0.086 C 
ATOM      7  C   UNL     1       2.408   3.666  -0.431  0.00  0.00    +0.162 C 
ATOM      8  O   UNL     1       2.400   4.826  -0.790  0.00  0.00    -0.292 OA
ATOM      9  C   UNL     1       3.470   1.276  -1.789  0.00  0.00    +0.011 C 
ATOM     10  C   UNL     1       4.912   0.847   0.209  0.00  0.00    +0.011 C 
ATOM     11  N   UNL     1      -0.011   0.966   0.007  0.00  0.00    -0.320 N 
ATOM     12  C   UNL     1      -1.210   1.624   0.017  0.00  0.00    +0.016 C 
ATOM     13  C   UNL     1      -1.286   2.907  -0.388  0.00  0.00    +0.024 C 
ATOM     14  C   UNL     1      -2.510   3.599  -0.383  0.00  0.00    +0.162 C 
ATOM     15  O   UNL     1      -2.541   4.759  -0.743  0.00  0.00    -0.292 OA
ATOM     16  C   UNL     1      -3.782   2.929   0.042  0.00  0.00    +0.086 C 
ATOM     17  C   UNL     1      -3.673   1.425  -0.231  0.00  0.00    -0.023 C 
ATOM     18  C   UNL     1      -2.437   0.888   0.495  0.00  0.00    +0.058 C 
ATOM     19  C   UNL     1      -3.530   1.185  -1.735  0.00  0.00    +0.011 C 
ATOM     20  C   UNL     1      -4.924   0.716   0.291  0.00  0.00    +0.011 C 
ATOM     21  H   UNL     1      -0.005  -0.134   0.006  0.00  0.00    +0.152 HD
ENDROOT
BRANCH   1  24
ATOM     22  C   UNL     1      -0.128   4.962  -4.402  0.00  0.00    +0.162 A 
ATOM     23  C   UNL     1      -0.119   4.910  -3.017  0.00  0.00    +0.054 A 
ATOM     24  C   UNL     1      -0.071   3.688  -2.372  0.00  0.00    -0.032 A 
ATOM     25  C   UNL     1      -0.042   2.516  -3.106  0.00  0.00    +0.008 A 
ATOM     26  C   UNL     1      -0.055   2.561  -4.487  0.00  0.00    +0.049 A 
ATOM     27  C   UNL     1      -0.098   3.783  -5.140  0.00  0.00    +0.158 A 
BRANCH  27  28
ATOM     28  O   UNL     1      -0.112   3.829  -6.499  0.00  0.00    -0.503 OA
ATOM     29  H   UNL     1      -0.089   2.896  -7.081  0.00  0.00    +0.292 HD
ENDBRANCH  27  28
BRANCH  22  30
ATOM     30  O   UNL     1      -0.170   6.163  -5.038  0.00  0.00    -0.489 OA
BRANCH  30  32
ATOM     31  C   UNL     1      -0.244   8.578  -5.103  0.00  0.00    +0.048 C 
ATOM     32  C   UNL     1      -0.199   7.332  -4.216  0.00  0.00    +0.226 C 
ENDBRANCH  30  32
ENDBRANCH  22  30
ENDBRANCH   1  24
TORSDOF 4
