REMARK  Name = ZINC03247741
REMARK  9 active torsions:
REMARK  status: ('A' for Active; 'I' for Inactive)
REMARK    1  A    between atoms: C_1  and  C_2
REMARK    2  A    between atoms: N_4  and  C_5
REMARK    3  A    between atoms: C_8  and  C_11
REMARK    4  A    between atoms: N_12  and  N_13
REMARK    5  A    between atoms: C_14  and  C_16
REMARK    6  A    between atoms: C_16  and  O_17
REMARK    7  A    between atoms: O_17  and  C_18
REMARK    8  A    between atoms: C_21  and  C_24
REMARK    9  A    between atoms: C_27  and  C_30
REMARK                            x       y       z     vdW  Elec       q    Type
REMARK                         _______ _______ _______ _____ _____    ______ ____
ROOT
ATOM      1  N   UNL     1       0.001  -0.006   0.200  0.00  0.00    -0.204 N 
ATOM      2  C   UNL     1      -0.011   1.329   0.384  0.00  0.00    +0.270 C 
ATOM      3  O   UNL     1      -1.064   1.909   0.547  0.00  0.00    -0.270 OA
ATOM      4  H   UNL     1       0.843  -0.469   0.065  0.00  0.00    +0.177 HD
ENDROOT
BRANCH   1   6
ATOM      5  C   UNL     1      -1.189  -2.011   0.024  0.00  0.00    +0.138 C 
ATOM      6  N   UNL     1      -1.201  -0.725   0.202  0.00  0.00    -0.188 NA
BRANCH   5  10
ATOM      7  C   UNL     1      -4.833  -4.189   0.031  0.00  0.00    +0.033 A 
ATOM      8  C   UNL     1      -3.627  -4.855  -0.162  0.00  0.00    +0.024 A 
ATOM      9  C   UNL     1      -2.443  -4.152  -0.165  0.00  0.00    +0.011 A 
ATOM     10  C   UNL     1      -2.454  -2.767   0.026  0.00  0.00    -0.005 A 
ATOM     11  C   UNL     1      -3.667  -2.103   0.226  0.00  0.00    +0.011 A 
ATOM     12  C   UNL     1      -4.848  -2.812   0.222  0.00  0.00    +0.024 A 
BRANCH   7  16
ATOM     13  C   UNL     1      -8.473  -5.066  -0.335  0.00  0.00    +0.109 C 
ATOM     14  C   UNL     1      -7.157  -4.340  -0.446  0.00  0.00    +0.214 C 
ATOM     15  O   UNL     1      -7.111  -3.246  -0.967  0.00  0.00    -0.276 OA
ATOM     16  N   UNL     1      -6.032  -4.907   0.034  0.00  0.00    -0.286 N 
ATOM     17  H   UNL     1      -6.055  -5.812   0.381  0.00  0.00    +0.155 HD
ENDBRANCH   7  16
ENDBRANCH   5  10
ENDBRANCH   1   6
BRANCH   2  18
ATOM     18  C   UNL     1       1.282   2.102   0.382  0.00  0.00    +0.326 C 
BRANCH  18  19
ATOM     19  O   UNL     1       1.009   3.489   0.595  0.00  0.00    -0.483 OA
BRANCH  19  20
ATOM     20  C   UNL     1       2.074   4.331   0.622  0.00  0.00    +0.121 A 
ATOM     21  C   UNL     1       3.358   3.829   0.450  0.00  0.00    +0.046 A 
ATOM     22  C   UNL     1       4.441   4.682   0.471  0.00  0.00    +0.012 A 
ATOM     23  C   UNL     1       4.248   6.048   0.676  0.00  0.00    -0.018 A 
ATOM     24  C   UNL     1       2.958   6.547   0.853  0.00  0.00    +0.012 A 
ATOM     25  C   UNL     1       1.878   5.690   0.825  0.00  0.00    +0.046 A 
BRANCH  23  26
ATOM     26  C   UNL     1       5.411   6.966   0.706  0.00  0.00    -0.018 A 
ATOM     27  C   UNL     1       5.214   8.333   0.906  0.00  0.00    +0.010 A 
ATOM     28  C   UNL     1       6.294   9.186   0.939  0.00  0.00    +0.019 A 
ATOM     29  C   UNL     1       7.586   8.684   0.762  0.00  0.00    +0.052 A 
ATOM     30  C   UNL     1       7.781   7.315   0.556  0.00  0.00    +0.019 A 
ATOM     31  C   UNL     1       6.700   6.464   0.529  0.00  0.00    +0.010 A 
BRANCH  29  32
ATOM     32  C   UNL     1       8.710   9.572   0.790  0.00  0.00    +0.099 C 
ATOM     33  N   UNL     1       9.601  10.276   0.812  0.00  0.00    -0.191 NA
ENDBRANCH  29  32
ENDBRANCH  23  26
ENDBRANCH  19  20
ENDBRANCH  18  19
ENDBRANCH   2  18
TORSDOF 8
