REMARK  Name = ZINC28428368
REMARK  10 active torsions:
REMARK  status: ('A' for Active; 'I' for Inactive)
REMARK    1  A    between atoms: C_4  and  C_7
REMARK    2  A    between atoms: C_7  and  O_8
REMARK    3  A    between atoms: O_8  and  C_9
REMARK    4  A    between atoms: C_12  and  C_16
REMARK    5  A    between atoms: C_16  and  N_17
REMARK    6  A    between atoms: N_17  and  C_18
REMARK    7  A    between atoms: C_18  and  C_19
REMARK    8  A    between atoms: C_19  and  S_20
REMARK    9  A    between atoms: S_20  and  C_21
REMARK   10  A    between atoms: N_25  and  C_26
REMARK                            x       y       z     vdW  Elec       q    Type
REMARK                         _______ _______ _______ _____ _____    ______ ____
ROOT
ATOM      1  C   UNL     1       8.980  -3.655  -2.195  0.00  0.00    -0.047 C 
ENDROOT
BRANCH   1   5
ATOM      2  C   UNL     1       5.287  -1.589  -1.586  0.00  0.00    +0.157 A 
ATOM      3  C   UNL     1       6.474  -0.876  -1.691  0.00  0.00    +0.084 A 
ATOM      4  C   UNL     1       7.667  -1.547  -1.881  0.00  0.00    +0.025 A 
ATOM      5  C   UNL     1       7.678  -2.926  -1.980  0.00  0.00    -0.061 A 
ATOM      6  C   UNL     1       6.498  -3.639  -1.882  0.00  0.00    +0.025 A 
ATOM      7  C   UNL     1       5.302  -2.973  -1.685  0.00  0.00    +0.084 A 
ATOM      8 CL   UNL     1       3.820  -3.868  -1.561  0.00  0.00    -0.080 Cl
ATOM      9 CL   UNL     1       6.460   0.856  -1.574  0.00  0.00    -0.080 Cl
BRANCH   2  10
ATOM     10  O   UNL     1       4.113  -0.932  -1.392  0.00  0.00    -0.484 OA
BRANCH  10  11
ATOM     11  C   UNL     1       3.711  -0.707  -0.039  0.00  0.00    +0.264 C 
BRANCH  11  15
ATOM     12  C   UNL     1      -0.017   1.378   0.010  0.00  0.00    +0.000 A 
ATOM     13  C   UNL     1       1.171   2.086   0.002  0.00  0.00    +0.000 A 
ATOM     14  C   UNL     1       2.377   1.411  -0.014  0.00  0.00    +0.007 A 
ATOM     15  C   UNL     1       2.396   0.029  -0.022  0.00  0.00    -0.010 A 
ATOM     16  C   UNL     1       1.208  -0.679  -0.014  0.00  0.00    +0.007 A 
ATOM     17  C   UNL     1       0.002  -0.004   0.002  0.00  0.00    +0.000 A 
ENDBRANCH  11  15
ENDBRANCH  10  11
ENDBRANCH   2  10
ENDBRANCH   1   5
BRANCH   1  18
ATOM     18  N   UNL     1       9.231  -3.795  -3.636  0.00  0.00    +0.382 N 
ATOM     19  H   UNL     1       8.411  -4.365  -4.097  0.00  0.00    -0.085 HD
ATOM     20  H   UNL     1       9.288  -2.798  -4.097  0.00  0.00    -0.085 HD
BRANCH  18  21
ATOM     21  C   UNL     1      10.495  -4.502  -3.884  0.00  0.00    -0.071 C 
BRANCH  21  22
ATOM     22  C   UNL     1      10.721  -4.628  -5.392  0.00  0.00    +0.058 C 
BRANCH  22  23
ATOM     23  S   UNL     1      12.278  -5.499  -5.697  0.00  0.00    -0.086 S 
BRANCH  23  24
ATOM     24  C   UNL     1      12.285  -5.503  -7.459  0.00  0.00    +0.214 A 
ATOM     25  N   UNL     1      11.365  -4.988  -8.247  0.00  0.00    -0.101 NA
ATOM     26  N   UNL     1      11.679  -5.163  -9.480  0.00  0.00    -0.022 NA
ATOM     27  N   UNL     1      12.801  -5.791  -9.573  0.00  0.00    -0.038 NA
ATOM     28  N   UNL     1      13.243  -6.033  -8.261  0.00  0.00    -0.187 N 
BRANCH  28  29
ATOM     29  C   UNL     1      14.421  -6.684  -7.865  0.00  0.00    +0.070 A 
ATOM     30  C   UNL     1      15.098  -6.265  -6.728  0.00  0.00    +0.028 A 
ATOM     31  C   UNL     1      16.255  -6.912  -6.338  0.00  0.00    +0.002 A 
ATOM     32  C   UNL     1      16.744  -7.968  -7.085  0.00  0.00    +0.000 A 
ATOM     33  C   UNL     1      16.074  -8.383  -8.221  0.00  0.00    +0.002 A 
ATOM     34  C   UNL     1      14.914  -7.744  -8.613  0.00  0.00    +0.028 A 
ENDBRANCH  28  29
ENDBRANCH  23  24
ENDBRANCH  22  23
ENDBRANCH  21  22
ENDBRANCH  18  21
ENDBRANCH   1  18
TORSDOF 10
