REMARK  Name = ZINC63486251
REMARK  9 active torsions:
REMARK  status: ('A' for Active; 'I' for Inactive)
REMARK    1  A    between atoms: C_1  and  C_2
REMARK    2  A    between atoms: C_7  and  C_9
REMARK    3  A    between atoms: C_16  and  C_40
REMARK    4  A    between atoms: C_17  and  C_20
REMARK    5  A    between atoms: C_18  and  C_19
REMARK    6  A    between atoms: C_20  and  C_21
REMARK    7  A    between atoms: C_21  and  C_22
REMARK    8  A    between atoms: N_24  and  C_25
REMARK    9  A    between atoms: C_28  and  C_31
REMARK                            x       y       z     vdW  Elec       q    Type
REMARK                         _______ _______ _______ _____ _____    ______ ____
ROOT
ATOM      1  C   UNL     1       3.119  -6.431  -3.296  0.00  0.00    +0.218 C 
ATOM      2  O   UNL     1       2.331  -7.349  -3.381  0.00  0.00    -0.275 OA
ATOM      3  N   UNL     1       4.309  -6.504  -3.923  0.00  0.00    -0.285 N 
ATOM      4  H   UNL     1       4.912  -5.744  -3.911  0.00  0.00    +0.155 HD
ENDROOT
BRANCH   3   5
ATOM      5  C   UNL     1       4.677  -7.677  -4.592  0.00  0.00    +0.033 A 
ATOM      6  C   UNL     1       6.003  -8.088  -4.597  0.00  0.00    +0.024 A 
ATOM      7  C   UNL     1       6.363  -9.246  -5.258  0.00  0.00    +0.009 A 
ATOM      8  C   UNL     1       5.404  -9.996  -5.914  0.00  0.00    -0.005 A 
ATOM      9  C   UNL     1       4.082  -9.589  -5.910  0.00  0.00    +0.009 A 
ATOM     10  C   UNL     1       3.715  -8.435  -5.246  0.00  0.00    +0.024 A 
BRANCH   8  11
ATOM     11  C   UNL     1       5.800 -11.259  -6.634  0.00  0.00    +0.206 C 
ATOM     12  N   UNL     1       7.152 -11.121  -7.188  0.00  0.00    -0.360 N 
ATOM     13  C   UNL     1       7.060 -11.253  -8.480  0.00  0.00    +0.060 A 
ATOM     14  C   UNL     1       8.054 -11.213  -9.562  0.00  0.00    +0.027 A 
ATOM     15  C   UNL     1       7.655 -11.386 -10.838  0.00  0.00    +0.002 A 
ATOM     16  C   UNL     1       6.312 -11.607 -11.189  0.00  0.00    +0.002 A 
ATOM     17  C   UNL     1       5.321 -11.661 -10.276  0.00  0.00    +0.027 A 
ATOM     18  C   UNL     1       5.638 -11.486  -8.852  0.00  0.00    +0.060 A 
ATOM     19  N   UNL     1       4.906 -11.490  -7.776  0.00  0.00    -0.360 N 
ATOM     20  H   UNL     1       7.965 -10.960  -6.684  0.00  0.00    +0.162 HD
ATOM     21  H   UNL     1       3.946 -11.621  -7.735  0.00  0.00    +0.162 HD
ENDBRANCH   8  11
ENDBRANCH   3   5
BRANCH   1  22
ATOM     22  C   UNL     1       2.766  -5.208  -2.489  0.00  0.00    +0.101 C 
BRANCH  22  23
ATOM     23  C   UNL     1       1.370  -5.379  -1.887  0.00  0.00    +0.048 C 
BRANCH  23  32
ATOM     24  C   UNL     1      -0.042   1.511  -0.032  0.00  0.00    +0.063 C 
ATOM     25  C   UNL     1      -0.016   0.004  -0.031  0.00  0.00    +0.045 C 
ATOM     26  N   UNL     1      -0.009  -0.731  -1.073  0.00  0.00    -0.187 NA
ATOM     27  N   UNL     1       0.052  -2.086  -0.804  0.00  0.00    -0.203 N 
ATOM     28  C   UNL     1      -0.138  -2.291   0.650  0.00  0.00    +0.226 C 
ATOM     29  C   UNL     1       0.013  -0.867   1.208  0.00  0.00    +0.109 C 
ATOM     30  N   UNL     1       0.934  -3.183   1.096  0.00  0.00    -0.263 NA
ATOM     31  C   UNL     1       1.436  -4.049   0.265  0.00  0.00    +0.040 C 
ATOM     32  C   UNL     1       1.018  -4.156  -1.079  0.00  0.00    -0.008 C 
ATOM     33  C   UNL     1       0.313  -3.147  -1.641  0.00  0.00    +0.033 C 
ATOM     34  C   UNL     1      -0.176  -3.204  -3.065  0.00  0.00    +0.063 C 
ATOM     35  C   UNL     1       2.512  -4.980   0.760  0.00  0.00    +0.065 C 
BRANCH  29  36
ATOM     36  C   UNL     1       1.325  -0.714   1.933  0.00  0.00    -0.035 A 
ATOM     37  C   UNL     1       2.511  -0.998   1.283  0.00  0.00    +0.004 A 
ATOM     38  C   UNL     1       3.715  -0.858   1.948  0.00  0.00    +0.000 A 
ATOM     39  C   UNL     1       3.732  -0.433   3.264  0.00  0.00    +0.000 A 
ATOM     40  C   UNL     1       2.546  -0.148   3.913  0.00  0.00    +0.000 A 
ATOM     41  C   UNL     1       1.343  -0.284   3.247  0.00  0.00    +0.004 A 
ENDBRANCH  29  36
ENDBRANCH  23  32
ENDBRANCH  22  23
ENDBRANCH   1  22
TORSDOF 6
