REMARK  Name = ZINC63887029
REMARK  10 active torsions:
REMARK  status: ('A' for Active; 'I' for Inactive)
REMARK    1  A    between atoms: C_1  and  O_2
REMARK    2  A    between atoms: O_2  and  C_3
REMARK    3  A    between atoms: C_5  and  C_15
REMARK    4  A    between atoms: C_8  and  O_9
REMARK    5  A    between atoms: O_9  and  C_10
REMARK    6  A    between atoms: C_10  and  C_11
REMARK    7  A    between atoms: C_15  and  N_16
REMARK    8  A    between atoms: N_16  and  C_17
REMARK    9  A    between atoms: C_17  and  C_18
REMARK   10  A    between atoms: C_18  and  C_19
REMARK                            x       y       z     vdW  Elec       q    Type
REMARK                         _______ _______ _______ _____ _____    ______ ____
ROOT
ATOM      1  C   UNL     1       0.626  -0.619   1.042  0.00  0.00    +0.163 A 
ATOM      2  C   UNL     1       1.202   0.137   2.051  0.00  0.00    +0.051 A 
ATOM      3  C   UNL     1       1.837  -0.489   3.108  0.00  0.00    -0.059 A 
ATOM      4  C   UNL     1       1.899  -1.869   3.162  0.00  0.00    +0.025 A 
ATOM      5  C   UNL     1       1.326  -2.630   2.158  0.00  0.00    +0.086 A 
ATOM      6  C   UNL     1       0.683  -2.008   1.099  0.00  0.00    +0.181 A 
ATOM      7 CL   UNL     1       1.407  -4.362   2.228  0.00  0.00    -0.080 Cl
ENDROOT
BRANCH   1   9
ATOM      8  C   UNL     1      -0.017   1.425   0.010  0.00  0.00    +0.277 C 
ATOM      9  O   UNL     1       0.002  -0.004   0.002  0.00  0.00    -0.491 OA
ENDBRANCH   1   9
BRANCH   6  10
ATOM     10  O   UNL     1       0.114  -2.754   0.114  0.00  0.00    -0.478 OA
BRANCH  10  11
ATOM     11  C   UNL     1       0.939  -3.091  -1.003  0.00  0.00    +0.324 C 
BRANCH  11  12
ATOM     12  C   UNL     1       0.143  -3.913  -1.984  0.00  0.00    +0.248 C 
ATOM     13  O   UNL     1      -1.015  -4.184  -1.750  0.00  0.00    -0.272 OA
ATOM     14  N   UNL     1       0.720  -4.348  -3.122  0.00  0.00    -0.327 N 
ATOM     15  H   UNL     1       1.647  -4.132  -3.310  0.00  0.00    +0.145 HD
ATOM     16  H   UNL     1       0.208  -4.877  -3.754  0.00  0.00    +0.145 HD
ENDBRANCH  11  12
ENDBRANCH  10  11
ENDBRANCH   6  10
BRANCH   3  17
ATOM     17  C   UNL     1       2.462   0.335   4.204  0.00  0.00    -0.047 C 
BRANCH  17  18
ATOM     18  N   UNL     1       1.471   0.577   5.261  0.00  0.00    +0.382 N 
ATOM     19  H   UNL     1       0.682   1.074   4.875  0.00  0.00    -0.085 HD
ATOM     20  H   UNL     1       1.161  -0.305   5.639  0.00  0.00    -0.085 HD
BRANCH  18  21
ATOM     21  C   UNL     1       2.081   1.380   6.329  0.00  0.00    -0.078 C 
BRANCH  21  22
ATOM     22  C   UNL     1       1.049   1.632   7.430  0.00  0.00    +0.014 C 
BRANCH  22  23
ATOM     23  C   UNL     1       1.675   2.456   8.526  0.00  0.00    -0.043 C 
ATOM     24  C   UNL     1       1.614   3.800   8.669  0.00  0.00    -0.001 A 
ATOM     25  C   UNL     1       0.972   4.856   7.877  0.00  0.00    +0.010 A 
ATOM     26  C   UNL     1       1.090   6.141   8.280  0.00  0.00    +0.001 A 
ATOM     27  C   UNL     1       1.808   6.489   9.432  0.00  0.00    +0.002 A 
ATOM     28  C   UNL     1       2.424   5.576  10.211  0.00  0.00    +0.026 A 
ATOM     29  C   UNL     1       2.365   4.194   9.882  0.00  0.00    +0.043 A 
ATOM     30  N   UNL     1       2.871   3.135  10.466  0.00  0.00    -0.380 N 
ATOM     31  C   UNL     1       2.492   1.947   9.692  0.00  0.00    +0.144 C 
ATOM     32  H   UNL     1       3.404   3.136  11.277  0.00  0.00    +0.160 HD
ENDBRANCH  22  23
ENDBRANCH  21  22
ENDBRANCH  18  21
ENDBRANCH  17  18
ENDBRANCH   3  17
TORSDOF 9
