REMARK  Name = ZINC06844072
REMARK  9 active torsions:
REMARK  status: ('A' for Active; 'I' for Inactive)
REMARK    1  A    between atoms: C_1  and  C_2
REMARK    2  A    between atoms: C_2  and  C_3
REMARK    3  A    between atoms: C_9  and  C_24
REMARK    4  A    between atoms: C_12  and  C_14
REMARK    5  A    between atoms: C_17  and  C_20
REMARK    6  A    between atoms: C_20  and  C_21
REMARK    7  A    between atoms: C_20  and  C_22
REMARK    8  A    between atoms: C_20  and  C_23
REMARK    9  A    between atoms: C_27  and  C_30
REMARK                            x       y       z     vdW  Elec       q    Type
REMARK                         _______ _______ _______ _____ _____    ______ ____
ROOT
ATOM      1  C   UNL     1      -5.015   3.741  -0.467  0.00  0.00    -0.047 A 
ATOM      2  C   UNL     1      -6.095   3.295   0.270  0.00  0.00    +0.005 A 
ATOM      3  C   UNL     1      -6.023   2.093   0.947  0.00  0.00    +0.024 A 
ATOM      4  C   UNL     1      -4.861   1.315   0.895  0.00  0.00    +0.042 A 
ATOM      5  C   UNL     1      -3.770   1.764   0.149  0.00  0.00    +0.024 A 
ATOM      6  C   UNL     1      -3.860   2.983  -0.532  0.00  0.00    +0.015 A 
ATOM      7  C   UNL     1      -2.504   1.006   0.019  0.00  0.00    +0.100 C 
ATOM      8  N   UNL     1      -2.458  -0.280  -0.088  0.00  0.00    -0.172 NA
ATOM      9  N   UNL     1      -3.626  -1.050   0.009  0.00  0.00    -0.263 N 
ATOM     10  C   UNL     1      -4.351  -0.974   1.186  0.00  0.00    +0.124 C 
ATOM     11  N   UNL     1      -4.865   0.143   1.598  0.00  0.00    -0.299 N 
ATOM     12  H   UNL     1      -3.971  -1.698  -0.810  0.00  0.00    +0.190 HD
ATOM     13  H   UNL     1      -5.329   0.101   2.594  0.00  0.00    +0.154 HD
ENDROOT
BRANCH   7  14
ATOM     14  C   UNL     1      -1.230   1.759   0.017  0.00  0.00    +0.003 A 
ATOM     15  C   UNL     1      -0.089   1.204  -0.565  0.00  0.00    +0.010 A 
ATOM     16  C   UNL     1       1.094   1.914  -0.569  0.00  0.00    +0.004 A 
ATOM     17  C   UNL     1       1.153   3.170   0.009  0.00  0.00    -0.050 A 
ATOM     18  C   UNL     1       0.027   3.723   0.593  0.00  0.00    +0.004 A 
ATOM     19  C   UNL     1      -1.162   3.024   0.604  0.00  0.00    +0.010 A 
ATOM     20  C   UNL     1       2.449   3.939   0.001  0.00  0.00    +0.044 C 
ENDBRANCH   7  14
BRANCH  10  21
ATOM     21  C   UNL     1      -4.546  -2.195   1.991  0.00  0.00    +0.015 A 
ATOM     22  C   UNL     1      -5.270  -2.141   3.184  0.00  0.00    +0.011 A 
ATOM     23  C   UNL     1      -5.452  -3.288   3.929  0.00  0.00    +0.005 A 
ATOM     24  C   UNL     1      -4.911  -4.488   3.502  0.00  0.00    -0.042 A 
ATOM     25  C   UNL     1      -4.188  -4.548   2.324  0.00  0.00    +0.005 A 
ATOM     26  C   UNL     1      -4.003  -3.410   1.566  0.00  0.00    +0.011 A 
BRANCH  24  27
ATOM     27  C   UNL     1      -5.109  -5.735   4.324  0.00  0.00    -0.013 C 
ATOM     28  C   UNL     1      -3.748  -6.286   4.751  0.00  0.00    +0.015 C 
ATOM     29  C   UNL     1      -5.937  -5.400   5.567  0.00  0.00    +0.015 C 
ATOM     30  C   UNL     1      -5.846  -6.785   3.489  0.00  0.00    +0.015 C 
ENDBRANCH  24  27
ENDBRANCH  10  21
BRANCH   1  32
ATOM     31  C   UNL     1      -4.610   6.181  -0.287  0.00  0.00    +0.009 C 
ATOM     32  C   UNL     1      -5.095   5.054  -1.202  0.00  0.00    +0.032 C 
ENDBRANCH   1  32
TORSDOF 4
