REMARK  Name = ZINC22751300
REMARK  10 active torsions:
REMARK  status: ('A' for Active; 'I' for Inactive)
REMARK    1  A    between atoms: C_1  and  C_2
REMARK    2  A    between atoms: C_5  and  C_9
REMARK    3  A    between atoms: C_12  and  C_14
REMARK    4  A    between atoms: C_15  and  C_16
REMARK    5  A    between atoms: N_18  and  C_19
REMARK    6  A    between atoms: C_19  and  N_21
REMARK    7  A    between atoms: N_21  and  C_22
REMARK    8  A    between atoms: C_25  and  C_28
REMARK    9  A    between atoms: C_31  and  C_33
REMARK   10  A    between atoms: C_33  and  O_34
REMARK                            x       y       z     vdW  Elec       q    Type
REMARK                         _______ _______ _______ _____ _____    ______ ____
ROOT
ATOM      1  C   UNL     1      -0.692  -8.368  -3.933  0.00  0.00    +0.242 C 
ATOM      2  O   UNL     1      -1.014  -9.479  -3.553  0.00  0.00    -0.270 OA
ATOM      3  N   UNL     1      -0.302  -8.179  -5.209  0.00  0.00    -0.264 N 
ATOM      4  H   UNL     1      -0.046  -7.294  -5.512  0.00  0.00    +0.157 HD
ENDROOT
BRANCH   1   6
ATOM      5  C   UNL     1      -1.120  -7.467  -1.749  0.00  0.00    +0.051 C 
ATOM      6  C   UNL     1      -0.727  -7.277  -3.036  0.00  0.00    +0.071 C 
BRANCH   5  10
ATOM      7  C   UNL     1      -0.979  -4.336  -0.050  0.00  0.00    +0.136 A 
ATOM      8  C   UNL     1      -1.419  -5.133   0.982  0.00  0.00    +0.050 A 
ATOM      9  C   UNL     1      -1.533  -6.430   0.476  0.00  0.00    +0.050 A 
ATOM     10  C   UNL     1      -1.155  -6.375  -0.853  0.00  0.00    +0.129 A 
ATOM     11  O   UNL     1      -0.831  -5.099  -1.147  0.00  0.00    -0.455 OA
BRANCH   7  16
ATOM     12  C   UNL     1       0.035   1.319   0.268  0.00  0.00    +0.045 C 
ATOM     13  C   UNL     1      -0.231  -0.162   0.185  0.00  0.00    -0.032 A 
ATOM     14  C   UNL     1      -0.036  -0.831  -1.011  0.00  0.00    +0.005 A 
ATOM     15  C   UNL     1      -0.277  -2.186  -1.094  0.00  0.00    +0.012 A 
ATOM     16  C   UNL     1      -0.718  -2.885   0.033  0.00  0.00    +0.019 A 
ATOM     17  C   UNL     1      -0.913  -2.205   1.237  0.00  0.00    +0.031 A 
ATOM     18  C   UNL     1      -0.663  -0.849   1.307  0.00  0.00    +0.045 A 
ATOM     19 CL   UNL     1      -0.898  -0.001   2.804  0.00  0.00    -0.083 Cl
ENDBRANCH   7  16
ENDBRANCH   5  10
ENDBRANCH   1   6
BRANCH   3  20
ATOM     20  C   UNL     1      -0.269  -9.220  -6.065  0.00  0.00    +0.141 C 
ATOM     21  S   UNL     1      -0.721 -10.782  -5.530  0.00  0.00    -0.018 S 
BRANCH  20  22
ATOM     22  N   UNL     1       0.121  -9.031  -7.341  0.00  0.00    -0.297 N 
ATOM     23  H   UNL     1       0.318  -8.137  -7.661  0.00  0.00    +0.154 HD
BRANCH  22  24
ATOM     24  C   UNL     1       0.240 -10.124  -8.204  0.00  0.00    +0.033 A 
ATOM     25  C   UNL     1      -0.763 -11.086  -8.249  0.00  0.00    +0.024 A 
ATOM     26  C   UNL     1      -0.648 -12.164  -9.099  0.00  0.00    +0.013 A 
ATOM     27  C   UNL     1       0.478 -12.291  -9.916  0.00  0.00    +0.017 A 
ATOM     28  C   UNL     1       1.484 -11.324  -9.868  0.00  0.00    +0.013 A 
ATOM     29  C   UNL     1       1.360 -10.245  -9.020  0.00  0.00    +0.024 A 
BRANCH  27  30
ATOM     30  C   UNL     1       0.605 -13.447 -10.828  0.00  0.00    +0.135 A 
ATOM     31  C   UNL     1       1.647 -13.691 -11.667  0.00  0.00    +0.050 A 
ATOM     32  C   UNL     1       1.351 -14.892 -12.342  0.00  0.00    +0.047 A 
ATOM     33  C   UNL     1       0.157 -15.317 -11.887  0.00  0.00    +0.131 A 
ATOM     34  O   UNL     1      -0.289 -14.445 -10.968  0.00  0.00    -0.457 OA
BRANCH  33  35
ATOM     35  C   UNL     1      -0.558 -16.567 -12.332  0.00  0.00    +0.230 C 
BRANCH  35  36
ATOM     36  O   UNL     1      -0.165 -17.662 -11.501  0.00  0.00    -0.387 OA
ATOM     37  H   UNL     1      -0.588 -18.501 -11.730  0.00  0.00    +0.210 HD
ENDBRANCH  35  36
ENDBRANCH  33  35
ENDBRANCH  27  30
ENDBRANCH  22  24
ENDBRANCH  20  22
ENDBRANCH   3  20
TORSDOF 9
