REMARK  Name = ZINC11289856
REMARK  4 active torsions:
REMARK  status: ('A' for Active; 'I' for Inactive)
REMARK    1  A    between atoms: C_1  and  C_2
REMARK    2  A    between atoms: N_11  and  C_15
REMARK    3  A    between atoms: C_15  and  C_16
REMARK    4  A    between atoms: N_18  and  C_19
REMARK                            x       y       z     vdW  Elec       q    Type
REMARK                         _______ _______ _______ _____ _____    ______ ____
ROOT
ATOM      1  C   UNL     1      -3.091  -2.088   2.972  0.00  0.00    +0.214 C 
ENDROOT
BRANCH   1  11
ATOM      2  C   UNL     1       0.014   1.038   2.467  0.00  0.00    +0.010 C 
ATOM      3  C   UNL     1      -0.721   1.563   1.232  0.00  0.00    +0.018 C 
ATOM      4  C   UNL     1      -0.014   1.064  -0.031  0.00  0.00    +0.006 C 
ATOM      5  C   UNL     1      -0.760   1.572  -1.267  0.00  0.00    +0.000 C 
ATOM      6  C   UNL     1      -2.194   1.038  -1.252  0.00  0.00    +0.003 C 
ATOM      7  C   UNL     1      -2.910   1.536   0.006  0.00  0.00    +0.035 C 
ATOM      8  C   UNL     1      -2.160   1.059   1.244  0.00  0.00    +0.115 C 
ATOM      9  C   UNL     1      -2.191  -0.450   1.331  0.00  0.00    +0.247 C 
ATOM     10  O   UNL     1      -1.734  -1.240   0.533  0.00  0.00    -0.273 OA
ATOM     11  N   UNL     1      -2.833  -0.731   2.484  0.00  0.00    -0.215 N 
ATOM     12  C   UNL     1      -3.205   0.383   3.126  0.00  0.00    +0.310 C 
ATOM     13  O   UNL     1      -3.799   0.386   4.186  0.00  0.00    -0.252 OA
ATOM     14  N   UNL     1      -2.848   1.500   2.464  0.00  0.00    -0.285 N 
ATOM     15  H   UNL     1      -3.013   2.416   2.739  0.00  0.00    +0.151 HD
ENDBRANCH   1  11
BRANCH   1  16
ATOM     16  C   UNL     1      -4.419  -2.568   2.446  0.00  0.00    +0.235 C 
ATOM     17  O   UNL     1      -5.084  -1.847   1.733  0.00  0.00    -0.274 OA
ATOM     18  N   UNL     1      -4.867  -3.797   2.768  0.00  0.00    -0.283 N 
ATOM     19  H   UNL     1      -4.306  -4.398   3.283  0.00  0.00    +0.155 HD
BRANCH  18  20
ATOM     20  C   UNL     1      -6.142  -4.208   2.357  0.00  0.00    +0.051 A 
ATOM     21  C   UNL     1      -6.647  -3.787   1.135  0.00  0.00    +0.073 A 
ATOM     22  C   UNL     1      -7.908  -4.193   0.728  0.00  0.00    +0.164 A 
ATOM     23  C   UNL     1      -8.665  -5.025   1.545  0.00  0.00    +0.163 A 
ATOM     24  C   UNL     1      -8.158  -5.444   2.766  0.00  0.00    +0.066 A 
ATOM     25  C   UNL     1      -6.899  -5.042   3.170  0.00  0.00    +0.043 A 
ATOM     26 BR   UNL     1      -6.209  -5.621   4.832  0.00  0.00    -0.048 Br
ATOM     27  O   UNL     1      -9.905  -5.438   1.161  0.00  0.00    -0.485 OA
ATOM     28  C   UNL     1     -10.531  -4.699   0.106  0.00  0.00    +0.270 C 
ATOM     29  C   UNL     1      -9.501  -4.492  -1.013  0.00  0.00    +0.270 C 
ATOM     30  O   UNL     1      -8.391  -3.768  -0.472  0.00  0.00    -0.485 OA
ENDBRANCH  18  20
ENDBRANCH   1  16
TORSDOF 3
