REMARK  Name = ZINC01245060
REMARK  7 active torsions:
REMARK  status: ('A' for Active; 'I' for Inactive)
REMARK    1  A    between atoms: C_1  and  C_2
REMARK    2  A    between atoms: C_2  and  C_3
REMARK    3  A    between atoms: C_3  and  C_4
REMARK    4  A    between atoms: N_7  and  C_9
REMARK    5  A    between atoms: C_16  and  N_29
REMARK    6  A    between atoms: C_17  and  C_27
REMARK    7  A    between atoms: C_18  and  C_20
REMARK                            x       y       z     vdW  Elec       q    Type
REMARK                         _______ _______ _______ _____ _____    ______ ____
ROOT
ATOM      1  C   UNL     1      -0.430   6.510  -2.509  0.00  0.00    +0.071 A 
ATOM      2  C   UNL     1      -0.820   6.508  -1.177  0.00  0.00    +0.050 A 
ATOM      3  C   UNL     1      -2.066   7.068  -1.099  0.00  0.00    +0.230 A 
ATOM      4  N   UNL     1      -2.438   7.408  -2.352  0.00  0.00    -0.200 N 
ATOM      5  N   UNL     1      -1.394   7.048  -3.219  0.00  0.00    -0.168 NA
ATOM      6  O   UNL     1      -2.731   7.216   0.074  0.00  0.00    -0.423 OA
ATOM      7  C   UNL     1      -2.030   7.048   1.214  0.00  0.00    +0.200 C 
ATOM      8  C   UNL     1      -0.798   6.496   1.266  0.00  0.00    +0.098 C 
ATOM      9  C   UNL     1      -0.079   6.003   0.034  0.00  0.00    +0.101 C 
ENDROOT
BRANCH   9  10
ATOM     10  C   UNL     1      -0.059   4.497   0.026  0.00  0.00    -0.034 A 
ATOM     11  C   UNL     1       1.148   3.822   0.012  0.00  0.00    +0.006 A 
ATOM     12  C   UNL     1       1.167   2.440   0.004  0.00  0.00    +0.020 A 
ATOM     13  C   UNL     1      -0.021   1.732   0.012  0.00  0.00    +0.041 A 
ATOM     14  C   UNL     1      -1.229   2.407   0.021  0.00  0.00    +0.020 A 
ATOM     15  C   UNL     1      -1.247   3.789   0.034  0.00  0.00    +0.006 A 
ATOM     16 CL   UNL     1       0.002  -0.004   0.002  0.00  0.00    -0.084 Cl
ENDBRANCH   9  10
BRANCH   4  17
ATOM     17  C   UNL     1      -3.647   8.012  -2.720  0.00  0.00    +0.069 A 
ATOM     18  C   UNL     1      -4.819   7.689  -2.049  0.00  0.00    +0.028 A 
ATOM     19  C   UNL     1      -6.009   8.290  -2.410  0.00  0.00    +0.002 A 
ATOM     20  C   UNL     1      -6.036   9.204  -3.447  0.00  0.00    +0.000 A 
ATOM     21  C   UNL     1      -4.872   9.524  -4.122  0.00  0.00    +0.002 A 
ATOM     22  C   UNL     1      -3.678   8.930  -3.761  0.00  0.00    +0.028 A 
ENDBRANCH   4  17
BRANCH   7  23
ATOM     23  N   UNL     1      -2.603   7.462   2.391  0.00  0.00    -0.328 N 
ATOM     24  H   UNL     1      -2.123   7.355   3.228  0.00  0.00    +0.145 HD
ATOM     25  H   UNL     1      -3.486   7.862   2.386  0.00  0.00    +0.145 HD
ENDBRANCH   7  23
BRANCH   8  26
ATOM     26  C   UNL     1      -0.149   6.375   2.537  0.00  0.00    +0.101 C 
ATOM     27  N   UNL     1       0.365   6.279   3.545  0.00  0.00    -0.191 NA
ENDBRANCH   8  26
BRANCH   1  28
ATOM     28  C   UNL     1       0.876   5.986  -3.047  0.00  0.00    +0.057 C 
BRANCH  28  30
ATOM     29  C   UNL     1       3.240   6.579  -3.599  0.00  0.00    +0.004 C 
ATOM     30  C   UNL     1       1.914   7.111  -3.052  0.00  0.00    +0.003 C 
ENDBRANCH  28  30
ENDBRANCH   1  28
TORSDOF 6
