REMARK  Name = ZINC59679632
REMARK  6 active torsions:
REMARK  status: ('A' for Active; 'I' for Inactive)
REMARK    1  A    between atoms: C_1  and  C_2
REMARK    2  A    between atoms: C_2  and  C_3
REMARK    3  A    between atoms: C_8  and  N_9
REMARK    4  A    between atoms: N_12  and  N_13
REMARK    5  A    between atoms: C_14  and  C_15
REMARK    6  A    between atoms: N_19  and  C_20
REMARK                            x       y       z     vdW  Elec       q    Type
REMARK                         _______ _______ _______ _____ _____    ______ ____
ROOT
ATOM      1  N   UNL     1      -1.505  -0.314  -2.391  0.00  0.00    -0.268 N 
ATOM      2  C   UNL     1      -2.147  -0.541  -3.555  0.00  0.00    +0.323 C 
ATOM      3  O   UNL     1      -3.288  -0.962  -3.548  0.00  0.00    -0.251 OA
ATOM      4  N   UNL     1      -1.525  -0.300  -4.726  0.00  0.00    -0.190 N 
ATOM      5  H   UNL     1      -0.620   0.082  -2.395  0.00  0.00    +0.156 HD
ATOM      6  H   UNL     1      -1.986  -0.463  -5.563  0.00  0.00    +0.179 HD
ENDROOT
BRANCH   1  12
ATOM      7  C   UNL     1      -1.349  -1.121  -0.120  0.00  0.00    -0.026 A 
ATOM      8  C   UNL     1      -1.954  -1.447   1.078  0.00  0.00    +0.005 A 
ATOM      9  C   UNL     1      -3.322  -1.314   1.222  0.00  0.00    +0.000 A 
ATOM     10  C   UNL     1      -4.090  -0.853   0.168  0.00  0.00    +0.002 A 
ATOM     11  C   UNL     1      -3.491  -0.525  -1.032  0.00  0.00    +0.023 A 
ATOM     12  C   UNL     1      -2.116  -0.652  -1.178  0.00  0.00    +0.038 A 
BRANCH   7  14
ATOM     13  C   UNL     1       0.820   0.073   0.018  0.00  0.00    +0.009 C 
ATOM     14  C   UNL     1       0.143  -1.266  -0.276  0.00  0.00    +0.033 C 
ENDBRANCH   7  14
ENDBRANCH   1  12
BRANCH   4  15
ATOM     15  N   UNL     1      -0.210   0.184  -4.734  0.00  0.00    -0.185 NA
ATOM     16  C   UNL     1       0.390   0.416  -5.863  0.00  0.00    +0.156 C 
BRANCH  16  17
ATOM     17  C   UNL     1       1.767   0.924  -5.872  0.00  0.00    +0.066 A 
ATOM     18  C   UNL     1       2.541   1.194  -4.765  0.00  0.00    +0.029 A 
ATOM     19  C   UNL     1       3.781   1.657  -5.229  0.00  0.00    +0.020 A 
ATOM     20  C   UNL     1       3.743   1.662  -6.580  0.00  0.00    +0.092 A 
ATOM     21  N   UNL     1       2.520   1.212  -6.986  0.00  0.00    -0.315 N 
BRANCH  21  22
ATOM     22  C   UNL     1       2.101   1.070  -8.316  0.00  0.00    +0.047 A 
ATOM     23  C   UNL     1       1.520  -0.118  -8.739  0.00  0.00    +0.027 A 
ATOM     24  C   UNL     1       1.108  -0.256 -10.050  0.00  0.00    +0.022 A 
ATOM     25  C   UNL     1       1.275   0.788 -10.942  0.00  0.00    +0.041 A 
ATOM     26  C   UNL     1       1.854   1.973 -10.524  0.00  0.00    +0.022 A 
ATOM     27  C   UNL     1       2.262   2.118  -9.212  0.00  0.00    +0.027 A 
ATOM     28 CL   UNL     1       0.756   0.611 -12.589  0.00  0.00    -0.084 Cl
ENDBRANCH  21  22
ENDBRANCH  16  17
ENDBRANCH   4  15
TORSDOF 5
