REMARK  Name = ZINC35820220
REMARK  9 active torsions:
REMARK  status: ('A' for Active; 'I' for Inactive)
REMARK    1  A    between atoms: C_1  and  C_2
REMARK    2  A    between atoms: C_5  and  C_13
REMARK    3  A    between atoms: C_15  and  O_24
REMARK    4  A    between atoms: C_18  and  C_19
REMARK    5  A    between atoms: O_24  and  C_25
REMARK    6  A    between atoms: C_25  and  C_26
REMARK    7  A    between atoms: C_26  and  C_28
REMARK    8  A    between atoms: C_26  and  N_35
REMARK    9  A    between atoms: C_28  and  C_29
REMARK                            x       y       z     vdW  Elec       q    Type
REMARK                         _______ _______ _______ _____ _____    ______ ____
ROOT
ATOM      1  C   UNL     1      -5.633   1.948   0.136  0.00  0.00    +0.014 A 
ATOM      2  C   UNL     1      -5.645   2.690   1.317  0.00  0.00    +0.058 A 
ATOM      3  C   UNL     1      -6.761   2.601   2.141  0.00  0.00    +0.139 A 
ATOM      4  C   UNL     1      -7.821   1.785   1.767  0.00  0.00    +0.157 A 
ATOM      5  N   UNL     1      -7.785   1.094   0.645  0.00  0.00    -0.251 NA
ATOM      6  C   UNL     1      -6.745   1.150  -0.176  0.00  0.00    +0.082 A 
ENDROOT
BRANCH   1  11
ATOM      7  C   UNL     1      -0.115   0.452   0.036  0.00  0.00    +0.068 C 
ATOM      8  C   UNL     1      -0.759   1.127  -1.147  0.00  0.00    +0.067 A 
ATOM      9  C   UNL     1      -2.152   1.555  -1.242  0.00  0.00    +0.023 A 
ATOM     10  C   UNL     1      -3.244   1.495  -0.372  0.00  0.00    +0.023 A 
ATOM     11  C   UNL     1      -4.467   2.007  -0.778  0.00  0.00    +0.020 A 
ATOM     12  C   UNL     1      -4.605   2.579  -2.051  0.00  0.00    +0.133 A 
ATOM     13  C   UNL     1      -3.541   2.640  -2.905  0.00  0.00    +0.066 A 
ATOM     14  C   UNL     1      -2.303   2.132  -2.518  0.00  0.00    +0.069 A 
ATOM     15  N   UNL     1      -1.081   2.050  -3.135  0.00  0.00    -0.277 N 
ATOM     16  N   UNL     1      -0.171   1.438  -2.267  0.00  0.00    -0.178 NA
ATOM     17  H   UNL     1      -0.879   2.368  -4.028  0.00  0.00    +0.189 HD
ATOM     18  F   UNL     1      -5.801   3.074  -2.437  0.00  0.00    -0.205 F 
ENDBRANCH   1  11
BRANCH   6  19
ATOM     19  C   UNL     1      -6.755   0.360  -1.429  0.00  0.00    +0.039 A 
ATOM     20  C   UNL     1      -5.648  -0.423  -1.992  0.00  0.00    +0.051 A 
ATOM     21  C   UNL     1      -6.117  -0.964  -3.128  0.00  0.00    +0.195 A 
ATOM     22  O   UNL     1      -7.391  -0.583  -3.301  0.00  0.00    -0.470 OA
ATOM     23  C   UNL     1      -7.793   0.204  -2.293  0.00  0.00    +0.204 A 
ENDBRANCH   6  19
BRANCH   3  24
ATOM     24  O   UNL     1      -6.815   3.307   3.301  0.00  0.00    -0.492 OA
BRANCH  24  25
ATOM     25  C   UNL     1      -7.996   3.163   4.094  0.00  0.00    +0.213 C 
BRANCH  25  26
ATOM     26  C   UNL     1      -7.874   4.026   5.351  0.00  0.00    -0.033 C 
BRANCH  26  27
ATOM     27  N   UNL     1      -7.832   5.444   4.970  0.00  0.00    +0.382 N 
ATOM     28  H   UNL     1      -8.679   5.685   4.478  0.00  0.00    -0.089 HD
ATOM     29  H   UNL     1      -7.752   6.013   5.800  0.00  0.00    -0.089 HD
ATOM     30  H   UNL     1      -7.037   5.608   4.372  0.00  0.00    -0.089 HD
ENDBRANCH  26  27
BRANCH  26  31
ATOM     31  C   UNL     1      -9.081   3.777   6.259  0.00  0.00    +0.022 C 
BRANCH  31  32
ATOM     32  C   UNL     1      -8.901   4.532   7.551  0.00  0.00    -0.049 A 
ATOM     33  C   UNL     1      -8.260   3.932   8.618  0.00  0.00    +0.003 A 
ATOM     34  C   UNL     1      -8.095   4.625   9.803  0.00  0.00    +0.000 A 
ATOM     35  C   UNL     1      -8.572   5.917   9.921  0.00  0.00    +0.000 A 
ATOM     36  C   UNL     1      -9.213   6.517   8.853  0.00  0.00    +0.000 A 
ATOM     37  C   UNL     1      -9.373   5.826   7.667  0.00  0.00    +0.003 A 
ENDBRANCH  31  32
ENDBRANCH  26  31
ENDBRANCH  25  26
ENDBRANCH  24  25
ENDBRANCH   3  24
TORSDOF 8
