REMARK  Name = ZINC63284500
REMARK  6 active torsions:
REMARK  status: ('A' for Active; 'I' for Inactive)
REMARK    1  A    between atoms: C_4  and  N_7
REMARK    2  A    between atoms: C_11  and  N_12
REMARK    3  A    between atoms: N_12  and  C_13
REMARK    4  A    between atoms: C_13  and  C_14
REMARK    5  A    between atoms: C_14  and  C_15
REMARK    6  A    between atoms: N_26  and  C_29
REMARK                            x       y       z     vdW  Elec       q    Type
REMARK                         _______ _______ _______ _____ _____    ______ ____
ROOT
ATOM      1  N   UNL     1       3.980  -0.662   0.867  0.00  0.00    -0.217 N 
ATOM      2  C   UNL     1       4.929   0.030   0.203  0.00  0.00    +0.263 C 
ATOM      3  O   UNL     1       5.080   1.222   0.390  0.00  0.00    -0.269 OA
ATOM      4  C   UNL     1       5.779  -0.699  -0.756  0.00  0.00    +0.113 C 
ATOM      5  C   UNL     1       6.772  -0.057  -1.472  0.00  0.00    +0.086 C 
ATOM      6  C   UNL     1       5.525  -2.142  -0.917  0.00  0.00    +0.263 C 
ATOM      7  O   UNL     1       6.186  -2.810  -1.689  0.00  0.00    -0.269 OA
ATOM      8  N   UNL     1       4.540  -2.701  -0.184  0.00  0.00    -0.217 N 
ATOM      9  C   UNL     1       3.808  -1.977   0.674  0.00  0.00    +0.158 C 
ATOM     10  S   UNL     1       2.583  -2.773   1.566  0.00  0.00    -0.017 S 
ENDROOT
BRANCH   1  14
ATOM     11  C   UNL     1       1.541   1.335   3.594  0.00  0.00    +0.000 A 
ATOM     12  C   UNL     1       2.729   0.767   4.017  0.00  0.00    +0.002 A 
ATOM     13  C   UNL     1       3.539   0.105   3.116  0.00  0.00    +0.024 A 
ATOM     14  C   UNL     1       3.160   0.009   1.784  0.00  0.00    +0.043 A 
ATOM     15  C   UNL     1       1.967   0.580   1.361  0.00  0.00    +0.024 A 
ATOM     16  C   UNL     1       1.161   1.241   2.267  0.00  0.00    +0.002 A 
ENDBRANCH   1  14
BRANCH   8  17
ATOM     17  C   UNL     1       4.279  -4.071  -0.320  0.00  0.00    +0.043 A 
ATOM     18  C   UNL     1       4.922  -4.986   0.502  0.00  0.00    +0.024 A 
ATOM     19  C   UNL     1       4.663  -6.336   0.366  0.00  0.00    +0.002 A 
ATOM     20  C   UNL     1       3.765  -6.776  -0.589  0.00  0.00    +0.000 A 
ATOM     21  C   UNL     1       3.123  -5.867  -1.410  0.00  0.00    +0.002 A 
ATOM     22  C   UNL     1       3.373  -4.515  -1.274  0.00  0.00    +0.024 A 
ENDBRANCH   8  17
BRANCH   5  23
ATOM     23  N   UNL     1       7.618  -0.772  -2.241  0.00  0.00    -0.349 N 
ATOM     24  H   UNL     1       7.491  -1.728  -2.342  0.00  0.00    +0.146 HD
BRANCH  23  25
ATOM     25  C   UNL     1       8.729  -0.104  -2.925  0.00  0.00    +0.105 C 
BRANCH  25  26
ATOM     26  C   UNL     1       9.529  -1.135  -3.725  0.00  0.00    +0.052 C 
BRANCH  26  27
ATOM     27  C   UNL     1      10.671  -0.448  -4.428  0.00  0.00    -0.040 C 
ATOM     28  C   UNL     1      11.946  -0.338  -3.991  0.00  0.00    -0.001 A 
ATOM     29  C   UNL     1      12.626  -0.806  -2.778  0.00  0.00    +0.010 A 
ATOM     30  C   UNL     1      13.941  -0.537  -2.617  0.00  0.00    +0.001 A 
ATOM     31  C   UNL     1      14.670   0.177  -3.578  0.00  0.00    +0.002 A 
ATOM     32  C   UNL     1      14.116   0.639  -4.718  0.00  0.00    +0.026 A 
ATOM     33  C   UNL     1      12.739   0.413  -4.991  0.00  0.00    +0.043 A 
ATOM     34  N   UNL     1      11.982   0.755  -6.006  0.00  0.00    -0.380 N 
ATOM     35  C   UNL     1      10.625   0.253  -5.768  0.00  0.00    +0.144 C 
ATOM     36  H   UNL     1      12.273   1.252  -6.786  0.00  0.00    +0.160 HD
ENDBRANCH  26  27
ENDBRANCH  25  26
ENDBRANCH  23  25
ENDBRANCH   5  23
TORSDOF 6
