REMARK  Name = ZINC04164806
REMARK  10 active torsions:
REMARK  status: ('A' for Active; 'I' for Inactive)
REMARK    1  A    between atoms: C_1  and  C_2
REMARK    2  A    between atoms: C_2  and  O_3
REMARK    3  A    between atoms: O_3  and  C_4
REMARK    4  A    between atoms: N_9  and  C_12
REMARK    5  A    between atoms: C_15  and  S_17
REMARK    6  A    between atoms: S_17  and  N_20
REMARK    7  A    between atoms: N_20  and  C_21
REMARK    8  A    between atoms: N_20  and  C_28
REMARK    9  A    between atoms: C_21  and  C_22
REMARK   10  A    between atoms: C_28  and  C_29
REMARK                            x       y       z     vdW  Elec       q    Type
REMARK                         _______ _______ _______ _____ _____    ______ ____
ROOT
ATOM      1  C   UNL     1       2.764   0.656  -0.201  0.00  0.00    +0.099 A 
ATOM      2  C   UNL     1       1.753   1.597  -0.026  0.00  0.00    +0.043 A 
ATOM      3  C   UNL     1       0.441   1.167   0.050  0.00  0.00    +0.033 A 
ATOM      4  C   UNL     1       0.182  -0.194  -0.051  0.00  0.00    +0.121 A 
ATOM      5  C   UNL     1       1.234  -1.071  -0.223  0.00  0.00    +0.112 A 
ATOM      6  N   UNL     1       2.535  -0.685  -0.302  0.00  0.00    -0.348 N 
ATOM      7  H   UNL     1       3.298  -1.360  -0.430  0.00  0.00    +0.167 HD
ENDROOT
BRANCH   1  13
ATOM      8  C   UNL     1       7.659   1.499  -2.193  0.00  0.00    +0.403 C 
ATOM      9  O   UNL     1       8.435   0.564  -2.206  0.00  0.00    -0.226 OA
ATOM     10  N   UNL     1       6.637   1.514  -1.315  0.00  0.00    -0.264 N 
ATOM     11  C   UNL     1       6.443   0.409  -0.363  0.00  0.00    +0.130 C 
ATOM     12  C   UNL     1       4.991  -0.070  -0.463  0.00  0.00    +0.125 C 
ATOM     13  N   UNL     1       4.088   1.074  -0.279  0.00  0.00    -0.314 N 
ATOM     14  C   UNL     1       4.263   2.068  -1.346  0.00  0.00    +0.125 C 
ATOM     15  C   UNL     1       5.685   2.635  -1.283  0.00  0.00    +0.130 C 
BRANCH   8  16
ATOM     16  O   UNL     1       7.819   2.520  -3.057  0.00  0.00    -0.451 OA
BRANCH  16  18
ATOM     17  C   UNL     1       8.961   3.676  -4.870  0.00  0.00    +0.048 C 
ATOM     18  C   UNL     1       8.942   2.436  -3.974  0.00  0.00    +0.230 C 
ENDBRANCH  16  18
ENDBRANCH   8  16
ENDBRANCH   1  13
BRANCH   4  19
ATOM     19  S   UNL     1      -1.472  -0.794   0.039  0.00  0.00    +0.063 S 
ATOM     20  O   UNL     1      -1.403  -2.087   0.625  0.00  0.00    -0.153 OA
ATOM     21  O   UNL     1      -2.255   0.253   0.595  0.00  0.00    -0.153 OA
BRANCH  19  22
ATOM     22  N   UNL     1      -2.001  -1.006  -1.515  0.00  0.00    -0.168 NA
BRANCH  22  23
ATOM     23  C   UNL     1      -1.675  -2.238  -2.239  0.00  0.00    +0.145 C 
BRANCH  23  24
ATOM     24  C   UNL     1      -2.812  -3.218  -2.100  0.00  0.00    -0.032 A 
ATOM     25  C   UNL     1      -2.824  -4.118  -1.050  0.00  0.00    +0.005 A 
ATOM     26  C   UNL     1      -3.869  -5.013  -0.920  0.00  0.00    +0.000 A 
ATOM     27  C   UNL     1      -4.897  -5.016  -1.845  0.00  0.00    +0.000 A 
ATOM     28  C   UNL     1      -4.881  -4.120  -2.897  0.00  0.00    +0.000 A 
ATOM     29  C   UNL     1      -3.839  -3.221  -3.025  0.00  0.00    +0.005 A 
ENDBRANCH  23  24
ENDBRANCH  22  23
BRANCH  22  30
ATOM     30  C   UNL     1      -2.796   0.037  -2.168  0.00  0.00    +0.145 C 
BRANCH  30  31
ATOM     31  C   UNL     1      -1.895   0.898  -3.016  0.00  0.00    -0.032 A 
ATOM     32  C   UNL     1      -1.342   2.050  -2.488  0.00  0.00    +0.005 A 
ATOM     33  C   UNL     1      -0.512   2.837  -3.265  0.00  0.00    +0.000 A 
ATOM     34  C   UNL     1      -0.242   2.476  -4.572  0.00  0.00    +0.000 A 
ATOM     35  C   UNL     1      -0.799   1.327  -5.101  0.00  0.00    +0.000 A 
ATOM     36  C   UNL     1      -1.625   0.538  -4.323  0.00  0.00    +0.005 A 
ENDBRANCH  30  31
ENDBRANCH  22  30
ENDBRANCH  19  22
ENDBRANCH   4  19
TORSDOF 9
