REMARK  Name = ZINC35665381
REMARK  7 active torsions:
REMARK  status: ('A' for Active; 'I' for Inactive)
REMARK    1  A    between atoms: C_1  and  C_2
REMARK    2  A    between atoms: C_2  and  C_3
REMARK    3  A    between atoms: C_3  and  N_4
REMARK    4  A    between atoms: C_7  and  C_26
REMARK    5  A    between atoms: N_13  and  S_16
REMARK    6  A    between atoms: S_16  and  C_19
REMARK    7  A    between atoms: C_26  and  C_27
REMARK                            x       y       z     vdW  Elec       q    Type
REMARK                         _______ _______ _______ _____ _____    ______ ____
ROOT
ATOM      1  N   UNL     1      -1.409  -1.925  -0.312  0.00  0.00    -0.314 N 
ATOM      2  C   UNL     1      -1.311  -2.705  -1.408  0.00  0.00    +0.201 C 
ATOM      3  O   UNL     1      -1.209  -2.311  -2.551  0.00  0.00    -0.277 OA
ATOM      4  C   UNL     1      -1.348  -4.153  -0.972  0.00  0.00    +0.023 C 
ATOM      5  N   UNL     1      -1.064  -4.118   0.483  0.00  0.00    +0.401 N 
ATOM      6  C   UNL     1      -1.515  -2.770   0.881  0.00  0.00    +0.006 C 
ATOM      7  C   UNL     1      -0.617  -2.231   1.992  0.00  0.00    +0.023 C 
ATOM      8  C   UNL     1      -1.072  -0.818   2.374  0.00  0.00    +0.109 C 
ATOM      9  N   UNL     1      -2.502  -0.856   2.707  0.00  0.00    -0.177 NA
ATOM     10  C   UNL     1      -3.441  -1.427   1.731  0.00  0.00    +0.109 C 
ATOM     11  C   UNL     1      -2.966  -2.834   1.355  0.00  0.00    +0.023 C 
ATOM     12  H   UNL     1      -1.591  -4.830   0.966  0.00  0.00    -0.082 HD
ATOM     13  H   UNL     1      -0.076  -4.225   0.656  0.00  0.00    -0.082 HD
ENDROOT
BRANCH   9  14
ATOM     14  S   UNL     1      -3.046  -0.268   4.156  0.00  0.00    +0.061 S 
ATOM     15  O   UNL     1      -4.280  -0.921   4.422  0.00  0.00    -0.153 OA
ATOM     16  O   UNL     1      -1.947  -0.322   5.055  0.00  0.00    -0.153 OA
BRANCH  14  17
ATOM     17  C   UNL     1      -3.420   1.438   3.919  0.00  0.00    +0.106 A 
ATOM     18  C   UNL     1      -2.443   2.394   4.125  0.00  0.00    +0.030 A 
ATOM     19  C   UNL     1      -2.736   3.732   3.939  0.00  0.00    +0.022 A 
ATOM     20  C   UNL     1      -4.006   4.114   3.547  0.00  0.00    +0.041 A 
ATOM     21  C   UNL     1      -4.983   3.156   3.341  0.00  0.00    +0.022 A 
ATOM     22  C   UNL     1      -4.688   1.818   3.522  0.00  0.00    +0.030 A 
ATOM     23 CL   UNL     1      -4.374   5.794   3.314  0.00  0.00    -0.084 Cl
ENDBRANCH  14  17
ENDBRANCH   9  14
BRANCH   1  24
ATOM     24  C   UNL     1      -1.404  -0.460  -0.313  0.00  0.00    +0.106 C 
BRANCH  24  26
ATOM     25  C   UNL     1       0.038   1.569  -0.094  0.00  0.00    +0.005 C 
ATOM     26  C   UNL     1       0.038   0.045  -0.234  0.00  0.00    +0.015 C 
ENDBRANCH  24  26
ENDBRANCH   1  24
BRANCH   4  27
ATOM     27  C   UNL     1      -2.732  -4.752  -1.233  0.00  0.00    +0.028 C 
BRANCH  27  28
ATOM     28  C   UNL     1      -2.708  -6.226  -0.921  0.00  0.00    -0.048 A 
ATOM     29  C   UNL     1      -2.377  -7.137  -1.907  0.00  0.00    +0.003 A 
ATOM     30  C   UNL     1      -2.355  -8.489  -1.621  0.00  0.00    +0.000 A 
ATOM     31  C   UNL     1      -2.663  -8.931  -0.348  0.00  0.00    +0.000 A 
ATOM     32  C   UNL     1      -2.994  -8.021   0.639  0.00  0.00    +0.000 A 
ATOM     33  C   UNL     1      -3.011  -6.668   0.353  0.00  0.00    +0.003 A 
ENDBRANCH  27  28
ENDBRANCH   4  27
TORSDOF 6
