REMARK  Name = ZINC21227107
REMARK  10 active torsions:
REMARK  status: ('A' for Active; 'I' for Inactive)
REMARK    1  A    between atoms: C_1  and  O_2
REMARK    2  A    between atoms: O_2  and  C_3
REMARK    3  A    between atoms: C_8  and  C_9
REMARK    4  A    between atoms: C_14  and  C_24
REMARK    5  A    between atoms: C_27  and  O_34
REMARK    6  A    between atoms: C_28  and  O_32
REMARK    7  A    between atoms: C_29  and  O_30
REMARK    8  A    between atoms: O_30  and  C_31
REMARK    9  A    between atoms: O_32  and  C_33
REMARK   10  A    between atoms: O_34  and  C_35
REMARK                            x       y       z     vdW  Elec       q    Type
REMARK                         _______ _______ _______ _____ _____    ______ ____
ROOT
ATOM      1  C   UNL     1       6.075   4.104   1.467  0.00  0.00    +0.035 C 
ATOM      2  C   UNL     1       5.460   2.768   1.055  0.00  0.00    +0.060 C 
ATOM      3  C   UNL     1       3.980   2.947   0.761  0.00  0.00    +0.017 C 
ATOM      4  C   UNL     1       3.256   3.859   1.432  0.00  0.00    +0.037 C 
ATOM      5  C   UNL     1       1.781   4.125   1.256  0.00  0.00    +0.140 C 
ATOM      6  N   UNL     1       1.192   3.497   0.092  0.00  0.00    -0.331 N 
ATOM      7  C   UNL     1       1.121   2.108  -0.020  0.00  0.00    +0.049 A 
ATOM      8  C   UNL     1      -0.092   1.440  -0.011  0.00  0.00    +0.025 A 
ATOM      9  C   UNL     1      -0.106   0.056  -0.037  0.00  0.00    +0.002 A 
ATOM     10  C   UNL     1       1.080  -0.654  -0.073  0.00  0.00    +0.002 A 
ATOM     11  C   UNL     1       2.294   0.011  -0.100  0.00  0.00    +0.025 A 
ATOM     12  C   UNL     1       2.309   1.396  -0.090  0.00  0.00    +0.052 A 
ATOM     13  N   UNL     1       3.487   2.124  -0.199  0.00  0.00    -0.316 N 
ATOM     14  C   UNL     1       3.873   4.680   2.406  0.00  0.00    +0.163 C 
ATOM     15  O   UNL     1       3.192   5.485   3.010  0.00  0.00    -0.292 OA
ATOM     16  C   UNL     1       5.337   4.591   2.719  0.00  0.00    +0.088 C 
ATOM     17  H   UNL     1       0.789   4.117  -0.723  0.00  0.00    +0.147 HD
ATOM     18  H   UNL     1       4.030   1.998  -1.147  0.00  0.00    +0.152 HD
ENDROOT
BRANCH   1  24
ATOM     19  C   UNL     1       8.494   4.617   1.051  0.00  0.00    +0.124 A 
ATOM     20  C   UNL     1       9.841   4.445   1.338  0.00  0.00    +0.046 A 
ATOM     21  C   UNL     1      10.226   3.579   2.342  0.00  0.00    +0.004 A 
ATOM     22  C   UNL     1       9.272   2.884   3.062  0.00  0.00    +0.001 A 
ATOM     23  C   UNL     1       7.929   3.058   2.783  0.00  0.00    +0.007 A 
ATOM     24  C   UNL     1       7.538   3.919   1.775  0.00  0.00    -0.002 A 
BRANCH  19  26
ATOM     25  C   UNL     1       9.150   6.154  -0.640  0.00  0.00    +0.277 C 
ATOM     26  O   UNL     1       8.112   5.468   0.064  0.00  0.00    -0.495 OA
ENDBRANCH  19  26
ENDBRANCH   1  24
BRANCH   5  27
ATOM     27  C   UNL     1       1.057   3.632   2.482  0.00  0.00    +0.023 A 
ATOM     28  C   UNL     1       1.629   2.656   3.276  0.00  0.00    +0.013 A 
ATOM     29  C   UNL     1       0.969   2.201   4.402  0.00  0.00    +0.050 A 
ATOM     30  C   UNL     1      -0.271   2.723   4.740  0.00  0.00    +0.165 A 
ATOM     31  C   UNL     1      -0.849   3.705   3.944  0.00  0.00    +0.204 A 
ATOM     32  C   UNL     1      -0.180   4.163   2.815  0.00  0.00    +0.170 A 
BRANCH  32  33
ATOM     33  O   UNL     1      -0.740   5.127   2.036  0.00  0.00    -0.491 OA
ATOM     34  C   UNL     1      -1.580   4.689   0.966  0.00  0.00    +0.277 C 
ENDBRANCH  32  33
BRANCH  31  35
ATOM     35  O   UNL     1      -2.066   4.219   4.272  0.00  0.00    -0.488 OA
ATOM     36  C   UNL     1      -2.077   5.365   5.126  0.00  0.00    +0.277 C 
ENDBRANCH  31  35
BRANCH  30  37
ATOM     37  O   UNL     1      -0.919   2.274   5.847  0.00  0.00    -0.491 OA
ATOM     38  C   UNL     1      -0.266   1.264   6.618  0.00  0.00    +0.277 C 
ENDBRANCH  30  37
ENDBRANCH   5  27
TORSDOF 6
