REMARK  Name = ZINC20719356
REMARK  9 active torsions:
REMARK  status: ('A' for Active; 'I' for Inactive)
REMARK    1  A    between atoms: C_1  and  O_2
REMARK    2  A    between atoms: O_2  and  C_3
REMARK    3  A    between atoms: C_3  and  C_5
REMARK    4  A    between atoms: C_5  and  C_7
REMARK    5  A    between atoms: C_5  and  N_11
REMARK    6  A    between atoms: C_7  and  C_8
REMARK    7  A    between atoms: C_8  and  S_9
REMARK    8  A    between atoms: S_9  and  C_10
REMARK    9  A    between atoms: C_23  and  C_25
REMARK                            x       y       z     vdW  Elec       q    Type
REMARK                         _______ _______ _______ _____ _____    ______ ____
ROOT
ATOM      1  N   UNL     1      -0.594  -2.322  -3.515  0.00  0.00    -0.286 N 
ATOM      2  C   UNL     1       0.721  -2.616  -3.504  0.00  0.00    +0.304 C 
ATOM      3  O   UNL     1       1.370  -2.461  -2.487  0.00  0.00    -0.253 OA
ATOM      4  N   UNL     1       1.317  -3.081  -4.620  0.00  0.00    -0.273 N 
ATOM      5  C   UNL     1       2.723  -3.511  -4.599  0.00  0.00    +0.116 C 
ATOM      6  C   UNL     1       2.793  -5.014  -4.898  0.00  0.00    +0.074 C 
ATOM      7  C   UNL     1       1.888  -5.320  -6.062  0.00  0.00    +0.040 A 
ATOM      8  C   UNL     1       0.901  -4.512  -6.505  0.00  0.00    +0.062 A 
ATOM      9  N   UNL     1       0.311  -5.107  -7.544  0.00  0.00    -0.348 N 
ATOM     10  C   UNL     1       0.896  -6.255  -7.767  0.00  0.00    +0.171 A 
ATOM     11  N   UNL     1       1.888  -6.422  -6.862  0.00  0.00    -0.349 N 
ATOM     12  H   UNL     1       2.485  -7.184  -6.795  0.00  0.00    +0.166 HD
ATOM     13  C   UNL     1       0.573  -3.177  -5.888  0.00  0.00    +0.156 C 
ATOM     14  H   UNL     1      -1.095  -2.370  -4.344  0.00  0.00    +0.151 HD
ATOM     15  H   UNL     1      -0.432  -4.747  -8.052  0.00  0.00    +0.167 HD
ENDROOT
BRANCH  13  16
ATOM     16  C   UNL     1       0.998  -2.070  -6.817  0.00  0.00    -0.020 A 
ATOM     17  C   UNL     1       2.299  -2.020  -7.284  0.00  0.00    +0.006 A 
ATOM     18  C   UNL     1       2.690  -1.004  -8.136  0.00  0.00    +0.002 A 
ATOM     19  C   UNL     1       1.780  -0.037  -8.522  0.00  0.00    +0.020 A 
ATOM     20  C   UNL     1       0.479  -0.087  -8.056  0.00  0.00    +0.041 A 
ATOM     21  C   UNL     1       0.087  -1.107  -7.208  0.00  0.00    +0.025 A 
ATOM     22 CL   UNL     1      -0.664   1.127  -8.541  0.00  0.00    -0.084 Cl
ENDBRANCH  13  16
BRANCH   1  23
ATOM     23  C   UNL     1      -1.268  -1.929  -2.274  0.00  0.00    +0.184 C 
BRANCH  23  24
ATOM     24  C   UNL     1      -1.697  -3.163  -1.523  0.00  0.00    +0.327 C 
ATOM     25  O   UNL     1      -1.464  -4.258  -1.978  0.00  0.00    -0.249 OA
BRANCH  24  27
ATOM     26  C   UNL     1      -2.715  -4.257   0.307  0.00  0.00    +0.280 C 
ATOM     27  O   UNL     1      -2.338  -3.045  -0.350  0.00  0.00    -0.467 OA
ENDBRANCH  24  27
ENDBRANCH  23  24
BRANCH  23  28
ATOM     28  C   UNL     1      -2.497  -1.081  -2.608  0.00  0.00    +0.044 C 
BRANCH  28  29
ATOM     29  C   UNL     1      -2.051   0.230  -3.259  0.00  0.00    +0.071 C 
BRANCH  29  30
ATOM     30  S   UNL     1      -3.508   1.235  -3.654  0.00  0.00    -0.164 S 
ATOM     31  C   UNL     1      -2.817   2.733  -4.409  0.00  0.00    +0.084 C 
ENDBRANCH  29  30
ENDBRANCH  28  29
ENDBRANCH  23  28
ENDBRANCH   1  23
TORSDOF 7
