REMARK  Name = ZINC39529218
REMARK  9 active torsions:
REMARK  status: ('A' for Active; 'I' for Inactive)
REMARK    1  A    between atoms: C_1  and  C_2
REMARK    2  A    between atoms: C_2  and  C_3
REMARK    3  A    between atoms: C_3  and  C_4
REMARK    4  A    between atoms: C_6  and  S_24
REMARK    5  A    between atoms: C_9  and  N_10
REMARK    6  A    between atoms: C_14  and  C_17
REMARK    7  A    between atoms: C_22  and  O_23
REMARK    8  A    between atoms: S_24  and  O_27
REMARK    9  A    between atoms: O_27  and  C_28
REMARK                            x       y       z     vdW  Elec       q    Type
REMARK                         _______ _______ _______ _____ _____    ______ ____
ROOT
ATOM      1  C   UNL     1       0.739  -2.004  -1.265  0.00  0.00    -0.024 A 
ATOM      2  C   UNL     1       1.834  -2.684  -0.769  0.00  0.00    +0.036 A 
ATOM      3  C   UNL     1       1.854  -4.066  -0.776  0.00  0.00    +0.128 A 
ATOM      4  C   UNL     1       0.777  -4.774  -1.280  0.00  0.00    +0.032 A 
ATOM      5  C   UNL     1      -0.321  -4.101  -1.778  0.00  0.00    +0.025 A 
ATOM      6  C   UNL     1      -0.346  -2.712  -1.767  0.00  0.00    +0.033 A 
ENDROOT
BRANCH   6   7
ATOM      7  N   UNL     1      -1.458  -2.028  -2.264  0.00  0.00    -0.333 N 
ATOM      8  C   UNL     1      -1.541  -1.650  -3.683  0.00  0.00    +0.086 C 
ATOM      9  C   UNL     1      -1.899  -0.163  -3.770  0.00  0.00    -0.063 C 
ATOM     10  N   UNL     1      -3.126   0.089  -3.003  0.00  0.00    +0.386 N 
ATOM     11  C   UNL     1      -2.890  -0.178  -1.579  0.00  0.00    -0.020 C 
ATOM     12  C   UNL     1      -2.582  -1.671  -1.385  0.00  0.00    +0.094 C 
ATOM     13  H   UNL     1      -3.404   1.052  -3.122  0.00  0.00    -0.085 HD
ATOM     14  H   UNL     1      -3.861  -0.514  -3.340  0.00  0.00    -0.085 HD
BRANCH  11  15
ATOM     15  C   UNL     1      -4.119   0.187  -0.788  0.00  0.00    -0.018 A 
ATOM     16  C   UNL     1      -5.360   0.181  -1.397  0.00  0.00    +0.005 A 
ATOM     17  C   UNL     1      -6.488   0.517  -0.672  0.00  0.00    +0.000 A 
ATOM     18  C   UNL     1      -6.379   0.858   0.664  0.00  0.00    +0.004 A 
ATOM     19  C   UNL     1      -5.141   0.865   1.277  0.00  0.00    +0.045 A 
ATOM     20  C   UNL     1      -4.008   0.523   0.553  0.00  0.00    +0.118 A 
BRANCH  20  21
ATOM     21  O   UNL     1      -2.790   0.524   1.156  0.00  0.00    -0.507 OA
ATOM     22  H   UNL     1      -2.328   1.372   1.108  0.00  0.00    +0.292 HD
ENDBRANCH  20  21
ENDBRANCH  11  15
ENDBRANCH   6   7
BRANCH   3  23
ATOM     23  S   UNL     1       3.254  -4.929  -0.143  0.00  0.00    +0.151 S 
ATOM     24  O   UNL     1       3.257  -6.207  -0.763  0.00  0.00    -0.131 OA
ATOM     25  O   UNL     1       4.355  -4.036  -0.232  0.00  0.00    -0.131 OA
BRANCH  23  26
ATOM     26  O   UNL     1       3.004  -5.165   1.339  0.00  0.00    -0.342 OA
BRANCH  26  27
ATOM     27  C   UNL     1       2.101  -6.147   1.598  0.00  0.00    +0.157 A 
ATOM     28  C   UNL     1       0.752  -5.841   1.704  0.00  0.00    +0.048 A 
ATOM     29  C   UNL     1      -0.164  -6.841   1.967  0.00  0.00    +0.004 A 
ATOM     30  C   UNL     1       0.263  -8.147   2.124  0.00  0.00    +0.000 A 
ATOM     31  C   UNL     1       1.607  -8.455   2.019  0.00  0.00    +0.004 A 
ATOM     32  C   UNL     1       2.526  -7.459   1.751  0.00  0.00    +0.048 A 
ENDBRANCH  26  27
ENDBRANCH  23  26
ENDBRANCH   3  23
BRANCH   1  33
ATOM     33  C   UNL     1       0.718  -0.497  -1.257  0.00  0.00    +0.037 C 
BRANCH  33  35
ATOM     34  C   UNL     1      -0.019   1.526   0.010  0.00  0.00    +0.004 C 
ATOM     35  C   UNL     1       0.002  -0.004   0.002  0.00  0.00    +0.001 C 
ENDBRANCH  33  35
ENDBRANCH   1  33
TORSDOF 8
