REMARK  Name = ZINC47879177
REMARK  12 active torsions:
REMARK  status: ('A' for Active; 'I' for Inactive)
REMARK    1  A    between atoms: C_1  and  C_2
REMARK    2  A    between atoms: C_2  and  C_4
REMARK    3  A    between atoms: C_2  and  N_14
REMARK    4  A    between atoms: C_7  and  C_10
REMARK    5  A    between atoms: C_10  and  C_11
REMARK    6  A    between atoms: C_10  and  C_12
REMARK    7  A    between atoms: C_10  and  C_13
REMARK    8  A    between atoms: N_17  and  C_18
REMARK    9  A    between atoms: C_23  and  O_24
REMARK   10  A    between atoms: O_24  and  C_25
REMARK   11  A    between atoms: C_25  and  C_26
REMARK   12  A    between atoms: C_26  and  C_27
REMARK                            x       y       z     vdW  Elec       q    Type
REMARK                         _______ _______ _______ _____ _____    ______ ____
ROOT
ATOM      1  N   UNL     1       0.691  -0.459  -1.208  0.00  0.00    -0.293 N 
ATOM      2  C   UNL     1       0.007  -0.601  -2.361  0.00  0.00    +0.304 C 
ATOM      3  O   UNL     1      -1.177  -0.331  -2.402  0.00  0.00    -0.252 OA
ATOM      4  N   UNL     1       0.637  -1.043  -3.467  0.00  0.00    -0.266 N 
ATOM      5  H   UNL     1       1.636  -0.674  -1.175  0.00  0.00    +0.151 HD
ATOM      6  H   UNL     1       1.595  -1.196  -3.452  0.00  0.00    +0.156 HD
ENDROOT
BRANCH   4   7
ATOM      7  C   UNL     1      -0.092  -1.280  -4.641  0.00  0.00    +0.077 A 
ATOM      8  C   UNL     1      -1.176  -0.476  -4.961  0.00  0.00    +0.027 A 
ATOM      9  C   UNL     1      -1.893  -0.712  -6.118  0.00  0.00    +0.002 A 
ATOM     10  C   UNL     1      -1.533  -1.748  -6.960  0.00  0.00    +0.004 A 
ATOM     11  C   UNL     1      -0.454  -2.553  -6.648  0.00  0.00    +0.047 A 
ATOM     12  C   UNL     1       0.274  -2.320  -5.492  0.00  0.00    +0.142 A 
BRANCH  12  13
ATOM     13  O   UNL     1       1.339  -3.108  -5.187  0.00  0.00    -0.490 OA
BRANCH  13  14
ATOM     14  C   UNL     1       1.656  -4.155  -6.106  0.00  0.00    +0.238 C 
BRANCH  14  15
ATOM     15  C   UNL     1       2.875  -4.928  -5.597  0.00  0.00    +0.136 C 
BRANCH  15  16
ATOM     16  C   UNL     1       3.209  -6.033  -6.567  0.00  0.00    +0.214 C 
ATOM     17  O   UNL     1       2.539  -6.186  -7.566  0.00  0.00    -0.276 OA
ATOM     18  N   UNL     1       4.253  -6.850  -6.323  0.00  0.00    -0.329 N 
ATOM     19  H   UNL     1       4.789  -6.727  -5.524  0.00  0.00    +0.145 HD
ATOM     20  H   UNL     1       4.468  -7.561  -6.947  0.00  0.00    +0.145 HD
ENDBRANCH  15  16
ENDBRANCH  14  15
ENDBRANCH  13  14
ENDBRANCH  12  13
ENDBRANCH   4   7
BRANCH   1  22
ATOM     21  C   UNL     1      -0.018   1.551  -0.008  0.00  0.00    +0.033 C 
ATOM     22  C   UNL     1       0.006   0.021  -0.005  0.00  0.00    +0.102 C 
BRANCH  22  23
ATOM     23  C   UNL     1       0.739  -0.467   1.218  0.00  0.00    -0.027 A 
ATOM     24  C   UNL     1       2.121  -0.474   1.239  0.00  0.00    +0.006 A 
ATOM     25  C   UNL     1       2.793  -0.921   2.361  0.00  0.00    +0.004 A 
ATOM     26  C   UNL     1       2.083  -1.362   3.463  0.00  0.00    -0.042 A 
ATOM     27  C   UNL     1       0.701  -1.354   3.442  0.00  0.00    +0.004 A 
ATOM     28  C   UNL     1       0.029  -0.902   2.322  0.00  0.00    +0.006 A 
BRANCH  26  29
ATOM     29  C   UNL     1       2.816  -1.851   4.686  0.00  0.00    -0.013 C 
ATOM     30  C   UNL     1       3.694  -0.726   5.238  0.00  0.00    +0.015 C 
ATOM     31  C   UNL     1       1.803  -2.276   5.750  0.00  0.00    +0.015 C 
ATOM     32  C   UNL     1       3.694  -3.046   4.310  0.00  0.00    +0.015 C 
ENDBRANCH  26  29
ENDBRANCH  22  23
ENDBRANCH   1  22
TORSDOF 8
