REMARK  Name = ZINC67301452
REMARK  7 active torsions:
REMARK  status: ('A' for Active; 'I' for Inactive)
REMARK    1  A    between atoms: C_1  and  C_2
REMARK    2  A    between atoms: C_2  and  N_3
REMARK    3  A    between atoms: N_6  and  C_7
REMARK    4  A    between atoms: C_11  and  N_13
REMARK    5  A    between atoms: C_14  and  C_16
REMARK    6  A    between atoms: C_25  and  N_28
REMARK    7  A    between atoms: C_29  and  C_31
REMARK                            x       y       z     vdW  Elec       q    Type
REMARK                         _______ _______ _______ _____ _____    ______ ____
ROOT
ATOM      1  N   UNL     1       2.920  -6.052  -5.157  0.00  0.00    -0.285 N 
ATOM      2  C   UNL     1       2.888  -7.372  -5.431  0.00  0.00    +0.223 C 
ATOM      3  O   UNL     1       2.346  -8.138  -4.662  0.00  0.00    -0.275 OA
ATOM      4  H   UNL     1       3.410  -5.449  -5.737  0.00  0.00    +0.155 HD
ENDROOT
BRANCH   2   5
ATOM      5  C   UNL     1       3.526  -7.895  -6.692  0.00  0.00    +0.050 C 
ATOM      6  C   UNL     1       2.859  -7.250  -7.907  0.00  0.00    +0.020 C 
ATOM      7  C   UNL     1       3.506  -7.781  -9.187  0.00  0.00    -0.008 C 
ATOM      8  C   UNL     1       4.998  -7.440  -9.184  0.00  0.00    +0.007 C 
ATOM      9  C   UNL     1       5.666  -8.086  -7.968  0.00  0.00    -0.008 C 
ATOM     10  C   UNL     1       5.018  -7.554  -6.688  0.00  0.00    +0.020 C 
ATOM     11  C   UNL     1       5.490  -9.604  -8.036  0.00  0.00    +0.029 C 
ATOM     12  C   UNL     1       3.999  -9.945  -8.040  0.00  0.00    +0.036 C 
ATOM     13  C   UNL     1       3.331  -9.299  -9.255  0.00  0.00    +0.029 C 
ATOM     14  C   UNL     1       3.351  -9.414  -6.760  0.00  0.00    +0.042 C 
BRANCH  12  15
ATOM     15  N   UNL     1       3.830 -11.399  -8.105  0.00  0.00    -0.310 N 
ATOM     16  C   UNL     1       4.324 -12.088  -9.152  0.00  0.00    +0.210 C 
ATOM     17  O   UNL     1       4.909 -11.505 -10.041  0.00  0.00    -0.276 OA
ATOM     18  C   UNL     1       4.151 -13.584  -9.219  0.00  0.00    +0.109 C 
ATOM     19  H   UNL     1       3.363 -11.866  -7.394  0.00  0.00    +0.149 HD
ENDBRANCH  12  15
ENDBRANCH   2   5
BRANCH   1  24
ATOM     20  C   UNL     1       0.976  -3.813  -2.976  0.00  0.00    +0.037 A 
ATOM     21  C   UNL     1       0.911  -4.573  -1.815  0.00  0.00    +0.023 A 
ATOM     22  C   UNL     1       1.511  -5.817  -1.767  0.00  0.00    +0.004 A 
ATOM     23  C   UNL     1       2.177  -6.309  -2.874  0.00  0.00    +0.023 A 
ATOM     24  C   UNL     1       2.245  -5.554  -4.037  0.00  0.00    +0.035 A 
ATOM     25  C   UNL     1       1.639  -4.307  -4.090  0.00  0.00    +0.046 A 
BRANCH  20  29
ATOM     26  N   UNL     1      -0.872  -0.953  -4.184  0.00  0.00    -0.299 N 
ATOM     27  C   UNL     1      -0.206  -2.125  -4.164  0.00  0.00    +0.304 C 
ATOM     28  O   UNL     1      -0.125  -2.795  -5.175  0.00  0.00    -0.253 OA
ATOM     29  N   UNL     1       0.369  -2.553  -3.023  0.00  0.00    -0.269 N 
ATOM     30  H   UNL     1      -0.937  -0.418  -3.378  0.00  0.00    +0.150 HD
ATOM     31  H   UNL     1       0.362  -1.988  -2.235  0.00  0.00    +0.156 HD
BRANCH  26  33
ATOM     32  C   UNL     1      -2.182   0.859  -5.177  0.00  0.00    +0.024 C 
ATOM     33  C   UNL     1      -1.497  -0.487  -5.425  0.00  0.00    +0.102 C 
ENDBRANCH  26  33
ENDBRANCH  20  29
ENDBRANCH   1  24
TORSDOF 5
