REMARK  Name = ZINC48559651
REMARK  5 active torsions:
REMARK  status: ('A' for Active; 'I' for Inactive)
REMARK    1  A    between atoms: C_1  and  C_2
REMARK    2  A    between atoms: C_2  and  C_4
REMARK    3  A    between atoms: C_2  and  C_15
REMARK    4  A    between atoms: C_4  and  N_5
REMARK    5  A    between atoms: N_5  and  C_6
REMARK                            x       y       z     vdW  Elec       q    Type
REMARK                         _______ _______ _______ _____ _____    ______ ____
ROOT
ATOM      1  N   UNL     1       2.125  -0.091  -1.209  0.00  0.00    -0.317 N 
ATOM      2  C   UNL     1       3.121  -0.971  -0.594  0.00  0.00    +0.130 C 
ATOM      3  C   UNL     1       2.513   1.126  -1.746  0.00  0.00    +0.128 A 
ATOM      4  C   UNL     1       1.559   2.020  -2.236  0.00  0.00    +0.084 A 
ATOM      5  C   UNL     1       1.992   3.223  -2.762  0.00  0.00    +0.136 A 
ATOM      6  N   UNL     1       3.291   3.490  -2.787  0.00  0.00    -0.203 NA
ATOM      7  C   UNL     1       4.173   2.622  -2.315  0.00  0.00    +0.216 A 
ATOM      8  N   UNL     1       3.798   1.461  -1.798  0.00  0.00    -0.200 NA
ATOM      9  N   UNL     1       5.520   2.937  -2.358  0.00  0.00    -0.327 N 
ATOM     10 CL   UNL     1       0.849   4.371  -3.385  0.00  0.00    -0.062 Cl
ATOM     11  H   UNL     1       5.808   3.785  -2.731  0.00  0.00    +0.145 HD
ATOM     12  H   UNL     1       6.176   2.310  -2.016  0.00  0.00    +0.145 HD
ENDROOT
BRANCH   1  13
ATOM     13  C   UNL     1       0.718  -0.497  -1.257  0.00  0.00    +0.124 C 
BRANCH  13  15
ATOM     14  C   UNL     1      -0.019   1.526   0.010  0.00  0.00    +0.025 C 
ATOM     15  C   UNL     1       0.002  -0.004   0.002  0.00  0.00    +0.106 C 
BRANCH  15  16
ATOM     16  C   UNL     1      -1.379  -0.514   0.013  0.00  0.00    +0.067 C 
ATOM     17  N   UNL     1      -2.445  -0.907   0.021  0.00  0.00    -0.196 NA
ENDBRANCH  15  16
ENDBRANCH  13  15
ENDBRANCH   1  13
TORSDOF 3
