REMARK  Name = ZINC32910681
REMARK  12 active torsions:
REMARK  status: ('A' for Active; 'I' for Inactive)
REMARK    1  A    between atoms: C_1  and  C_2
REMARK    2  A    between atoms: C_2  and  C_3
REMARK    3  A    between atoms: C_3  and  C_4
REMARK    4  A    between atoms: C_3  and  C_5
REMARK    5  A    between atoms: C_3  and  C_6
REMARK    6  A    between atoms: C_9  and  O_12
REMARK    7  A    between atoms: O_12  and  C_13
REMARK    8  A    between atoms: C_16  and  N_19
REMARK    9  A    between atoms: C_20  and  C_22
REMARK   10  A    between atoms: C_22  and  N_23
REMARK   11  A    between atoms: C_26  and  C_30
REMARK   12  A    between atoms: C_26  and  C_31
REMARK                            x       y       z     vdW  Elec       q    Type
REMARK                         _______ _______ _______ _____ _____    ______ ____
ROOT
ATOM      1  C   UNL     1      -0.136  -3.093   5.633  0.00  0.00    +0.129 A 
ATOM      2  C   UNL     1      -0.052  -4.027   4.610  0.00  0.00    +0.048 A 
ATOM      3  C   UNL     1       0.055  -3.607   3.299  0.00  0.00    +0.027 A 
ATOM      4  C   UNL     1       0.080  -2.251   3.004  0.00  0.00    +0.034 A 
ATOM      5  C   UNL     1       0.002  -1.317   4.029  0.00  0.00    +0.027 A 
ATOM      6  C   UNL     1      -0.111  -1.737   5.339  0.00  0.00    +0.048 A 
ENDROOT
BRANCH   4   7
ATOM      7  N   UNL     1       0.189  -1.825   1.674  0.00  0.00    -0.284 N 
ATOM      8  C   UNL     1      -0.406  -2.527   0.690  0.00  0.00    +0.235 C 
ATOM      9  O   UNL     1      -0.974  -3.568   0.946  0.00  0.00    -0.274 OA
ATOM     10  H   UNL     1       0.760  -0.916   1.433  0.00  0.00    +0.155 HD
BRANCH   8  11
ATOM     11  C   UNL     1      -0.367  -2.020  -0.729  0.00  0.00    +0.214 C 
BRANCH  11  12
ATOM     12  N   UNL     1      -1.079  -2.956  -1.602  0.00  0.00    -0.215 N 
ATOM     13  C   UNL     1      -2.396  -2.880  -1.879  0.00  0.00    +0.247 C 
ATOM     14  O   UNL     1      -3.185  -2.056  -1.468  0.00  0.00    -0.273 OA
ATOM     15  C   UNL     1      -2.686  -4.039  -2.812  0.00  0.00    +0.113 C 
ATOM     16  N   UNL     1      -1.376  -4.696  -2.966  0.00  0.00    -0.285 N 
ATOM     17  C   UNL     1      -0.502  -3.989  -2.227  0.00  0.00    +0.310 C 
ATOM     18  O   UNL     1       0.679  -4.260  -2.135  0.00  0.00    -0.252 OA
ATOM     19  C   UNL     1      -3.700  -4.996  -2.182  0.00  0.00    +0.042 C 
ATOM     20  H   UNL     1      -1.280  -5.590  -3.600  0.00  0.00    +0.151 HD
BRANCH  15  21
ATOM     21  C   UNL     1      -3.195  -3.530  -4.162  0.00  0.00    +0.021 C 
ATOM     22  C   UNL     1      -4.684  -3.705  -4.467  0.00  0.00    +0.006 C 
ATOM     23  C   UNL     1      -3.648  -4.573  -5.185  0.00  0.00    +0.006 C 
ENDBRANCH  15  21
ENDBRANCH  11  12
ENDBRANCH   8  11
ENDBRANCH   4   7
BRANCH   1  24
ATOM     24  O   UNL     1      -0.241  -3.507   6.923  0.00  0.00    -0.456 OA
BRANCH  24  28
ATOM     25  C   UNL     1      -0.848  -0.644   9.831  0.00  0.00    -0.042 A 
ATOM     26  C   UNL     1      -1.830  -0.891   8.890  0.00  0.00    +0.008 A 
ATOM     27  C   UNL     1      -1.630  -1.849   7.916  0.00  0.00    +0.046 A 
ATOM     28  C   UNL     1      -0.441  -2.564   7.881  0.00  0.00    +0.128 A 
ATOM     29  C   UNL     1       0.541  -2.318   8.830  0.00  0.00    +0.046 A 
ATOM     30  C   UNL     1       0.338  -1.355   9.799  0.00  0.00    +0.008 A 
BRANCH  25  31
ATOM     31  C   UNL     1      -1.069   0.402  10.893  0.00  0.00    -0.010 C 
ATOM     32  C   UNL     1      -1.297   1.762  10.230  0.00  0.00    +0.016 C 
ATOM     33  C   UNL     1      -2.296   0.030  11.728  0.00  0.00    +0.016 C 
BRANCH  31  35
ATOM     34  C   UNL     1      -0.064   1.539  12.878  0.00  0.00    +0.005 C 
ATOM     35  C   UNL     1       0.161   0.477  11.800  0.00  0.00    +0.007 C 
ENDBRANCH  31  35
ENDBRANCH  25  31
ENDBRANCH  24  28
ENDBRANCH   1  24
TORSDOF 8
