REMARK  Name = ZINC09347462
REMARK  13 active torsions:
REMARK  status: ('A' for Active; 'I' for Inactive)
REMARK    1  A    between atoms: C_1  and  C_2
REMARK    2  A    between atoms: C_2  and  O_3
REMARK    3  A    between atoms: O_3  and  C_4
REMARK    4  A    between atoms: C_4  and  C_6
REMARK    5  A    between atoms: C_10  and  N_11
REMARK    6  A    between atoms: C_12  and  C_14
REMARK    7  A    between atoms: C_14  and  C_16
REMARK    8  A    between atoms: C_14  and  S_17
REMARK    9  A    between atoms: S_17  and  C_18
REMARK   10  A    between atoms: C_24  and  C_26
REMARK   11  A    between atoms: C_26  and  C_27
REMARK   12  A    between atoms: C_26  and  C_28
REMARK   13  A    between atoms: C_26  and  C_29
REMARK                            x       y       z     vdW  Elec       q    Type
REMARK                         _______ _______ _______ _____ _____    ______ ____
ROOT
ATOM      1  N   UNL     1       5.329  -2.501   2.008  0.00  0.00    -0.278 N 
ATOM      2  C   UNL     1       6.607  -2.401   1.591  0.00  0.00    +0.231 C 
ATOM      3  O   UNL     1       6.904  -1.599   0.731  0.00  0.00    -0.274 OA
ATOM      4  H   UNL     1       5.092  -3.142   2.696  0.00  0.00    +0.155 HD
ENDROOT
BRANCH   1   9
ATOM      5  C   UNL     1       2.999  -1.642   1.746  0.00  0.00    +0.091 A 
ATOM      6  C   UNL     1       2.179  -0.684   1.016  0.00  0.00    -0.021 A 
ATOM      7  C   UNL     1       2.846   0.061   0.110  0.00  0.00    -0.004 A 
ATOM      8  S   UNL     1       4.530  -0.479   0.224  0.00  0.00    -0.077 S 
ATOM      9  C   UNL     1       4.354  -1.687   1.453  0.00  0.00    +0.086 A 
ATOM     10  C   UNL     1       2.288   1.105  -0.807  0.00  0.00    +0.043 C 
ATOM     11  C   UNL     1       1.406   2.067  -0.000  0.00  0.00    +0.005 C 
ATOM     12  C   UNL     1      -0.019   1.523   0.010  0.00  0.00    +0.001 C 
ATOM     13  C   UNL     1       0.002  -0.004   0.002  0.00  0.00    +0.005 C 
ATOM     14  C   UNL     1       0.683  -0.535   1.259  0.00  0.00    +0.037 C 
BRANCH   5  15
ATOM     15  C   UNL     1       2.413  -2.526   2.756  0.00  0.00    +0.342 C 
ATOM     16  O   UNL     1       1.984  -3.618   2.434  0.00  0.00    -0.245 OA
BRANCH  15  17
ATOM     17  O   UNL     1       2.349  -2.129   4.044  0.00  0.00    -0.461 OA
BRANCH  17  19
ATOM     18  C   UNL     1       1.770  -2.437   6.389  0.00  0.00    +0.048 C 
ATOM     19  C   UNL     1       1.755  -3.057   4.990  0.00  0.00    +0.229 C 
ENDBRANCH  17  19
ENDBRANCH  15  17
ENDBRANCH   5  15
ENDBRANCH   1   9
BRANCH   2  20
ATOM     20  C   UNL     1       7.668  -3.285   2.195  0.00  0.00    +0.136 C 
ATOM     21  C   UNL     1       7.689  -4.628   1.464  0.00  0.00    +0.029 C 
BRANCH  20  22
ATOM     22  S   UNL     1       9.287  -2.483   2.034  0.00  0.00    -0.084 S 
BRANCH  22  23
ATOM     23  C   UNL     1      10.382  -3.555   2.905  0.00  0.00    +0.161 A 
ATOM     24  N   UNL     1      10.133  -4.686   3.549  0.00  0.00    -0.133 NA
ATOM     25  N   UNL     1      11.046  -5.340   4.123  0.00  0.00    -0.125 NA
ATOM     26  C   UNL     1      12.305  -4.932   4.128  0.00  0.00    +0.189 A 
ATOM     27  S   UNL     1      12.146  -3.422   3.179  0.00  0.00    -0.024 S 
ATOM     28  N   UNL     1      13.431  -5.512   4.707  0.00  0.00    -0.263 N 
ATOM     29  C   UNL     1      13.319  -6.670   5.388  0.00  0.00    +0.224 C 
ATOM     30  O   UNL     1      12.237  -7.207   5.497  0.00  0.00    -0.275 OA
ATOM     31  H   UNL     1      14.296  -5.083   4.620  0.00  0.00    +0.157 HD
BRANCH  29  32
ATOM     32  C   UNL     1      14.538  -7.297   6.014  0.00  0.00    +0.039 C 
ATOM     33  C   UNL     1      14.138  -8.593   6.721  0.00  0.00    +0.020 C 
ATOM     34  C   UNL     1      15.568  -7.607   4.925  0.00  0.00    +0.020 C 
ATOM     35  C   UNL     1      15.145  -6.328   7.030  0.00  0.00    +0.020 C 
ENDBRANCH  29  32
ENDBRANCH  22  23
ENDBRANCH  20  22
ENDBRANCH   2  20
TORSDOF 8
