REMARK  Name = ZINC59039788
REMARK  14 active torsions:
REMARK  status: ('A' for Active; 'I' for Inactive)
REMARK    1  A    between atoms: C_1  and  C_2
REMARK    2  A    between atoms: C_2  and  C_3
REMARK    3  A    between atoms: C_3  and  C_5
REMARK    4  A    between atoms: C_3  and  C_6
REMARK    5  A    between atoms: C_9  and  N_12
REMARK    6  A    between atoms: C_13  and  C_15
REMARK    7  A    between atoms: C_15  and  S_16
REMARK    8  A    between atoms: S_16  and  C_17
REMARK    9  A    between atoms: N_22  and  N_23
REMARK   10  A    between atoms: C_24  and  C_25
REMARK   11  A    between atoms: C_28  and  O_34
REMARK   12  A    between atoms: C_29  and  O_31
REMARK   13  A    between atoms: O_31  and  C_32
REMARK   14  A    between atoms: C_32  and  C_33
REMARK                            x       y       z     vdW  Elec       q    Type
REMARK                         _______ _______ _______ _____ _____    ______ ____
ROOT
ATOM      1  C   UNL     1      -0.689 -10.547   4.205  0.00  0.00    +0.211 A 
ATOM      2  N   UNL     1      -1.116 -11.365   5.172  0.00  0.00    -0.186 NA
ATOM      3  C   UNL     1      -0.894 -12.616   4.824  0.00  0.00    +0.232 A 
ATOM      4  N   UNL     1      -0.310 -12.612   3.607  0.00  0.00    -0.245 N 
ATOM      5  N   UNL     1      -0.193 -11.266   3.226  0.00  0.00    -0.144 NA
ATOM      6  N   UNL     1      -1.204 -13.735   5.574  0.00  0.00    -0.205 N 
ATOM      7  H   UNL     1      -1.001 -14.620   5.233  0.00  0.00    +0.177 HD
ATOM      8  H   UNL     1      -0.030 -13.387   3.095  0.00  0.00    +0.192 HD
ENDROOT
BRANCH   6   9
ATOM      9  N   UNL     1      -1.812 -13.591   6.829  0.00  0.00    -0.188 NA
ATOM     10  C   UNL     1      -2.103 -14.643   7.533  0.00  0.00    +0.138 C 
BRANCH  10  11
ATOM     11  C   UNL     1      -2.743 -14.492   8.852  0.00  0.00    -0.002 A 
ATOM     12  C   UNL     1      -3.042 -13.219   9.344  0.00  0.00    +0.013 A 
ATOM     13  C   UNL     1      -3.641 -13.080  10.579  0.00  0.00    +0.050 A 
ATOM     14  C   UNL     1      -3.947 -14.201  11.335  0.00  0.00    +0.158 A 
ATOM     15  C   UNL     1      -3.651 -15.474  10.852  0.00  0.00    +0.162 A 
ATOM     16  C   UNL     1      -3.057 -15.622   9.612  0.00  0.00    +0.059 A 
BRANCH  14  17
ATOM     17  O   UNL     1      -4.536 -14.059  12.552  0.00  0.00    -0.503 OA
ATOM     18  H   UNL     1      -5.503 -14.057  12.523  0.00  0.00    +0.292 HD
ENDBRANCH  14  17
BRANCH  15  19
ATOM     19  O   UNL     1      -3.951 -16.571  11.597  0.00  0.00    -0.489 OA
BRANCH  19  20
ATOM     20  C   UNL     1      -3.620 -17.845  11.039  0.00  0.00    +0.226 C 
ATOM     21  C   UNL     1      -4.030 -18.951  12.013  0.00  0.00    +0.048 C 
ENDBRANCH  19  20
ENDBRANCH  15  19
ENDBRANCH  10  11
ENDBRANCH   6   9
BRANCH   1  22
ATOM     22  S   UNL     1      -0.782  -8.787   4.237  0.00  0.00    -0.075 S 
BRANCH  22  23
ATOM     23  C   UNL     1      -0.054  -8.281   2.654  0.00  0.00    +0.173 C 
BRANCH  23  25
ATOM     24  N   UNL     1       0.421  -6.171   1.453  0.00  0.00    -0.285 N 
ATOM     25  C   UNL     1      -0.072  -6.777   2.551  0.00  0.00    +0.227 C 
ATOM     26  O   UNL     1      -0.531  -6.113   3.457  0.00  0.00    -0.275 OA
ATOM     27  H   UNL     1       0.717  -6.702   0.697  0.00  0.00    +0.155 HD
BRANCH  24  31
ATOM     28  C   UNL     1       0.675  -2.015   1.305  0.00  0.00    -0.044 A 
ATOM     29  C   UNL     1       0.849  -2.675   2.508  0.00  0.00    +0.006 A 
ATOM     30  C   UNL     1       0.765  -4.052   2.560  0.00  0.00    +0.023 A 
ATOM     31  C   UNL     1       0.506  -4.775   1.403  0.00  0.00    +0.033 A 
ATOM     32  C   UNL     1       0.331  -4.110   0.197  0.00  0.00    +0.023 A 
ATOM     33  C   UNL     1       0.411  -2.732   0.152  0.00  0.00    +0.006 A 
BRANCH  28  34
ATOM     34  C   UNL     1       0.767  -0.512   1.251  0.00  0.00    +0.016 C 
ATOM     35  C   UNL     1      -0.293   0.097   2.171  0.00  0.00    +0.012 C 
BRANCH  34  37
ATOM     36  C   UNL     1       2.293   1.445   1.541  0.00  0.00    +0.004 C 
ATOM     37  C   UNL     1       2.157  -0.069   1.713  0.00  0.00    +0.004 C 
ENDBRANCH  34  37
ENDBRANCH  28  34
ENDBRANCH  24  31
ENDBRANCH  23  25
ENDBRANCH  22  23
ENDBRANCH   1  22
TORSDOF 11
