REMARK  Name = ZINC21315559
REMARK  10 active torsions:
REMARK  status: ('A' for Active; 'I' for Inactive)
REMARK    1  A    between atoms: C_1  and  C_2
REMARK    2  A    between atoms: C_5  and  C_8
REMARK    3  A    between atoms: C_8  and  N_9
REMARK    4  A    between atoms: C_10  and  C_12
REMARK    5  A    between atoms: C_12  and  S_13
REMARK    6  A    between atoms: S_13  and  C_14
REMARK    7  A    between atoms: N_18  and  N_19
REMARK    8  A    between atoms: N_20  and  N_21
REMARK    9  A    between atoms: C_22  and  C_23
REMARK   10  A    between atoms: C_26  and  O_29
REMARK                            x       y       z     vdW  Elec       q    Type
REMARK                         _______ _______ _______ _____ _____    ______ ____
ROOT
ATOM      1  C   UNL     1       0.715  -2.097  -0.015  0.00  0.00    +0.210 A 
ATOM      2  N   UNL     1      -0.597  -2.115  -0.002  0.00  0.00    -0.119 NA
ATOM      3  N   UNL     1      -1.048  -0.789   0.014  0.00  0.00    -0.109 NA
ATOM      4  C   UNL     1       0.002  -0.004   0.002  0.00  0.00    +0.254 A 
ATOM      5  N   UNL     1       1.119  -0.793  -0.013  0.00  0.00    -0.211 N 
ATOM      6  N   UNL     1      -0.017   1.383   0.010  0.00  0.00    -0.204 N 
ATOM      7  H   UNL     1       0.928   1.946   0.008  0.00  0.00    +0.177 HD
ENDROOT
BRANCH   5   8
ATOM      8  N   UNL     1       2.412  -0.353  -0.024  0.00  0.00    -0.294 N 
ATOM      9  H   UNL     1       2.626   0.726  -0.021  0.00  0.00    +0.163 HD
ATOM     10  H   UNL     1       3.240  -1.078  -0.036  0.00  0.00    +0.163 HD
ENDBRANCH   5   8
BRANCH   6  11
ATOM     11  N   UNL     1      -1.239   2.067   0.019  0.00  0.00    -0.188 NA
ATOM     12  C   UNL     1      -1.257   3.366   0.026  0.00  0.00    +0.138 C 
BRANCH  12  13
ATOM     13  C   UNL     1      -2.543   4.085   0.036  0.00  0.00    -0.005 A 
ATOM     14  C   UNL     1      -3.745   3.372   0.032  0.00  0.00    +0.013 A 
ATOM     15  C   UNL     1      -4.946   4.049   0.048  0.00  0.00    +0.046 A 
ATOM     16  C   UNL     1      -4.962   5.438   0.055  0.00  0.00    +0.117 A 
ATOM     17  C   UNL     1      -3.770   6.151   0.053  0.00  0.00    +0.046 A 
ATOM     18  C   UNL     1      -2.565   5.482   0.044  0.00  0.00    +0.013 A 
BRANCH  16  19
ATOM     19  O   UNL     1      -6.148   6.101   0.064  0.00  0.00    -0.507 OA
ATOM     20  H   UNL     1      -6.163   7.201   0.070  0.00  0.00    +0.292 HD
ENDBRANCH  16  19
ENDBRANCH  12  13
ENDBRANCH   6  11
BRANCH   1  21
ATOM     21  S   UNL     1       1.770  -3.509  -0.032  0.00  0.00    -0.075 S 
BRANCH  21  22
ATOM     22  C   UNL     1       0.623  -4.914  -0.028  0.00  0.00    +0.173 C 
BRANCH  22  24
ATOM     23  N   UNL     1       0.759  -7.384  -0.041  0.00  0.00    -0.311 N 
ATOM     24  C   UNL     1       1.406  -6.201  -0.041  0.00  0.00    +0.224 C 
ATOM     25  O   UNL     1       2.618  -6.174  -0.053  0.00  0.00    -0.275 OA
ATOM     26  H   UNL     1      -0.341  -7.409  -0.030  0.00  0.00    +0.149 HD
BRANCH  23  27
ATOM     27  C   UNL     1       1.520  -8.635  -0.054  0.00  0.00    +0.139 C 
BRANCH  27  32
ATOM     28  C   UNL     1      -2.133 -13.113  -0.040  0.00  0.00    +0.044 C 
ATOM     29  C   UNL     1      -1.180 -11.945  -0.044  0.00  0.00    -0.050 A 
ATOM     30  C   UNL     1      -0.755 -11.404  -1.242  0.00  0.00    +0.003 A 
ATOM     31  C   UNL     1       0.119 -10.333  -1.246  0.00  0.00    +0.005 A 
ATOM     32  C   UNL     1       0.567  -9.803  -0.050  0.00  0.00    -0.030 A 
ATOM     33  C   UNL     1       0.146 -10.348   1.148  0.00  0.00    +0.005 A 
ATOM     34  C   UNL     1      -0.731 -11.416   1.152  0.00  0.00    +0.003 A 
ENDBRANCH  27  32
ENDBRANCH  23  27
ENDBRANCH  22  24
ENDBRANCH  21  22
ENDBRANCH   1  21
TORSDOF 9
