REMARK  Name = ZINC15678274
REMARK  9 active torsions:
REMARK  status: ('A' for Active; 'I' for Inactive)
REMARK    1  A    between atoms: C_1  and  C_2
REMARK    2  A    between atoms: C_2  and  C_3
REMARK    3  A    between atoms: C_3  and  C_5
REMARK    4  A    between atoms: C_3  and  N_6
REMARK    5  A    between atoms: C_10  and  N_33
REMARK    6  A    between atoms: C_19  and  C_20
REMARK    7  A    between atoms: C_19  and  C_21
REMARK    8  A    between atoms: N_23  and  C_24
REMARK    9  A    between atoms: C_34  and  C_36
REMARK                            x       y       z     vdW  Elec       q    Type
REMARK                         _______ _______ _______ _____ _____    ______ ____
ROOT
ATOM      1  N   UNL     1      -1.778   3.487   0.698  0.00  0.00    -0.278 N 
ATOM      2  C   UNL     1      -0.955   4.491   0.320  0.00  0.00    +0.266 C 
ATOM      3  O   UNL     1      -0.676   5.408   1.070  0.00  0.00    -0.268 OA
ATOM      4  C   UNL     1      -0.414   4.418  -1.042  0.00  0.00    +0.127 A 
ATOM      5  C   UNL     1       0.574   5.160  -1.631  0.00  0.00    +0.072 A 
ATOM      6  C   UNL     1       0.721   4.644  -2.984  0.00  0.00    +0.025 A 
ATOM      7  C   UNL     1       1.573   5.010  -4.033  0.00  0.00    +0.050 A 
ATOM      8  C   UNL     1       1.452   4.297  -5.213  0.00  0.00    +0.124 A 
ATOM      9  C   UNL     1       0.533   3.267  -5.354  0.00  0.00    +0.040 A 
ATOM     10  C   UNL     1      -0.318   2.890  -4.332  0.00  0.00    +0.029 A 
ATOM     11  C   UNL     1      -0.222   3.592  -3.128  0.00  0.00    +0.052 A 
ATOM     12  N   UNL     1      -0.900   3.474  -1.958  0.00  0.00    -0.332 N 
ATOM     13  C   UNL     1      -1.987   2.554  -1.595  0.00  0.00    +0.157 C 
ATOM     14  C   UNL     1      -1.926   2.272  -0.095  0.00  0.00    +0.129 C 
ATOM     15  C   UNL     1      -3.215   1.562   0.327  0.00  0.00    +0.043 C 
ATOM     16  F   UNL     1       2.252   4.612  -6.255  0.00  0.00    -0.205 F 
ENDROOT
BRANCH   5  17
ATOM     17  N   UNL     1       1.294   6.201  -1.052  0.00  0.00    -0.283 N 
ATOM     18  C   UNL     1       1.756   7.209  -1.819  0.00  0.00    +0.214 C 
ATOM     19  O   UNL     1       1.476   7.251  -2.998  0.00  0.00    -0.276 OA
ATOM     20  C   UNL     1       2.621   8.283  -1.211  0.00  0.00    +0.109 C 
ATOM     21  H   UNL     1       1.462   6.202  -0.097  0.00  0.00    +0.155 HD
ENDBRANCH   5  17
BRANCH  14  22
ATOM     22  C   UNL     1      -0.757   1.363   0.183  0.00  0.00    +0.238 C 
ATOM     23  O   UNL     1      -0.924   0.164   0.252  0.00  0.00    -0.273 OA
ATOM     24  N   UNL     1       0.476   1.883   0.349  0.00  0.00    -0.311 N 
ATOM     25  H   UNL     1       0.609   2.842   0.294  0.00  0.00    +0.149 HD
BRANCH  24  26
ATOM     26  C   UNL     1       1.614   0.999   0.613  0.00  0.00    +0.073 C 
ATOM     27  C   UNL     1       1.694   0.705   2.113  0.00  0.00    +0.022 C 
ATOM     28  C   UNL     1       2.604  -0.502   2.348  0.00  0.00    +0.002 C 
ATOM     29  C   UNL     1       2.277  -1.595   1.328  0.00  0.00    +0.000 C 
ATOM     30  C   UNL     1       3.461  -1.775   0.376  0.00  0.00    +0.000 C 
ATOM     31  C   UNL     1       3.487  -0.621  -0.628  0.00  0.00    +0.000 C 
ATOM     32  C   UNL     1       4.022   0.639   0.056  0.00  0.00    +0.002 C 
ATOM     33  C   UNL     1       2.905   1.680   0.156  0.00  0.00    +0.022 C 
ENDBRANCH  24  26
ENDBRANCH  14  22
BRANCH   1  34
ATOM     34  C   UNL     1      -2.543   3.623   1.940  0.00  0.00    +0.074 C 
ATOM     35  C   UNL     1      -3.451   4.851   1.848  0.00  0.00    +0.028 C 
BRANCH  34  37
ATOM     36  C   UNL     1      -0.756   2.511   3.287  0.00  0.00    +0.005 C 
ATOM     37  C   UNL     1      -1.579   3.789   3.117  0.00  0.00    +0.019 C 
ENDBRANCH  34  37
ENDBRANCH   1  34
TORSDOF 5
