REMARK  Name = ZINC21808244
REMARK  5 active torsions:
REMARK  status: ('A' for Active; 'I' for Inactive)
REMARK    1  A    between atoms: C_1  and  C_2
REMARK    2  A    between atoms: C_2  and  C_25
REMARK    3  A    between atoms: N_14  and  C_15
REMARK    4  A    between atoms: C_15  and  C_16
REMARK    5  A    between atoms: N_27  and  C_28
REMARK                            x       y       z     vdW  Elec       q    Type
REMARK                         _______ _______ _______ _____ _____    ______ ____
ROOT
ATOM      1  C   UNL     1      -3.497  -1.555   1.575  0.00  0.00    +0.043 C 
ATOM      2  C   UNL     1      -2.314  -0.683   2.002  0.00  0.00    +0.129 C 
ATOM      3  C   UNL     1      -2.014  -0.937   3.483  0.00  0.00    +0.157 C 
ATOM      4  N   UNL     1      -3.052  -0.297   4.294  0.00  0.00    -0.333 N 
ATOM      5  C   UNL     1      -3.528  -0.661   5.541  0.00  0.00    +0.057 A 
ATOM      6  C   UNL     1      -3.322  -1.663   6.500  0.00  0.00    +0.034 A 
ATOM      7  C   UNL     1      -4.023  -1.654   7.653  0.00  0.00    +0.048 A 
ATOM      8  S   UNL     1      -5.050  -0.206   7.474  0.00  0.00    -0.095 S 
ATOM      9  C   UNL     1      -4.489   0.306   5.872  0.00  0.00    +0.038 A 
ATOM     10  C   UNL     1      -4.595   1.229   4.838  0.00  0.00    +0.048 A 
ATOM     11  C   UNL     1      -3.720   0.846   3.866  0.00  0.00    +0.106 A 
ATOM     12  C   UNL     1      -3.415   1.445   2.560  0.00  0.00    +0.264 C 
ATOM     13  O   UNL     1      -3.841   2.540   2.242  0.00  0.00    -0.268 OA
ATOM     14  N   UNL     1      -2.635   0.713   1.730  0.00  0.00    -0.276 N 
ENDROOT
BRANCH   2  15
ATOM     15  C   UNL     1      -1.107  -1.072   1.187  0.00  0.00    +0.238 C 
ATOM     16  O   UNL     1      -1.222  -1.289  -0.001  0.00  0.00    -0.273 OA
ATOM     17  N   UNL     1       0.099  -1.179   1.778  0.00  0.00    -0.311 N 
ATOM     18  H   UNL     1       0.223  -0.892   2.833  0.00  0.00    +0.149 HD
BRANCH  17  19
ATOM     19  C   UNL     1       1.247  -1.678   1.016  0.00  0.00    +0.073 C 
ATOM     20  C   UNL     1       1.139  -3.197   0.869  0.00  0.00    +0.022 C 
ATOM     21  C   UNL     1       2.337  -3.719   0.073  0.00  0.00    +0.002 C 
ATOM     22  C   UNL     1       3.631  -3.368   0.811  0.00  0.00    +0.000 C 
ATOM     23  C   UNL     1       3.739  -1.849   0.958  0.00  0.00    +0.002 C 
ATOM     24  C   UNL     1       2.540  -1.328   1.754  0.00  0.00    +0.022 C 
ENDBRANCH  17  19
ENDBRANCH   2  15
BRANCH  14  25
ATOM     25  C   UNL     1      -2.102   1.342   0.519  0.00  0.00    +0.144 C 
BRANCH  25  26
ATOM     26  C   UNL     1      -0.774   1.983   0.829  0.00  0.00    -0.026 A 
ATOM     27  C   UNL     1      -0.732   3.241   1.400  0.00  0.00    +0.009 A 
ATOM     28  C   UNL     1       0.484   3.836   1.681  0.00  0.00    +0.050 A 
ATOM     29  C   UNL     1       1.664   3.169   1.394  0.00  0.00    +0.166 A 
ATOM     30  C   UNL     1       1.622   1.900   0.822  0.00  0.00    +0.167 A 
ATOM     31  C   UNL     1       0.400   1.310   0.544  0.00  0.00    +0.054 A 
ATOM     32  O   UNL     1       2.901   1.462   0.638  0.00  0.00    -0.453 OA
ATOM     33  C   UNL     1       3.727   2.638   0.724  0.00  0.00    +0.466 C 
ATOM     34  O   UNL     1       2.970   3.526   1.569  0.00  0.00    -0.453 OA
ENDBRANCH  25  26
ENDBRANCH  14  25
TORSDOF 4
