REMARK  Name = ZINC32540552
REMARK  10 active torsions:
REMARK  status: ('A' for Active; 'I' for Inactive)
REMARK    1  A    between atoms: C_1  and  C_2
REMARK    2  A    between atoms: C_6  and  C_8
REMARK    3  A    between atoms: C_8  and  C_9
REMARK    4  A    between atoms: C_9  and  N_10
REMARK    5  A    between atoms: C_11  and  C_13
REMARK    6  A    between atoms: C_13  and  C_14
REMARK    7  A    between atoms: N_21  and  C_22
REMARK    8  A    between atoms: C_22  and  C_23
REMARK    9  A    between atoms: C_23  and  C_24
REMARK   10  A    between atoms: C_23  and  C_30
REMARK                            x       y       z     vdW  Elec       q    Type
REMARK                         _______ _______ _______ _____ _____    ______ ____
ROOT
ATOM      1  C   UNL     1       5.300  -8.579   4.318  0.00  0.00    +0.152 C 
ATOM      2  C   UNL     1       5.671  -9.994   4.661  0.00  0.00    +0.231 C 
ATOM      3  O   UNL     1       5.178 -10.501   5.646  0.00  0.00    -0.274 OA
ATOM      4  N   UNL     1       6.521 -10.718   3.925  0.00  0.00    -0.313 N 
ATOM      5  C   UNL     1       7.140 -10.214   2.703  0.00  0.00    +0.119 C 
ATOM      6  C   UNL     1       7.046  -8.688   2.658  0.00  0.00    +0.104 C 
ATOM      7  N   UNL     1       5.653  -8.294   2.921  0.00  0.00    -0.289 NA
ATOM      8  H   UNL     1       6.736 -11.617   4.217  0.00  0.00    +0.149 HD
ENDROOT
BRANCH   1   9
ATOM      9  C   UNL     1       3.795  -8.387   4.512  0.00  0.00    +0.124 C 
BRANCH   9  11
ATOM     10  N   UNL     1       1.705  -9.471   3.752  0.00  0.00    -0.315 N 
ATOM     11  C   UNL     1       3.048  -9.391   3.672  0.00  0.00    +0.215 C 
ATOM     12  O   UNL     1       3.656 -10.127   2.923  0.00  0.00    -0.276 OA
ATOM     13  H   UNL     1       1.219  -8.882   4.351  0.00  0.00    +0.149 HD
BRANCH  10  14
ATOM     14  C   UNL     1       0.980 -10.447   2.935  0.00  0.00    +0.112 C 
BRANCH  14  15
ATOM     15  C   UNL     1      -0.520 -10.331   3.215  0.00  0.00    +0.091 C 
BRANCH  15  21
ATOM     16  C   UNL     1      -3.006 -12.412  -0.606  0.00  0.00    +0.065 C 
ATOM     17  C   UNL     1      -2.338 -12.238   0.734  0.00  0.00    +0.030 A 
ATOM     18  C   UNL     1      -2.244 -13.173   1.699  0.00  0.00    +0.104 A 
ATOM     19  N   UNL     1      -1.565 -12.600   2.740  0.00  0.00    -0.350 N 
ATOM     20  H   UNL     1      -1.339 -13.024   3.583  0.00  0.00    +0.166 HD
ATOM     21  C   UNL     1      -1.267 -11.335   2.375  0.00  0.00    +0.086 A 
ATOM     22  N   UNL     1      -1.728 -11.127   1.172  0.00  0.00    -0.347 N 
ATOM     23  H   UNL     1      -1.645 -10.299   0.673  0.00  0.00    +0.167 HD
ENDBRANCH  15  21
ENDBRANCH  14  15
ENDBRANCH  10  14
ENDBRANCH   9  11
ENDBRANCH   1   9
BRANCH   7  24
ATOM     24  C   UNL     1       5.439  -6.876   2.602  0.00  0.00    +0.098 C 
BRANCH  24  25
ATOM     25  C   UNL     1       5.583  -6.665   1.093  0.00  0.00    +0.063 C 
BRANCH  25  26
ATOM     26  C   UNL     1       4.484  -7.405   0.376  0.00  0.00    -0.039 A 
ATOM     27  C   UNL     1       3.162  -7.150   0.687  0.00  0.00    +0.004 A 
ATOM     28  C   UNL     1       2.153  -7.829   0.029  0.00  0.00    +0.000 A 
ATOM     29  C   UNL     1       2.467  -8.762  -0.942  0.00  0.00    +0.000 A 
ATOM     30  C   UNL     1       3.790  -9.016  -1.254  0.00  0.00    +0.000 A 
ATOM     31  C   UNL     1       4.798  -8.334  -0.599  0.00  0.00    +0.004 A 
ENDBRANCH  25  26
BRANCH  25  32
ATOM     32  C   UNL     1       5.486  -5.194   0.780  0.00  0.00    -0.039 A 
ATOM     33  C   UNL     1       4.422  -4.454   1.260  0.00  0.00    +0.004 A 
ATOM     34  C   UNL     1       4.333  -3.105   0.973  0.00  0.00    +0.000 A 
ATOM     35  C   UNL     1       5.309  -2.496   0.207  0.00  0.00    +0.000 A 
ATOM     36  C   UNL     1       6.374  -3.236  -0.272  0.00  0.00    +0.000 A 
ATOM     37  C   UNL     1       6.465  -4.584   0.018  0.00  0.00    +0.004 A 
ENDBRANCH  25  32
ENDBRANCH  24  25
ENDBRANCH   7  24
TORSDOF 9
