REMARK  Name = ZINC45471491
REMARK  11 active torsions:
REMARK  status: ('A' for Active; 'I' for Inactive)
REMARK    1  A    between atoms: C_1  and  C_2
REMARK    2  A    between atoms: C_2  and  O_3
REMARK    3  A    between atoms: O_3  and  C_4
REMARK    4  A    between atoms: C_11  and  C_18
REMARK    5  A    between atoms: C_13  and  O_14
REMARK    6  A    between atoms: C_18  and  N_19
REMARK    7  A    between atoms: N_19  and  C_20
REMARK    8  A    between atoms: C_20  and  C_22
REMARK    9  A    between atoms: C_20  and  C_29
REMARK   10  A    between atoms: C_29  and  C_30
REMARK   11  A    between atoms: C_29  and  C_31
REMARK                            x       y       z     vdW  Elec       q    Type
REMARK                         _______ _______ _______ _____ _____    ______ ____
ROOT
ATOM      1  C   UNL     1       0.925  -2.023   1.159  0.00  0.00    +0.405 C 
ATOM      2  O   UNL     1       0.096  -2.753   0.642  0.00  0.00    -0.226 OA
ATOM      3  N   UNL     1       1.730  -2.496   2.101  0.00  0.00    -0.251 N 
ATOM      4  C   UNL     1       1.728  -3.824   2.392  0.00  0.00    +0.040 A 
ATOM      5  C   UNL     1       2.301  -4.277   3.594  0.00  0.00    +0.024 A 
ATOM      6  C   UNL     1       2.306  -5.601   3.897  0.00  0.00    +0.013 A 
ATOM      7  C   UNL     1       1.735  -6.527   3.005  0.00  0.00    +0.019 A 
ATOM      8  C   UNL     1       1.729  -7.906   3.300  0.00  0.00    -0.047 A 
ATOM      9  C   UNL     1       1.156  -8.773   2.392  0.00  0.00    +0.090 A 
ATOM     10  C   UNL     1       0.603  -8.280   1.219  0.00  0.00    +0.285 A 
ATOM     11  O   UNL     1       0.610  -6.972   0.942  0.00  0.00    -0.425 OA
ATOM     12  C   UNL     1       1.157  -6.081   1.795  0.00  0.00    +0.141 A 
ATOM     13  C   UNL     1       1.152  -4.730   1.499  0.00  0.00    +0.070 A 
ATOM     14  H   UNL     1       2.319  -1.895   2.582  0.00  0.00    +0.158 HD
ENDROOT
BRANCH  10  15
ATOM     15  O   UNL     1       0.046  -9.137   0.342  0.00  0.00    -0.480 OA
ATOM     16  H   UNL     1      -0.315  -8.712  -0.448  0.00  0.00    +0.295 HD
ENDBRANCH  10  15
BRANCH   1  17
ATOM     17  O   UNL     1       1.024  -0.731   0.772  0.00  0.00    -0.450 OA
BRANCH  17  19
ATOM     18  C   UNL     1       0.385   1.188  -0.550  0.00  0.00    +0.048 C 
ATOM     19  C   UNL     1       0.125  -0.289  -0.247  0.00  0.00    +0.230 C 
ENDBRANCH  17  19
ENDBRANCH   1  17
BRANCH   8  20
ATOM     20  C   UNL     1       2.336  -8.421   4.580  0.00  0.00    -0.045 C 
BRANCH  20  21
ATOM     21  N   UNL     1       1.287  -8.560   5.598  0.00  0.00    +0.386 N 
ATOM     22  H   UNL     1       0.804  -7.681   5.706  0.00  0.00    -0.085 HD
ATOM     23  H   UNL     1       0.631  -9.271   5.310  0.00  0.00    -0.085 HD
BRANCH  21  24
ATOM     24  C   UNL     1       1.895  -8.945   6.879  0.00  0.00    -0.038 C 
BRANCH  24  25
ATOM     25  C   UNL     1       2.495 -10.322   6.756  0.00  0.00    -0.061 A 
ATOM     26  C   UNL     1       1.831 -11.304   6.044  0.00  0.00    +0.005 A 
ATOM     27  C   UNL     1       2.381 -12.567   5.931  0.00  0.00    +0.038 A 
ATOM     28  C   UNL     1       3.597 -12.849   6.530  0.00  0.00    +0.123 A 
ATOM     29  C   UNL     1       4.261 -11.864   7.243  0.00  0.00    +0.038 A 
ATOM     30  C   UNL     1       3.712 -10.601   7.351  0.00  0.00    +0.005 A 
ATOM     31  F   UNL     1       4.135 -14.083   6.420  0.00  0.00    -0.205 F 
ENDBRANCH  24  25
BRANCH  24  32
ATOM     32  C   UNL     1       0.823  -8.951   7.971  0.00  0.00    -0.027 C 
ATOM     33  C   UNL     1       1.472  -9.269   9.320  0.00  0.00    +0.006 C 
ATOM     34  C   UNL     1       0.155  -7.577   8.037  0.00  0.00    +0.006 C 
ENDBRANCH  24  32
ENDBRANCH  21  24
ENDBRANCH  20  21
ENDBRANCH   8  20
TORSDOF 8
