REMARK  Name = ZINC20723000
REMARK  6 active torsions:
REMARK  status: ('A' for Active; 'I' for Inactive)
REMARK    1  A    between atoms: C_1  and  C_2
REMARK    2  A    between atoms: C_2  and  C_3
REMARK    3  A    between atoms: C_2  and  C_4
REMARK    4  A    between atoms: N_19  and  C_20
REMARK    5  A    between atoms: C_23  and  O_26
REMARK    6  A    between atoms: O_26  and  C_27
REMARK                            x       y       z     vdW  Elec       q    Type
REMARK                         _______ _______ _______ _____ _____    ______ ____
ROOT
ATOM      1  C   UNL     1      -1.412  -0.526   0.013  0.00  0.00    -0.044 A 
ATOM      2  C   UNL     1      -2.245  -0.196   1.062  0.00  0.00    +0.006 A 
ATOM      3  C   UNL     1      -3.555  -0.645   1.127  0.00  0.00    +0.024 A 
ATOM      4  C   UNL     1      -4.007  -1.452   0.082  0.00  0.00    +0.038 A 
ATOM      5  C   UNL     1      -3.150  -1.779  -0.977  0.00  0.00    -0.006 A 
ATOM      6  C   UNL     1      -1.851  -1.325  -1.038  0.00  0.00    +0.010 A 
ATOM      7  C   UNL     1      -3.945  -2.640  -1.906  0.00  0.00    +0.111 C 
ATOM      8  C   UNL     1      -4.073  -1.994  -3.284  0.00  0.00    +0.122 C 
ATOM      9  C   UNL     1      -2.835  -2.219  -4.107  0.00  0.00    +0.220 C 
ATOM     10  O   UNL     1      -2.444  -1.330  -4.834  0.00  0.00    -0.275 OA
ATOM     11  N   UNL     1      -2.145  -3.378  -4.062  0.00  0.00    -0.270 N 
ATOM     12  C   UNL     1      -2.481  -4.312  -3.084  0.00  0.00    +0.133 A 
ATOM     13  C   UNL     1      -3.329  -4.003  -2.051  0.00  0.00    +0.032 A 
ATOM     14  C   UNL     1      -3.464  -5.132  -1.258  0.00  0.00    +0.141 A 
ATOM     15  N   UNL     1      -2.726  -6.089  -1.771  0.00  0.00    -0.173 NA
ATOM     16  N   UNL     1      -2.088  -5.591  -2.919  0.00  0.00    -0.218 N 
ATOM     17  C   UNL     1      -5.305  -2.747  -1.251  0.00  0.00    +0.233 C 
ATOM     18  O   UNL     1      -6.263  -3.360  -1.672  0.00  0.00    -0.274 OA
ATOM     19  N   UNL     1      -5.249  -2.031  -0.108  0.00  0.00    -0.284 N 
ATOM     20  H   UNL     1      -1.432  -3.556  -4.696  0.00  0.00    +0.156 HD
ATOM     21  H   UNL     1      -5.992  -1.935   0.508  0.00  0.00    +0.155 HD
ENDROOT
BRANCH  16  22
ATOM     22  C   UNL     1      -1.204  -6.299  -3.746  0.00  0.00    +0.068 A 
ATOM     23  C   UNL     1      -1.193  -6.063  -5.115  0.00  0.00    +0.031 A 
ATOM     24  C   UNL     1      -0.322  -6.760  -5.928  0.00  0.00    +0.048 A 
ATOM     25  C   UNL     1       0.543  -7.695  -5.379  0.00  0.00    +0.120 A 
ATOM     26  C   UNL     1       0.532  -7.932  -4.012  0.00  0.00    +0.048 A 
ATOM     27  C   UNL     1      -0.334  -7.231  -3.196  0.00  0.00    +0.031 A 
BRANCH  25  28
ATOM     28  O   UNL     1       1.400  -8.381  -6.181  0.00  0.00    -0.495 OA
ATOM     29  C   UNL     1       2.262  -9.329  -5.548  0.00  0.00    +0.277 C 
ENDBRANCH  25  28
ENDBRANCH  16  22
BRANCH   1  31
ATOM     30  C   UNL     1      -0.019   1.526   0.010  0.00  0.00    +0.012 C 
ATOM     31  C   UNL     1       0.002  -0.004   0.002  0.00  0.00    +0.013 C 
ATOM     32  C   UNL     1       0.742  -0.511   1.242  0.00  0.00    +0.012 C 
ENDBRANCH   1  31
TORSDOF 3
