REMARK  Name = ZINC63804412
REMARK  6 active torsions:
REMARK  status: ('A' for Active; 'I' for Inactive)
REMARK    1  A    between atoms: C_1  and  C_2
REMARK    2  A    between atoms: C_7  and  C_13
REMARK    3  A    between atoms: C_8  and  C_12
REMARK    4  A    between atoms: C_13  and  C_14
REMARK    5  A    between atoms: C_14  and  N_15
REMARK    6  A    between atoms: C_16  and  C_18
REMARK                            x       y       z     vdW  Elec       q    Type
REMARK                         _______ _______ _______ _____ _____    ______ ____
ROOT
ATOM      1  N   UNL     1       0.098  -6.430   1.988  0.00  0.00    -0.311 N 
ATOM      2  C   UNL     1       0.107  -7.394   1.046  0.00  0.00    +0.251 C 
ATOM      3  O   UNL     1       0.098  -7.093  -0.132  0.00  0.00    -0.270 OA
ATOM      4  H   UNL     1       0.105  -6.670   2.928  0.00  0.00    +0.149 HD
ENDROOT
BRANCH   2   5
ATOM      5  C   UNL     1       0.127  -8.812   1.444  0.00  0.00    +0.122 A 
ATOM      6  C   UNL     1       0.143  -9.827   0.497  0.00  0.00    +0.031 A 
ATOM      7  C   UNL     1       0.130 -11.169   0.957  0.00  0.00    +0.020 A 
ATOM      8  C   UNL     1       0.345 -12.229   0.064  0.00  0.00    +0.031 A 
ATOM      9  C   UNL     1       0.371 -13.513   0.529  0.00  0.00    +0.042 A 
ATOM     10  C   UNL     1       0.178 -13.779   1.879  0.00  0.00    +0.023 A 
ATOM     11  C   UNL     1      -0.055 -12.753   2.771  0.00  0.00    +0.048 A 
ATOM     12  C   UNL     1      -0.093 -11.441   2.320  0.00  0.00    +0.139 A 
ATOM     13  O   UNL     1      -0.364 -10.428   3.179  0.00  0.00    -0.422 OA
ATOM     14  C   UNL     1       0.138  -9.209   2.864  0.00  0.00    +0.350 A 
ATOM     15  O   UNL     1       0.579  -8.467   3.721  0.00  0.00    -0.244 OA
ATOM     16 CL   UNL     1       0.647 -14.824  -0.575  0.00  0.00    -0.084 Cl
ENDBRANCH   2   5
BRANCH   1  17
ATOM     17  C   UNL     1       0.077  -5.020   1.593  0.00  0.00    +0.109 C 
BRANCH  17  18
ATOM     18  C   UNL     1       0.070  -4.139   2.844  0.00  0.00    +0.052 C 
BRANCH  18  25
ATOM     19  C   UNL     1      -0.018   1.503   0.010  0.00  0.00    +0.046 C 
ATOM     20  C   UNL     1       0.002  -0.004   0.002  0.00  0.00    -0.027 A 
ATOM     21  C   UNL     1       0.006  -0.669  -1.173  0.00  0.00    +0.005 A 
ATOM     22  C   UNL     1       0.024  -2.068  -1.251  0.00  0.00    +0.001 A 
ATOM     23  C   UNL     1       0.040  -2.842  -0.142  0.00  0.00    +0.010 A 
ATOM     24  C   UNL     1       0.037  -2.197   1.177  0.00  0.00    -0.001 A 
ATOM     25  C   UNL     1       0.049  -2.688   2.437  0.00  0.00    -0.037 C 
ATOM     26  C   UNL     1       0.037  -1.486   3.355  0.00  0.00    +0.103 C 
ATOM     27  N   UNL     1       0.018  -0.310   2.478  0.00  0.00    -0.378 N 
ATOM     28  C   UNL     1       0.023  -0.718   1.232  0.00  0.00    +0.046 A 
ATOM     29  C   UNL     1      -1.212  -1.509   4.237  0.00  0.00    +0.035 C 
ATOM     30  H   UNL     1       0.007   0.614   2.771  0.00  0.00    +0.160 HD
ENDBRANCH  18  25
ENDBRANCH  17  18
ENDBRANCH   1  17
TORSDOF 4
