REMARK  Name = ZINC31933965
REMARK  5 active torsions:
REMARK  status: ('A' for Active; 'I' for Inactive)
REMARK    1  A    between atoms: C_1  and  C_2
REMARK    2  A    between atoms: C_2  and  C_3
REMARK    3  A    between atoms: C_2  and  C_4
REMARK    4  A    between atoms: C_2  and  C_13
REMARK    5  A    between atoms: C_4  and  N_5
REMARK                            x       y       z     vdW  Elec       q    Type
REMARK                         _______ _______ _______ _____ _____    ______ ____
ROOT
ATOM      1  C   UNL     1       0.331   1.499   0.005  0.00  0.00    +0.022 C 
ATOM      2  C   UNL     1       0.068  -0.008  -0.029  0.00  0.00    +0.059 C 
ATOM      3  C   UNL     1       0.908  -0.697   1.049  0.00  0.00    +0.022 C 
ENDROOT
BRANCH   2   4
ATOM      4  C   UNL     1      -1.393  -0.269   0.230  0.00  0.00    +0.223 C 
ATOM      5  O   UNL     1      -2.035  -0.946  -0.546  0.00  0.00    -0.275 OA
ATOM      6  N   UNL     1      -1.987   0.249   1.323  0.00  0.00    -0.305 N 
ATOM      7  C   UNL     1      -1.206   0.980   2.332  0.00  0.00    +0.088 C 
ATOM      8  C   UNL     1      -1.516   0.398   3.710  0.00  0.00    -0.063 C 
ATOM      9  N   UNL     1      -2.970   0.403   3.926  0.00  0.00    +0.381 N 
ATOM     10  C   UNL     1      -3.655  -0.459   2.954  0.00  0.00    -0.063 C 
ATOM     11  C   UNL     1      -3.433   0.093   1.541  0.00  0.00    +0.088 C 
ATOM     12  H   UNL     1      -3.191   0.034   4.938  0.00  0.00    -0.086 HD
ATOM     13  H   UNL     1      -3.353   1.428   3.817  0.00  0.00    -0.086 HD
ENDBRANCH   2   4
BRANCH   2  14
ATOM     14  C   UNL     1       0.450  -0.562  -1.403  0.00  0.00    +0.140 C 
BRANCH  14  15
ATOM     15  N   UNL     1       1.871  -0.308  -1.655  0.00  0.00    -0.313 N 
ATOM     16  C   UNL     1       2.795  -1.229  -1.276  0.00  0.00    +0.109 A 
ATOM     17  C   UNL     1       4.113  -1.017  -1.499  0.00  0.00    +0.057 A 
ATOM     18  C   UNL     1       4.536   0.165  -2.126  0.00  0.00    +0.027 A 
ATOM     19  C   UNL     1       3.606   1.088  -2.504  0.00  0.00    +0.072 A 
ATOM     20  C   UNL     1       2.246   0.834  -2.263  0.00  0.00    +0.251 A 
ATOM     21  O   UNL     1       1.403   1.649  -2.601  0.00  0.00    -0.268 OA
ATOM     22 CL   UNL     1       5.280  -2.205  -1.008  0.00  0.00    -0.082 Cl
ENDBRANCH  14  15
ENDBRANCH   2  14
TORSDOF 3
