REMARK  Name = ZINC02282650
REMARK  10 active torsions:
REMARK  status: ('A' for Active; 'I' for Inactive)
REMARK    1  A    between atoms: C_1  and  C_2
REMARK    2  A    between atoms: C_5  and  C_8
REMARK    3  A    between atoms: N_10  and  C_11
REMARK    4  A    between atoms: C_11  and  C_26
REMARK    5  A    between atoms: C_12  and  C_13
REMARK    6  A    between atoms: C_16  and  C_18
REMARK    7  A    between atoms: N_28  and  C_29
REMARK    8  A    between atoms: C_29  and  C_30
REMARK    9  A    between atoms: C_30  and  C_31
REMARK   10  A    between atoms: C_31  and  O_32
REMARK                            x       y       z     vdW  Elec       q    Type
REMARK                         _______ _______ _______ _____ _____    ______ ____
ROOT
ATOM      1  C   UNL     1       1.240   1.637  -0.005  0.00  0.00    +0.100 C 
ATOM      2  C   UNL     1       2.358   0.863   0.061  0.00  0.00    +0.074 C 
ENDROOT
BRANCH   2   3
ATOM      3  C   UNL     1       3.636   1.456  -0.049  0.00  0.00    +0.131 A 
ATOM      4  C   UNL     1       4.843   0.783  -0.089  0.00  0.00    +0.050 A 
ATOM      5  C   UNL     1       5.842   1.754  -0.206  0.00  0.00    +0.050 A 
ATOM      6  C   UNL     1       5.221   2.971  -0.223  0.00  0.00    +0.137 A 
ATOM      7  O   UNL     1       3.893   2.779  -0.129  0.00  0.00    -0.455 OA
BRANCH   6   8
ATOM      8  C   UNL     1       5.896   4.279  -0.328  0.00  0.00    +0.036 A 
ATOM      9  C   UNL     1       6.961   4.589   0.521  0.00  0.00    +0.014 A 
ATOM     10  C   UNL     1       7.590   5.812   0.414  0.00  0.00    +0.021 A 
ATOM     11  C   UNL     1       7.162   6.736  -0.525  0.00  0.00    +0.042 A 
ATOM     12  C   UNL     1       6.104   6.437  -1.367  0.00  0.00    +0.040 A 
ATOM     13  C   UNL     1       5.468   5.215  -1.274  0.00  0.00    +0.053 A 
ATOM     14 CL   UNL     1       4.141   4.843  -2.330  0.00  0.00    -0.083 Cl
ATOM     15 CL   UNL     1       7.955   8.275  -0.647  0.00  0.00    -0.083 Cl
ENDBRANCH   6   8
ENDBRANCH   2   3
BRANCH   1  18
ATOM     16  C   UNL     1      -1.132   1.808   0.034  0.00  0.00    +0.248 C 
ATOM     17  O   UNL     1      -1.035   3.019  -0.016  0.00  0.00    -0.270 OA
ATOM     18  N   UNL     1      -0.025   1.040  -0.009  0.00  0.00    -0.277 N 
ATOM     19  H   UNL     1      -0.106   0.075  -0.047  0.00  0.00    +0.155 HD
BRANCH  16  24
ATOM     20  C   UNL     1      -6.320  -0.647   0.456  0.00  0.00    +0.044 C 
ATOM     21  C   UNL     1      -4.961  -0.004   0.345  0.00  0.00    -0.050 A 
ATOM     22  C   UNL     1      -4.854   1.374   0.288  0.00  0.00    +0.004 A 
ATOM     23  C   UNL     1      -3.614   1.969   0.187  0.00  0.00    +0.013 A 
ATOM     24  C   UNL     1      -2.465   1.177   0.142  0.00  0.00    +0.037 A 
ATOM     25  C   UNL     1      -2.580  -0.213   0.194  0.00  0.00    +0.013 A 
ATOM     26  C   UNL     1      -3.827  -0.795   0.302  0.00  0.00    +0.004 A 
ENDBRANCH  16  24
ENDBRANCH   1  18
BRANCH   1  27
ATOM     27  C   UNL     1       1.363   3.095  -0.072  0.00  0.00    +0.258 C 
ATOM     28  O   UNL     1       1.353   3.658  -1.152  0.00  0.00    -0.269 OA
ATOM     29  N   UNL     1       1.485   3.814   1.061  0.00  0.00    -0.310 N 
ATOM     30  H   UNL     1       1.567   3.363   1.915  0.00  0.00    +0.149 HD
BRANCH  29  31
ATOM     31  C   UNL     1       1.496   5.278   1.002  0.00  0.00    +0.107 C 
BRANCH  31  32
ATOM     32  C   UNL     1       1.646   5.844   2.416  0.00  0.00    +0.046 C 
BRANCH  32  33
ATOM     33  C   UNL     1       1.657   7.373   2.354  0.00  0.00    +0.157 C 
BRANCH  33  34
ATOM     34  O   UNL     1       1.796   7.902   3.675  0.00  0.00    -0.395 OA
ATOM     35  H   UNL     1       1.811   8.868   3.712  0.00  0.00    +0.209 HD
ENDBRANCH  33  34
ENDBRANCH  32  33
ENDBRANCH  31  32
ENDBRANCH  29  31
ENDBRANCH   1  27
TORSDOF 9
