REMARK  Name = ZINC39960757
REMARK  11 active torsions:
REMARK  status: ('A' for Active; 'I' for Inactive)
REMARK    1  A    between atoms: C_1  and  C_2
REMARK    2  A    between atoms: C_2  and  C_3
REMARK    3  A    between atoms: C_3  and  C_4
REMARK    4  A    between atoms: C_3  and  C_6
REMARK    5  A    between atoms: C_4  and  C_5
REMARK    6  A    between atoms: C_8  and  C_18
REMARK    7  A    between atoms: C_10  and  C_12
REMARK    8  A    between atoms: C_27  and  C_29
REMARK    9  A    between atoms: C_29  and  N_30
REMARK   10  A    between atoms: N_30  and  C_31
REMARK   11  A    between atoms: C_31  and  C_32
REMARK                            x       y       z     vdW  Elec       q    Type
REMARK                         _______ _______ _______ _____ _____    ______ ____
ROOT
ATOM      1  C   UNL     1      -1.715  -3.457  -0.958  0.00  0.00    +0.048 A 
ATOM      2  C   UNL     1      -0.876  -3.978   0.016  0.00  0.00    +0.047 A 
ATOM      3  C   UNL     1       0.494  -3.830  -0.141  0.00  0.00    +0.047 A 
ATOM      4  N   UNL     1       0.957  -3.199  -1.206  0.00  0.00    -0.232 NA
ATOM      5  C   UNL     1       0.128  -2.712  -2.119  0.00  0.00    +0.160 A 
ATOM      6  N   UNL     1      -1.187  -2.842  -2.002  0.00  0.00    -0.232 NA
ENDROOT
BRANCH   3   7
ATOM      7  C   UNL     1       1.444  -4.380   0.892  0.00  0.00    +0.024 C 
ATOM      8  C   UNL     1       2.757  -3.596   0.850  0.00  0.00    -0.069 C 
ATOM      9  N   UNL     1       3.004  -2.961   2.147  0.00  0.00    +0.381 N 
ATOM     10  C   UNL     1       3.130  -3.970   3.200  0.00  0.00    -0.078 C 
ATOM     11  C   UNL     1       1.828  -4.767   3.320  0.00  0.00    -0.015 C 
ATOM     12  C   UNL     1       0.824  -4.237   2.288  0.00  0.00    -0.007 C 
ATOM     13  C   UNL     1       0.591  -2.746   2.565  0.00  0.00    -0.013 C 
ATOM     14  C   UNL     1       1.936  -2.010   2.467  0.00  0.00    -0.086 C 
ATOM     15  H   UNL     1       3.876  -2.455   2.093  0.00  0.00    -0.082 HD
BRANCH  14  16
ATOM     16  C   UNL     1       1.857  -0.947   1.369  0.00  0.00    -0.098 C 
BRANCH  16  17
ATOM     17  N   UNL     1       3.172  -0.313   1.206  0.00  0.00    +0.378 N 
ATOM     18  H   UNL     1       3.486   0.044   2.096  0.00  0.00    -0.086 HD
ATOM     19  H   UNL     1       3.833  -0.994   0.865  0.00  0.00    -0.086 HD
BRANCH  17  20
ATOM     20  C   UNL     1       3.066   0.793   0.245  0.00  0.00    -0.079 C 
BRANCH  20  21
ATOM     21  C   UNL     1       4.456   1.375  -0.018  0.00  0.00    -0.028 C 
ATOM     22  C   UNL     1       4.704   2.827   0.396  0.00  0.00    +0.002 C 
ATOM     23  C   UNL     1       4.576   2.465  -1.085  0.00  0.00    +0.002 C 
ENDBRANCH  20  21
ENDBRANCH  17  20
ENDBRANCH  16  17
ENDBRANCH  14  16
ENDBRANCH   3   7
BRANCH   5  24
ATOM     24  C   UNL     1       0.684  -2.010  -3.302  0.00  0.00    +0.022 A 
ATOM     25  C   UNL     1       2.064  -1.863  -3.466  0.00  0.00    +0.031 A 
ATOM     26  C   UNL     1       2.539  -1.204  -4.582  0.00  0.00    +0.111 A 
ATOM     27  N   UNL     1       1.710  -0.716  -5.484  0.00  0.00    -0.263 NA
ATOM     28  C   UNL     1       0.402  -0.833  -5.367  0.00  0.00    +0.111 A 
ATOM     29  C   UNL     1      -0.158  -1.483  -4.285  0.00  0.00    +0.031 A 
ENDBRANCH   5  24
BRANCH   1  30
ATOM     30  C   UNL     1      -3.210  -3.595  -0.831  0.00  0.00    +0.037 C 
BRANCH  30  32
ATOM     31  C   UNL     1      -5.171  -5.045  -1.371  0.00  0.00    +0.004 C 
ATOM     32  C   UNL     1      -3.644  -4.962  -1.363  0.00  0.00    +0.006 C 
ENDBRANCH  30  32
BRANCH  30  33
ATOM     33  C   UNL     1      -3.610  -3.470   0.641  0.00  0.00    +0.006 C 
ATOM     34  C   UNL     1      -3.299  -2.057   1.137  0.00  0.00    +0.004 C 
ENDBRANCH  30  33
ENDBRANCH   1  30
TORSDOF 9
