REMARK  Name = ZINC02467928
REMARK  4 active torsions:
REMARK  status: ('A' for Active; 'I' for Inactive)
REMARK    1  A    between atoms: C_4  and  C_7
REMARK    2  A    between atoms: C_13  and  S_17
REMARK    3  A    between atoms: S_17  and  N_20
REMARK    4  A    between atoms: N_20  and  C_21
REMARK                            x       y       z     vdW  Elec       q    Type
REMARK                         _______ _______ _______ _____ _____    ______ ____
ROOT
ATOM      1  C   UNL     1       4.904   1.532  -3.754  0.00  0.00    +0.139 A 
ATOM      2  N   UNL     1       4.408   0.294  -3.449  0.00  0.00    -0.338 N 
ATOM      3  H   UNL     1       3.534  -0.051  -3.689  0.00  0.00    +0.167 HD
ATOM      4  C   UNL     1       5.385  -0.373  -2.735  0.00  0.00    +0.067 A 
ATOM      5  C   UNL     1       5.468  -1.635  -2.164  0.00  0.00    +0.030 A 
ATOM      6  C   UNL     1       6.617  -2.009  -1.498  0.00  0.00    +0.031 A 
ATOM      7  C   UNL     1       7.688  -1.133  -1.396  0.00  0.00    +0.111 A 
ATOM      8  C   UNL     1       7.624   0.114  -1.952  0.00  0.00    +0.058 A 
ATOM      9  C   UNL     1       6.470   0.515  -2.632  0.00  0.00    +0.091 A 
ATOM     10  N   UNL     1       6.118   1.654  -3.277  0.00  0.00    -0.228 NA
ENDROOT
BRANCH   1  14
ATOM     11  C   UNL     1       2.826   4.525  -5.939  0.00  0.00    +0.000 A 
ATOM     12  C   UNL     1       4.109   4.771  -5.483  0.00  0.00    +0.001 A 
ATOM     13  C   UNL     1       4.789   3.803  -4.773  0.00  0.00    +0.011 A 
ATOM     14  C   UNL     1       4.180   2.575  -4.514  0.00  0.00    +0.017 A 
ATOM     15  C   UNL     1       2.886   2.333  -4.977  0.00  0.00    +0.011 A 
ATOM     16  C   UNL     1       2.217   3.309  -5.686  0.00  0.00    +0.001 A 
ENDBRANCH   1  14
BRANCH   7  17
ATOM     17  S   UNL     1       9.145  -1.632  -0.540  0.00  0.00    +0.072 S 
ATOM     18  O   UNL     1       9.726  -0.452  -0.003  0.00  0.00    -0.150 OA
ATOM     19  O   UNL     1       8.779  -2.739   0.272  0.00  0.00    -0.150 OA
BRANCH  17  20
ATOM     20  N   UNL     1      10.206  -2.208  -1.674  0.00  0.00    -0.216 N 
ATOM     21  H   UNL     1      11.058  -1.764  -1.811  0.00  0.00    +0.174 HD
BRANCH  20  22
ATOM     22  C   UNL     1       9.874  -3.332  -2.435  0.00  0.00    +0.048 A 
ATOM     23  C   UNL     1       9.921  -4.597  -1.863  0.00  0.00    +0.026 A 
ATOM     24  C   UNL     1       9.592  -5.707  -2.617  0.00  0.00    +0.022 A 
ATOM     25  C   UNL     1       9.216  -5.559  -3.941  0.00  0.00    +0.041 A 
ATOM     26  C   UNL     1       9.168  -4.300  -4.512  0.00  0.00    +0.022 A 
ATOM     27  C   UNL     1       9.490  -3.186  -3.762  0.00  0.00    +0.026 A 
ATOM     28 CL   UNL     1       8.804  -6.956  -4.885  0.00  0.00    -0.084 Cl
ENDBRANCH  20  22
ENDBRANCH  17  20
ENDBRANCH   7  17
TORSDOF 4
