REMARK  Name = ZINC64052281
REMARK  11 active torsions:
REMARK  status: ('A' for Active; 'I' for Inactive)
REMARK    1  A    between atoms: C_1  and  C_2
REMARK    2  A    between atoms: C_2  and  C_4
REMARK    3  A    between atoms: C_2  and  O_33
REMARK    4  A    between atoms: C_4  and  C_6
REMARK    5  A    between atoms: C_4  and  N_21
REMARK    6  A    between atoms: C_6  and  O_8
REMARK    7  A    between atoms: O_8  and  C_9
REMARK    8  A    between atoms: C_9  and  C_10
REMARK    9  A    between atoms: C_10  and  C_12
REMARK   10  A    between atoms: N_21  and  S_22
REMARK   11  A    between atoms: S_22  and  C_25
REMARK                            x       y       z     vdW  Elec       q    Type
REMARK                         _______ _______ _______ _____ _____    ______ ____
ROOT
ATOM      1  C   UNL     1       0.806  -0.410   1.129  0.00  0.00    +0.213 C 
ENDROOT
BRANCH   1   3
ATOM      2  C   UNL     1       0.153   1.623  -0.167  0.00  0.00    +0.040 C 
ATOM      3  C   UNL     1       0.058   0.098  -0.105  0.00  0.00    +0.141 C 
BRANCH   3   4
ATOM      4  O   UNL     1      -1.315  -0.291  -0.024  0.00  0.00    -0.390 OA
ATOM      5  H   UNL     1      -1.776   0.055   0.752  0.00  0.00    +0.210 HD
ENDBRANCH   3   4
ENDBRANCH   1   3
BRANCH   1   6
ATOM      6  C   UNL     1       0.823  -1.917   1.121  0.00  0.00    +0.329 C 
ATOM      7  O   UNL     1       1.875  -2.510   1.101  0.00  0.00    -0.249 OA
BRANCH   6   8
ATOM      8  O   UNL     1      -0.332  -2.601   1.138  0.00  0.00    -0.455 OA
BRANCH   8   9
ATOM      9  C   UNL     1      -0.241  -4.027   1.129  0.00  0.00    +0.311 C 
BRANCH   9  10
ATOM     10  C   UNL     1      -1.627  -4.619   1.150  0.00  0.00    +0.199 C 
ATOM     11  O   UNL     1      -2.598  -3.890   1.170  0.00  0.00    -0.289 OA
BRANCH  10  12
ATOM     12  C   UNL     1      -1.797  -6.020   1.146  0.00  0.00    +0.026 C 
ATOM     13  C   UNL     1      -2.990  -6.718   1.157  0.00  0.00    +0.006 A 
ATOM     14  C   UNL     1      -4.345  -6.309   1.176  0.00  0.00    +0.010 A 
ATOM     15  C   UNL     1      -5.335  -7.229   1.185  0.00  0.00    +0.001 A 
ATOM     16  C   UNL     1      -5.080  -8.610   1.175  0.00  0.00    +0.002 A 
ATOM     17  C   UNL     1      -3.824  -9.105   1.158  0.00  0.00    +0.026 A 
ATOM     18  C   UNL     1      -2.686  -8.170   1.147  0.00  0.00    +0.043 A 
ATOM     19  N   UNL     1      -1.399  -8.367   1.131  0.00  0.00    -0.380 N 
ATOM     20  C   UNL     1      -0.710  -7.073   1.122  0.00  0.00    +0.152 C 
ATOM     21  H   UNL     1      -0.964  -9.234   1.121  0.00  0.00    +0.160 HD
ENDBRANCH  10  12
ENDBRANCH   9  10
ENDBRANCH   8   9
ENDBRANCH   6   8
ENDBRANCH   1   6
BRANCH   1  22
ATOM     22  N   UNL     1       2.181   0.094   1.108  0.00  0.00    -0.174 NA
ATOM     23  H   UNL     1       2.742  -0.060   0.332  0.00  0.00    +0.149 HD
BRANCH  22  24
ATOM     24  S   UNL     1       2.778   0.925   2.409  0.00  0.00    +0.059 S 
ATOM     25  O   UNL     1       4.124   1.257   2.097  0.00  0.00    -0.153 OA
ATOM     26  O   UNL     1       1.809   1.909   2.742  0.00  0.00    -0.153 OA
BRANCH  24  27
ATOM     27  C   UNL     1       2.838  -0.200   3.764  0.00  0.00    +0.107 A 
ATOM     28  C   UNL     1       1.747  -0.332   4.602  0.00  0.00    +0.030 A 
ATOM     29  C   UNL     1       1.793  -1.214   5.665  0.00  0.00    +0.023 A 
ATOM     30  C   UNL     1       2.931  -1.966   5.891  0.00  0.00    +0.059 A 
ATOM     31  C   UNL     1       4.025  -1.835   5.051  0.00  0.00    +0.061 A 
ATOM     32  C   UNL     1       3.975  -0.955   3.985  0.00  0.00    +0.050 A 
ATOM     33 CL   UNL     1       5.455  -2.778   5.334  0.00  0.00    -0.082 Cl
ATOM     34 CL   UNL     1       2.990  -3.074   7.226  0.00  0.00    -0.082 Cl
ENDBRANCH  24  27
ENDBRANCH  22  24
ENDBRANCH   1  22
TORSDOF 10
