REMARK  Name = ZINC34734743
REMARK  8 active torsions:
REMARK  status: ('A' for Active; 'I' for Inactive)
REMARK    1  A    between atoms: C_1  and  C_2
REMARK    2  A    between atoms: C_2  and  C_3
REMARK    3  A    between atoms: C_3  and  C_4
REMARK    4  A    between atoms: C_4  and  N_5
REMARK    5  A    between atoms: C_20  and  C_22
REMARK    6  A    between atoms: C_20  and  C_23
REMARK    7  A    between atoms: N_26  and  C_27
REMARK    8  A    between atoms: C_27  and  C_28
REMARK                            x       y       z     vdW  Elec       q    Type
REMARK                         _______ _______ _______ _____ _____    ______ ____
ROOT
ATOM      1  N   UNL     1       2.534  -1.599  -3.574  0.00  0.00    +0.382 N 
ATOM      2  C   UNL     1       3.635  -1.593  -4.546  0.00  0.00    -0.060 C 
ATOM      3  C   UNL     1       3.652  -2.924  -5.304  0.00  0.00    +0.089 C 
ATOM      4  N   UNL     1       3.714  -4.019  -4.324  0.00  0.00    -0.304 N 
ATOM      5  C   UNL     1       2.745  -4.013  -3.216  0.00  0.00    +0.089 C 
ATOM      6  C   UNL     1       2.770  -2.630  -2.556  0.00  0.00    -0.060 C 
ATOM      7  C   UNL     1       4.648  -5.018  -4.439  0.00  0.00    +0.202 A 
ATOM      8  N   UNL     1       5.913  -4.705  -4.628  0.00  0.00    -0.208 NA
ATOM      9  C   UNL     1       6.838  -5.651  -4.742  0.00  0.00    +0.118 A 
ATOM     10  C   UNL     1       6.522  -7.018  -4.670  0.00  0.00    +0.076 A 
ATOM     11  C   UNL     1       7.647  -7.939  -4.816  0.00  0.00    -0.018 A 
ATOM     12  C   UNL     1       8.868  -7.394  -5.003  0.00  0.00    +0.021 A 
ATOM     13  S   UNL     1       8.596  -5.645  -4.998  0.00  0.00    -0.071 S 
ATOM     14  C   UNL     1      10.155  -8.140  -5.175  0.00  0.00    +0.203 C 
ATOM     15  O   UNL     1       9.928  -9.506  -4.792  0.00  0.00    -0.368 OA
ATOM     16  C   UNL     1       8.758 -10.077  -5.384  0.00  0.00    +0.068 C 
ATOM     17  C   UNL     1       7.500  -9.458  -4.766  0.00  0.00    +0.071 C 
ATOM     18  C   UNL     1       8.768  -9.808  -6.890  0.00  0.00    +0.041 C 
ATOM     19  C   UNL     1       8.752 -11.587  -5.141  0.00  0.00    +0.041 C 
ATOM     20  C   UNL     1       5.140  -7.327  -4.463  0.00  0.00    +0.264 A 
ATOM     21  O   UNL     1       4.771  -8.486  -4.386  0.00  0.00    -0.267 OA
ATOM     22  N   UNL     1       4.254  -6.320  -4.350  0.00  0.00    -0.276 N 
ATOM     23  H   UNL     1       1.667  -1.793  -4.053  0.00  0.00    -0.082 HD
ENDROOT
BRANCH   1  24
ATOM     24  C   UNL     1       2.448  -0.284  -2.925  0.00  0.00    -0.079 C 
BRANCH  24  25
ATOM     25  C   UNL     1       2.078   0.775  -3.966  0.00  0.00    -0.019 C 
BRANCH  25  27
ATOM     26  C   UNL     1       1.620   3.204  -4.330  0.00  0.00    +0.004 C 
ATOM     27  C   UNL     1       1.990   2.145  -3.290  0.00  0.00    -0.005 C 
ENDBRANCH  25  27
ENDBRANCH  24  25
ENDBRANCH   1  24
BRANCH  22  28
ATOM     28  C   UNL     1       2.839  -6.630  -4.133  0.00  0.00    +0.163 C 
BRANCH  28  29
ATOM     29  C   UNL     1       2.151  -6.792  -5.464  0.00  0.00    -0.027 A 
ATOM     30  C   UNL     1       1.491  -5.720  -6.036  0.00  0.00    +0.007 A 
ATOM     31  C   UNL     1       0.859  -5.869  -7.256  0.00  0.00    +0.020 A 
ATOM     32  C   UNL     1       0.887  -7.090  -7.905  0.00  0.00    +0.041 A 
ATOM     33  C   UNL     1       1.547  -8.162  -7.332  0.00  0.00    +0.020 A 
ATOM     34  C   UNL     1       2.183  -8.011  -6.114  0.00  0.00    +0.007 A 
ATOM     35 CL   UNL     1       0.093  -7.277  -9.438  0.00  0.00    -0.084 Cl
ENDBRANCH  28  29
ENDBRANCH  22  28
TORSDOF 5
