REMARK  Name = ZINC43611705
REMARK  16 active torsions:
REMARK  status: ('A' for Active; 'I' for Inactive)
REMARK    1  A    between atoms: C_1  and  C_2
REMARK    2  A    between atoms: C_2  and  C_3
REMARK    3  A    between atoms: C_3  and  C_4
REMARK    4  A    between atoms: C_3  and  C_5
REMARK    5  A    between atoms: C_3  and  C_6
REMARK    6  A    between atoms: C_9  and  O_17
REMARK    7  A    between atoms: C_10  and  C_12
REMARK    8  A    between atoms: C_12  and  C_13
REMARK    9  A    between atoms: C_12  and  C_14
REMARK   10  A    between atoms: C_12  and  C_15
REMARK   11  A    between atoms: C_15  and  C_16
REMARK   12  A    between atoms: O_17  and  C_18
REMARK   13  A    between atoms: C_18  and  C_19
REMARK   14  A    between atoms: C_19  and  C_21
REMARK   15  A    between atoms: C_19  and  O_38
REMARK   16  A    between atoms: C_21  and  N_22
REMARK                            x       y       z     vdW  Elec       q    Type
REMARK                         _______ _______ _______ _____ _____    ______ ____
ROOT
ATOM      1  C   UNL     1       0.221  -8.311   0.329  0.00  0.00    +0.135 C 
ENDROOT
BRANCH   1   2
ATOM      2  O   UNL     1       1.605  -8.666   0.334  0.00  0.00    -0.390 OA
ATOM      3  H   UNL     1       2.078  -8.418  -0.472  0.00  0.00    +0.210 HD
ENDBRANCH   1   2
BRANCH   1   4
ATOM      4  C   UNL     1       0.084  -6.795   0.173  0.00  0.00    +0.258 C 
BRANCH   4   5
ATOM      5  O   UNL     1       0.635  -6.147   1.321  0.00  0.00    -0.489 OA
BRANCH   5   9
ATOM      6  C   UNL     1       0.506  -2.024   1.386  0.00  0.00    -0.041 A 
ATOM      7  C   UNL     1      -0.010  -2.714   0.305  0.00  0.00    +0.008 A 
ATOM      8  C   UNL     1       0.032  -4.094   0.280  0.00  0.00    +0.046 A 
ATOM      9  C   UNL     1       0.593  -4.789   1.342  0.00  0.00    +0.124 A 
ATOM     10  C   UNL     1       1.111  -4.095   2.426  0.00  0.00    +0.000 A 
ATOM     11  C   UNL     1       1.071  -2.713   2.443  0.00  0.00    +0.012 A 
BRANCH   6  12
ATOM     12  C   UNL     1       0.459  -0.518   1.410  0.00  0.00    -0.010 C 
ATOM     13  C   UNL     1       1.883   0.036   1.496  0.00  0.00    +0.016 C 
ATOM     14  C   UNL     1      -0.343  -0.052   2.627  0.00  0.00    +0.016 C 
BRANCH  12  16
ATOM     15  C   UNL     1      -0.259   1.521   0.157  0.00  0.00    +0.005 C 
ATOM     16  C   UNL     1      -0.211  -0.008   0.133  0.00  0.00    +0.007 C 
ENDBRANCH  12  16
ENDBRANCH   6  12
BRANCH  10  17
ATOM     17  C   UNL     1       1.721  -4.846   3.581  0.00  0.00    -0.007 C 
ATOM     18  C   UNL     1       2.211  -3.851   4.635  0.00  0.00    +0.016 C 
ATOM     19  C   UNL     1       0.670  -5.769   4.202  0.00  0.00    +0.016 C 
BRANCH  17  20
ATOM     20  C   UNL     1       2.901  -5.681   3.080  0.00  0.00    +0.008 C 
ATOM     21  C   UNL     1       3.520  -6.444   4.253  0.00  0.00    +0.005 C 
ENDBRANCH  17  20
ENDBRANCH  10  17
ENDBRANCH   5   9
ENDBRANCH   4   5
ENDBRANCH   1   4
BRANCH   1  22
ATOM     22  C   UNL     1      -0.480  -9.009  -0.839  0.00  0.00    -0.044 C 
BRANCH  22  23
ATOM     23  N   UNL     1      -0.364 -10.464  -0.680  0.00  0.00    +0.382 N 
ATOM     24  C   UNL     1      -1.109 -10.886   0.510  0.00  0.00    -0.074 C 
ATOM     25  C   UNL     1      -1.018 -12.391   0.711  0.00  0.00    -0.007 C 
ATOM     26  C   UNL     1      -1.511 -13.135  -0.533  0.00  0.00    +0.011 C 
ATOM     27  C   UNL     1      -0.676 -12.643  -1.722  0.00  0.00    +0.020 C 
ATOM     28  C   UNL     1      -0.910 -11.131  -1.872  0.00  0.00    -0.069 C 
ATOM     29  C   UNL     1       0.789 -12.862  -1.421  0.00  0.00    +0.023 A 
ATOM     30  C   UNL     1       1.623 -13.068  -2.474  0.00  0.00    +0.022 A 
ATOM     31  C   UNL     1       3.000 -13.213  -2.273  0.00  0.00    +0.007 A 
ATOM     32  C   UNL     1       3.494 -13.119  -1.005  0.00  0.00    +0.070 A 
ATOM     33  C   UNL     1       2.607 -12.902   0.059  0.00  0.00    +0.251 A 
ATOM     34  O   UNL     1       3.044 -12.754   1.189  0.00  0.00    -0.268 OA
ATOM     35  N   UNL     1       1.269 -12.854  -0.155  0.00  0.00    -0.312 N 
ATOM     36  C   UNL     1       0.403 -12.834   1.020  0.00  0.00    +0.126 C 
ATOM     37  H   UNL     1       0.608 -10.714  -0.572  0.00  0.00    -0.082 HD
ENDBRANCH  22  23
ENDBRANCH   1  22
TORSDOF 10
