REMARK  Name = ZINC39640060
REMARK  9 active torsions:
REMARK  status: ('A' for Active; 'I' for Inactive)
REMARK    1  A    between atoms: C_1  and  C_2
REMARK    2  A    between atoms: C_2  and  C_23
REMARK    3  A    between atoms: N_5  and  C_9
REMARK    4  A    between atoms: C_9  and  C_10
REMARK    5  A    between atoms: N_12  and  C_13
REMARK    6  A    between atoms: C_23  and  C_24
REMARK    7  A    between atoms: C_24  and  C_25
REMARK    8  A    between atoms: C_28  and  O_31
REMARK    9  A    between atoms: O_31  and  C_32
REMARK                            x       y       z     vdW  Elec       q    Type
REMARK                         _______ _______ _______ _____ _____    ______ ____
ROOT
ATOM      1  C   UNL     1      -0.019   1.526   0.010  0.00  0.00    +0.041 C 
ATOM      2  C   UNL     1       0.002  -0.004   0.002  0.00  0.00    +0.110 C 
ATOM      3  C   UNL     1       0.815  -0.520  -1.169  0.00  0.00    +0.247 C 
ATOM      4  O   UNL     1       0.595  -0.342  -2.348  0.00  0.00    -0.273 OA
ATOM      5  N   UNL     1       1.833  -1.217  -0.627  0.00  0.00    -0.215 N 
ATOM      6  C   UNL     1       1.777  -1.214   0.710  0.00  0.00    +0.310 C 
ATOM      7  O   UNL     1       2.586  -1.776   1.421  0.00  0.00    -0.252 OA
ATOM      8  N   UNL     1       0.724  -0.519   1.178  0.00  0.00    -0.285 N 
ATOM      9  H   UNL     1       0.487  -0.383   2.109  0.00  0.00    +0.151 HD
ENDROOT
BRANCH   5  10
ATOM     10  C   UNL     1       2.871  -1.896  -1.406  0.00  0.00    +0.213 C 
BRANCH  10  11
ATOM     11  C   UNL     1       4.020  -0.950  -1.644  0.00  0.00    +0.231 C 
ATOM     12  O   UNL     1       3.975   0.180  -1.206  0.00  0.00    -0.274 OA
ATOM     13  N   UNL     1       5.097  -1.360  -2.343  0.00  0.00    -0.308 N 
ATOM     14  H   UNL     1       5.133  -2.264  -2.693  0.00  0.00    +0.149 HD
BRANCH  13  15
ATOM     15  C   UNL     1       6.213  -0.440  -2.574  0.00  0.00    +0.035 C 
ATOM     16  C   UNL     1       5.715   0.783  -3.346  0.00  0.00    +0.029 C 
ATOM     17  C   UNL     1       6.881   1.744  -3.587  0.00  0.00    -0.008 C 
ATOM     18  C   UNL     1       7.966   1.035  -4.401  0.00  0.00    +0.007 C 
ATOM     19  C   UNL     1       8.464  -0.188  -3.628  0.00  0.00    -0.008 C 
ATOM     20  C   UNL     1       7.298  -1.149  -3.387  0.00  0.00    +0.029 C 
ATOM     21  C   UNL     1       9.044   0.258  -2.285  0.00  0.00    +0.007 C 
ATOM     22  C   UNL     1       7.959   0.967  -1.472  0.00  0.00    -0.008 C 
ATOM     23  C   UNL     1       7.460   2.191  -2.244  0.00  0.00    +0.007 C 
ATOM     24  C   UNL     1       6.793   0.007  -1.230  0.00  0.00    +0.029 C 
ENDBRANCH  13  15
ENDBRANCH  10  11
ENDBRANCH   5  10
BRANCH   2  25
ATOM     25  C   UNL     1      -1.423  -0.560  -0.041  0.00  0.00    +0.039 C 
BRANCH  25  26
ATOM     26  C   UNL     1      -2.200  -0.066   1.182  0.00  0.00    +0.038 C 
BRANCH  26  27
ATOM     27  C   UNL     1      -3.603  -0.614   1.140  0.00  0.00    -0.047 A 
ATOM     28  C   UNL     1      -4.602   0.096   0.499  0.00  0.00    +0.007 A 
ATOM     29  C   UNL     1      -5.889  -0.403   0.460  0.00  0.00    +0.046 A 
ATOM     30  C   UNL     1      -6.179  -1.619   1.063  0.00  0.00    +0.127 A 
ATOM     31  C   UNL     1      -5.175  -2.329   1.704  0.00  0.00    +0.046 A 
ATOM     32  C   UNL     1      -3.888  -1.828   1.737  0.00  0.00    +0.007 A 
BRANCH  30  33
ATOM     33  O   UNL     1      -7.445  -2.112   1.026  0.00  0.00    -0.434 OA
BRANCH  33  34
ATOM     34  C   UNL     1      -7.671  -3.369   1.668  0.00  0.00    +0.541 C 
ATOM     35  F   UNL     1      -6.868  -4.347   1.072  0.00  0.00    -0.166 F 
ATOM     36  F   UNL     1      -7.348  -3.264   3.025  0.00  0.00    -0.166 F 
ENDBRANCH  33  34
ENDBRANCH  30  33
ENDBRANCH  26  27
ENDBRANCH  25  26
ENDBRANCH   2  25
TORSDOF 8
