REMARK  Name = ZINC00276887
REMARK  4 active torsions:
REMARK  status: ('A' for Active; 'I' for Inactive)
REMARK    1  A    between atoms: C_1  and  C_2
REMARK    2  A    between atoms: C_5  and  N_8
REMARK    3  A    between atoms: C_17  and  C_18
REMARK    4  A    between atoms: C_17  and  O_24
REMARK                            x       y       z     vdW  Elec       q    Type
REMARK                         _______ _______ _______ _____ _____    ______ ____
ROOT
ATOM      1  N   UNL     1       0.059  -4.169  -0.021  0.00  0.00    -0.228 N 
ATOM      2  C   UNL     1       0.069  -4.946  -1.118  0.00  0.00    +0.254 C 
ATOM      3  O   UNL     1       0.063  -4.533  -2.261  0.00  0.00    -0.270 OA
ATOM      4  C   UNL     1       0.089  -6.370  -0.736  0.00  0.00    +0.045 A 
ATOM      5  C   UNL     1       0.104  -7.546  -1.489  0.00  0.00    +0.013 A 
ATOM      6  C   UNL     1       0.121  -8.769  -0.851  0.00  0.00    +0.001 A 
ATOM      7  C   UNL     1       0.122  -8.837   0.531  0.00  0.00    +0.000 A 
ATOM      8  C   UNL     1       0.106  -7.675   1.285  0.00  0.00    +0.009 A 
ATOM      9  C   UNL     1       0.090  -6.450   0.659  0.00  0.00    +0.022 A 
ATOM     10  C   UNL     1       0.076  -5.030   1.167  0.00  0.00    +0.224 C 
ENDROOT
BRANCH   1  15
ATOM     11  C   UNL     1      -0.018   1.503   0.010  0.00  0.00    +0.044 C 
ATOM     12  C   UNL     1       0.002  -0.004   0.002  0.00  0.00    -0.050 A 
ATOM     13  C   UNL     1       0.006  -0.687  -1.200  0.00  0.00    +0.005 A 
ATOM     14  C   UNL     1       0.025  -2.068  -1.211  0.00  0.00    +0.024 A 
ATOM     15  C   UNL     1       0.040  -2.771  -0.013  0.00  0.00    +0.040 A 
ATOM     16  C   UNL     1       0.037  -2.081   1.192  0.00  0.00    +0.024 A 
ATOM     17  C   UNL     1       0.023  -0.700   1.197  0.00  0.00    +0.005 A 
ENDBRANCH   1  15
BRANCH  10  18
ATOM     18  C   UNL     1      -1.159  -4.792   1.998  0.00  0.00    +0.141 A 
ATOM     19  N   UNL     1      -2.172  -4.010   1.663  0.00  0.00    -0.346 N 
ATOM     20  H   UNL     1      -2.247  -3.494   0.846  0.00  0.00    +0.167 HD
ATOM     21  C   UNL     1      -3.085  -4.054   2.656  0.00  0.00    +0.101 A 
ATOM     22  C   UNL     1      -2.606  -4.882   3.606  0.00  0.00    +0.101 A 
ATOM     23  N   UNL     1      -1.409  -5.335   3.178  0.00  0.00    -0.346 N 
ATOM     24  H   UNL     1      -0.832  -5.952   3.654  0.00  0.00    +0.167 HD
ENDBRANCH  10  18
BRANCH  10  25
ATOM     25  O   UNL     1       1.248  -4.772   1.943  0.00  0.00    -0.361 OA
ATOM     26  H   UNL     1       1.317  -5.311   2.743  0.00  0.00    +0.213 HD
ENDBRANCH  10  25
TORSDOF 3
