REMARK  Name = ZINC45534384
REMARK  9 active torsions:
REMARK  status: ('A' for Active; 'I' for Inactive)
REMARK    1  A    between atoms: C_1  and  C_2
REMARK    2  A    between atoms: C_2  and  C_3
REMARK    3  A    between atoms: C_2  and  C_4
REMARK    4  A    between atoms: C_4  and  C_6
REMARK    5  A    between atoms: C_4  and  N_25
REMARK    6  A    between atoms: C_6  and  N_7
REMARK    7  A    between atoms: N_10  and  N_11
REMARK    8  A    between atoms: C_12  and  C_14
REMARK    9  A    between atoms: C_14  and  C_15
REMARK                            x       y       z     vdW  Elec       q    Type
REMARK                         _______ _______ _______ _____ _____    ______ ____
ROOT
ATOM      1  N   UNL     1      -3.417  -0.677  -1.339  0.00  0.00    -0.300 N 
ATOM      2  C   UNL     1      -4.131  -0.599  -2.480  0.00  0.00    +0.316 C 
ATOM      3  O   UNL     1      -3.629  -0.122  -3.479  0.00  0.00    -0.251 OA
ATOM      4  N   UNL     1      -5.401  -1.050  -2.513  0.00  0.00    -0.218 N 
ATOM      5  H   UNL     1      -3.818  -1.057  -0.542  0.00  0.00    +0.150 HD
ATOM      6  H   UNL     1      -5.914  -0.994  -3.334  0.00  0.00    +0.174 HD
ENDROOT
BRANCH   4   7
ATOM      7  N   UNL     1      -5.979  -1.599  -1.361  0.00  0.00    -0.233 N 
ATOM      8  C   UNL     1      -7.249  -2.049  -1.394  0.00  0.00    +0.234 C 
ATOM      9  O   UNL     1      -7.891  -1.979  -2.421  0.00  0.00    -0.274 OA
ATOM     10  H   UNL     1      -5.466  -1.655  -0.540  0.00  0.00    +0.173 HD
BRANCH   8  11
ATOM     11  C   UNL     1      -7.871  -2.640  -0.155  0.00  0.00    +0.134 C 
BRANCH  11  12
ATOM     12  C   UNL     1      -9.286  -3.063  -0.456  0.00  0.00    -0.014 A 
ATOM     13  C   UNL     1     -10.398  -2.342  -0.246  0.00  0.00    +0.087 A 
ATOM     14  N   UNL     1     -11.497  -3.053  -0.642  0.00  0.00    -0.360 N 
ATOM     15  H   UNL     1     -12.413  -2.738  -0.587  0.00  0.00    +0.165 HD
ATOM     16  C   UNL     1     -11.110  -4.281  -1.129  0.00  0.00    +0.047 A 
ATOM     17  C   UNL     1      -9.707  -4.339  -1.041  0.00  0.00    +0.003 A 
ATOM     18  C   UNL     1      -9.029  -5.479  -1.474  0.00  0.00    +0.010 A 
ATOM     19  C   UNL     1      -9.732  -6.534  -1.986  0.00  0.00    +0.001 A 
ATOM     20  C   UNL     1     -11.115  -6.479  -2.080  0.00  0.00    +0.002 A 
ATOM     21  C   UNL     1     -11.806  -5.367  -1.649  0.00  0.00    +0.026 A 
ENDBRANCH  11  12
ENDBRANCH   8  11
ENDBRANCH   4   7
BRANCH   1  22
ATOM     22  C   UNL     1      -2.037  -0.187  -1.303  0.00  0.00    +0.091 C 
BRANCH  22  23
ATOM     23  C   UNL     1      -1.406  -0.538   0.045  0.00  0.00    -0.048 C 
BRANCH  23  24
ATOM     24  N   UNL     1      -1.176  -1.987   0.116  0.00  0.00    +0.383 N 
ATOM     25  C   UNL     1      -0.325  -2.387  -1.021  0.00  0.00    -0.078 C 
ATOM     26  C   UNL     1       0.394  -3.660  -0.649  0.00  0.00    -0.019 C 
ATOM     27  C   UNL     1      -0.347  -4.901  -1.181  0.00  0.00    -0.002 C 
ATOM     28  C   UNL     1      -1.875  -4.769  -1.018  0.00  0.00    -0.002 C 
ATOM     29  C   UNL     1      -2.261  -4.162   0.306  0.00  0.00    -0.019 C 
ATOM     30  C   UNL     1      -2.412  -2.636   0.137  0.00  0.00    -0.078 C 
ATOM     31  H   UNL     1      -0.687  -2.195   0.974  0.00  0.00    -0.081 HD
ENDBRANCH  23  24
BRANCH  23  33
ATOM     32  C   UNL     1      -0.326   1.705   0.252  0.00  0.00    +0.005 C 
ATOM     33  C   UNL     1      -0.073   0.198   0.192  0.00  0.00    -0.029 C 
ATOM     34  C   UNL     1       0.621  -0.254   1.478  0.00  0.00    +0.005 C 
ENDBRANCH  23  33
ENDBRANCH  22  23
ENDBRANCH   1  22
TORSDOF 7
