REMARK  Name = ZINC36682651
REMARK  3 active torsions:
REMARK  status: ('A' for Active; 'I' for Inactive)
REMARK    1  A    between atoms: C_6  and  C_7
REMARK    2  A    between atoms: C_7  and  C_8
REMARK    3  A    between atoms: C_14  and  C_16
REMARK                            x       y       z     vdW  Elec       q    Type
REMARK                         _______ _______ _______ _____ _____    ______ ____
ROOT
ATOM      1  C   UNL     1      -1.739  -1.022  -1.408  0.00  0.00    +0.225 C 
ATOM      2  O   UNL     1      -1.070  -0.615  -2.334  0.00  0.00    -0.275 OA
ATOM      3  N   UNL     1      -2.881  -1.698  -1.647  0.00  0.00    -0.238 N 
ATOM      4  C   UNL     1      -3.290  -1.927  -2.951  0.00  0.00    +0.314 A 
ATOM      5  N   UNL     1      -2.663  -1.549  -4.038  0.00  0.00    -0.092 NA
ATOM      6  N   UNL     1      -3.329  -1.930  -5.071  0.00  0.00    -0.106 NA
ATOM      7  C   UNL     1      -4.407  -2.567  -4.683  0.00  0.00    +0.251 A 
ATOM      8  O   UNL     1      -4.402  -2.583  -3.333  0.00  0.00    -0.405 OA
ATOM      9  H   UNL     1      -3.416  -2.024  -0.906  0.00  0.00    +0.159 HD
ENDROOT
BRANCH   7  10
ATOM     10  C   UNL     1      -5.436  -3.162  -5.561  0.00  0.00    +0.057 A 
ATOM     11  C   UNL     1      -6.542  -3.809  -5.007  0.00  0.00    +0.016 A 
ATOM     12  C   UNL     1      -7.499  -4.362  -5.832  0.00  0.00    +0.021 A 
ATOM     13  C   UNL     1      -7.365  -4.278  -7.208  0.00  0.00    +0.042 A 
ATOM     14  C   UNL     1      -6.271  -3.638  -7.765  0.00  0.00    +0.040 A 
ATOM     15  C   UNL     1      -5.308  -3.075  -6.950  0.00  0.00    +0.055 A 
ATOM     16 CL   UNL     1      -3.940  -2.267  -7.649  0.00  0.00    -0.083 Cl
ATOM     17 CL   UNL     1      -8.573  -4.978  -8.239  0.00  0.00    -0.083 Cl
ENDBRANCH   7  10
BRANCH   1  18
ATOM     18  C   UNL     1      -1.294  -0.774   0.010  0.00  0.00    +0.131 C 
BRANCH  18  24
ATOM     19  C   UNL     1      -0.017   1.378   0.010  0.00  0.00    +0.008 A 
ATOM     20  C   UNL     1       1.170   2.088   0.002  0.00  0.00    +0.050 A 
ATOM     21  C   UNL     1       2.380   1.416  -0.013  0.00  0.00    +0.166 A 
ATOM     22  C   UNL     1       2.399   0.023  -0.021  0.00  0.00    +0.166 A 
ATOM     23  C   UNL     1       1.207  -0.682  -0.014  0.00  0.00    +0.053 A 
ATOM     24  C   UNL     1       0.002  -0.004   0.002  0.00  0.00    -0.035 A 
ATOM     25  O   UNL     1       3.698  -0.395  -0.036  0.00  0.00    -0.453 OA
ATOM     26  C   UNL     1       4.466   0.750  -0.450  0.00  0.00    +0.466 C 
ATOM     27  O   UNL     1       3.668   1.870  -0.024  0.00  0.00    -0.453 OA
ENDBRANCH  18  24
ENDBRANCH   1  18
TORSDOF 3
