REMARK  Name = ZINC08686657
REMARK  15 active torsions:
REMARK  status: ('A' for Active; 'I' for Inactive)
REMARK    1  A    between atoms: C_1  and  C_2
REMARK    2  A    between atoms: C_2  and  C_3
REMARK    3  A    between atoms: C_3  and  C_4
REMARK    4  A    between atoms: C_4  and  S_5
REMARK    5  A    between atoms: S_5  and  C_6
REMARK    6  A    between atoms: C_6  and  S_27
REMARK    7  A    between atoms: C_7  and  C_25
REMARK    8  A    between atoms: C_8  and  C_24
REMARK    9  A    between atoms: C_9  and  C_23
REMARK   10  A    between atoms: C_10  and  C_17
REMARK   11  A    between atoms: C_12  and  C_15
REMARK   12  A    between atoms: S_27  and  C_28
REMARK   13  A    between atoms: C_28  and  C_29
REMARK   14  A    between atoms: C_29  and  C_30
REMARK   15  A    between atoms: C_30  and  C_31
REMARK                            x       y       z     vdW  Elec       q    Type
REMARK                         _______ _______ _______ _____ _____    ______ ____
ROOT
ATOM      1  C   UNL     1       1.465   2.249  -0.463  0.00  0.00    +0.157 C 
ATOM      2  C   UNL     1       0.212   1.941   0.385  0.00  0.00    +0.148 C 
ATOM      3  C   UNL     1      -1.014   2.503  -0.235  0.00  0.00    -0.032 C 
ATOM      4  C   UNL     1      -1.656   3.552   0.211  0.00  0.00    -0.014 C 
ATOM      5  C   UNL     1       0.135   4.019   1.847  0.00  0.00    +0.113 C 
ATOM      6  C   UNL     1       0.589   2.575   1.727  0.00  0.00    +0.156 C 
ATOM      7  C   UNL     1       2.109   2.545   1.716  0.00  0.00    +0.092 C 
ATOM      8  N   UNL     1       2.899   2.686   2.827  0.00  0.00    -0.347 N 
ATOM      9  C   UNL     1      -2.890   4.035  -0.507  0.00  0.00    +0.059 C 
ATOM     10  C   UNL     1      -1.558   1.819  -1.462  0.00  0.00    +0.042 C 
ATOM     11  H   UNL     1       3.865   2.656   2.742  0.00  0.00    +0.143 HD
ATOM     12  H   UNL     1       2.492   2.814   3.698  0.00  0.00    +0.143 HD
ATOM     13  N   UNL     1      -1.262   4.274   1.375  0.00  0.00    -0.401 NA
ATOM     14  H   UNL     1      -1.905   4.023   2.134  0.00  0.00    +0.124 HD
ATOM     15  H   UNL     1      -1.349   5.276   1.169  0.00  0.00    +0.124 HD
ATOM     16  N   UNL     1       2.569   2.370   0.515  0.00  0.00    -0.351 N 
ATOM     17  H   UNL     1       3.566   2.322   0.276  0.00  0.00    +0.163 HD
ENDROOT
BRANCH   5  18
ATOM     18  C   UNL     1       1.087   4.896   1.075  0.00  0.00    -0.027 A 
ATOM     19  C   UNL     1       2.415   4.973   1.451  0.00  0.00    +0.005 A 
ATOM     20  C   UNL     1       3.289   5.773   0.740  0.00  0.00    +0.000 A 
ATOM     21  C   UNL     1       2.833   6.504  -0.341  0.00  0.00    +0.000 A 
ATOM     22  C   UNL     1       1.504   6.431  -0.714  0.00  0.00    +0.000 A 
ATOM     23  C   UNL     1       0.631   5.627  -0.006  0.00  0.00    +0.005 A 
ENDBRANCH   5  18
BRANCH   6  24
ATOM     24  C   UNL     1       0.068   1.765   2.841  0.00  0.00    +0.081 C 
ATOM     25  N   UNL     1      -0.334   1.140   3.700  0.00  0.00    -0.195 NA
ENDBRANCH   6  24
BRANCH   2  26
ATOM     26  C   UNL     1       0.065   0.486   0.546  0.00  0.00    +0.080 C 
ATOM     27  N   UNL     1      -0.048  -0.638   0.670  0.00  0.00    -0.195 NA
ENDBRANCH   2  26
BRANCH   1  28
ATOM     28  S   UNL     1       1.800   0.887  -1.613  0.00  0.00    -0.120 S 
BRANCH  28  29
ATOM     29  C   UNL     1       3.332   1.385  -2.448  0.00  0.00    +0.072 C 
BRANCH  29  30
ATOM     30  C   UNL     1       3.662   0.379  -3.552  0.00  0.00    +0.010 C 
BRANCH  30  32
ATOM     31  C   UNL     1       5.284  -0.208  -5.360  0.00  0.00    +0.004 C 
ATOM     32  C   UNL     1       4.954   0.799  -4.256  0.00  0.00    -0.003 C 
ENDBRANCH  30  32
ENDBRANCH  29  30
ENDBRANCH  28  29
ENDBRANCH   1  28
BRANCH   1  33
ATOM     33  S   UNL     1       1.250   3.806  -1.368  0.00  0.00    -0.120 S 
BRANCH  33  34
ATOM     34  C   UNL     1       0.792   3.281  -3.043  0.00  0.00    +0.072 C 
BRANCH  34  35
ATOM     35  C   UNL     1       0.719   4.505  -3.958  0.00  0.00    +0.010 C 
BRANCH  35  36
ATOM     36  C   UNL     1       0.216   4.079  -5.339  0.00  0.00    -0.003 C 
ATOM     37  C   UNL     1       0.143   5.302  -6.255  0.00  0.00    +0.004 C 
ENDBRANCH  35  36
ENDBRANCH  34  35
ENDBRANCH  33  34
ENDBRANCH   1  33
TORSDOF 11
