REMARK  Name = ZINC39897106
REMARK  13 active torsions:
REMARK  status: ('A' for Active; 'I' for Inactive)
REMARK    1  A    between atoms: C_1  and  C_2
REMARK    2  A    between atoms: C_2  and  C_3
REMARK    3  A    between atoms: C_3  and  C_4
REMARK    4  A    between atoms: C_4  and  C_5
REMARK    5  A    between atoms: C_8  and  C_11
REMARK    6  A    between atoms: C_11  and  C_12
REMARK    7  A    between atoms: N_16  and  C_32
REMARK    8  A    between atoms: C_18  and  C_19
REMARK    9  A    between atoms: C_18  and  C_21
REMARK   10  A    between atoms: N_23  and  C_24
REMARK   11  A    between atoms: C_29  and  C_30
REMARK   12  A    between atoms: C_35  and  C_39
REMARK   13  A    between atoms: C_36  and  C_38
REMARK                            x       y       z     vdW  Elec       q    Type
REMARK                         _______ _______ _______ _____ _____    ______ ____
ROOT
ATOM      1  C   UNL     1       4.048  -3.084  -6.521  0.00  0.00    +0.143 C 
ATOM      2  C   UNL     1       4.543  -3.513  -7.894  0.00  0.00    +0.238 C 
ATOM      3  O   UNL     1       4.094  -4.483  -8.466  0.00  0.00    -0.274 OA
ATOM      4  N   UNL     1       5.493  -2.761  -8.423  0.00  0.00    -0.232 N 
ATOM      5  C   UNL     1       6.008  -1.660  -7.784  0.00  0.00    +0.098 C 
ATOM      6  C   UNL     1       7.004  -0.791  -8.232  0.00  0.00    +0.142 C 
ATOM      7  S   UNL     1       5.103  -1.601  -6.243  0.00  0.00    -0.095 S 
ENDROOT
BRANCH   4   8
ATOM      8  C   UNL     1       5.994  -3.101  -9.687  0.00  0.00    +0.042 A 
ATOM      9  C   UNL     1       7.094  -3.943  -9.796  0.00  0.00    +0.024 A 
ATOM     10  C   UNL     1       7.585  -4.276 -11.043  0.00  0.00    +0.005 A 
ATOM     11  C   UNL     1       6.984  -3.772 -12.182  0.00  0.00    -0.047 A 
ATOM     12  C   UNL     1       5.889  -2.935 -12.076  0.00  0.00    -0.046 A 
ATOM     13  C   UNL     1       5.389  -2.602 -10.832  0.00  0.00    +0.027 A 
ATOM     14  C   UNL     1       5.237  -2.389 -13.320  0.00  0.00    +0.044 C 
ATOM     15  C   UNL     1       7.524  -4.138 -13.541  0.00  0.00    +0.044 C 
ENDBRANCH   4   8
BRANCH   6  16
ATOM     16  C   UNL     1       7.320   0.415  -7.468  0.00  0.00    +0.261 C 
ATOM     17  O   UNL     1       6.714   0.661  -6.440  0.00  0.00    -0.269 OA
ATOM     18  N   UNL     1       8.281   1.254  -7.900  0.00  0.00    -0.281 N 
ATOM     19  H   UNL     1       8.717   1.095  -8.752  0.00  0.00    +0.155 HD
BRANCH  18  20
ATOM     20  C   UNL     1       8.650   2.356  -7.122  0.00  0.00    +0.037 A 
ATOM     21  C   UNL     1       7.707   2.992  -6.324  0.00  0.00    +0.023 A 
ATOM     22  C   UNL     1       8.075   4.079  -5.557  0.00  0.00    +0.002 A 
ATOM     23  C   UNL     1       9.381   4.535  -5.581  0.00  0.00    +0.000 A 
ATOM     24  C   UNL     1      10.322   3.904  -6.373  0.00  0.00    +0.005 A 
ATOM     25  C   UNL     1       9.962   2.812  -7.139  0.00  0.00    -0.029 A 
ATOM     26  C   UNL     1      10.990   2.121  -7.997  0.00  0.00    +0.045 C 
ENDBRANCH  18  20
ENDBRANCH   6  16
BRANCH   6  27
ATOM     27  C   UNL     1       7.716  -1.080  -9.440  0.00  0.00    +0.107 C 
ATOM     28  N   UNL     1       8.281  -1.309 -10.399  0.00  0.00    -0.191 NA
ENDBRANCH   6  27
BRANCH   1  29
ATOM     29  C   UNL     1       4.320  -4.162  -5.471  0.00  0.00    +0.059 C 
BRANCH  29  33
ATOM     30  C   UNL     1       2.819  -2.876  -1.684  0.00  0.00    -0.047 A 
ATOM     31  C   UNL     1       2.005  -3.590  -2.544  0.00  0.00    +0.004 A 
ATOM     32  C   UNL     1       2.491  -4.006  -3.770  0.00  0.00    +0.004 A 
ATOM     33  C   UNL     1       3.790  -3.708  -4.136  0.00  0.00    -0.046 A 
ATOM     34  C   UNL     1       4.604  -2.994  -3.276  0.00  0.00    +0.004 A 
ATOM     35  C   UNL     1       4.117  -2.574  -2.052  0.00  0.00    +0.004 A 
BRANCH  30  36
ATOM     36  C   UNL     1       2.290  -2.422  -0.348  0.00  0.00    +0.035 C 
BRANCH  36  37
ATOM     37  C   UNL     1       1.654  -1.038  -0.495  0.00  0.00    +0.004 C 
BRANCH  37  39
ATOM     38  C   UNL     1       0.481   0.806   0.715  0.00  0.00    +0.004 C 
ATOM     39  C   UNL     1       1.117  -0.578   0.861  0.00  0.00    -0.003 C 
ENDBRANCH  37  39
ENDBRANCH  36  37
ENDBRANCH  30  36
ENDBRANCH  29  33
ENDBRANCH   1  29
TORSDOF 9
