REMARK  Name = ZINC15229805
REMARK  5 active torsions:
REMARK  status: ('A' for Active; 'I' for Inactive)
REMARK    1  A    between atoms: C_4  and  C_7
REMARK    2  A    between atoms: C_7  and  N_8
REMARK    3  A    between atoms: C_13  and  C_30
REMARK    4  A    between atoms: C_30  and  C_31
REMARK    5  A    between atoms: C_34  and  O_37
REMARK                            x       y       z     vdW  Elec       q    Type
REMARK                         _______ _______ _______ _____ _____    ______ ____
ROOT
ATOM      1  N   UNL     1       4.152  -0.952   1.338  0.00  0.00    -0.237 N 
ATOM      2  C   UNL     1       4.930  -0.084   2.050  0.00  0.00    +0.227 C 
ATOM      3  O   UNL     1       5.589   0.836   1.615  0.00  0.00    -0.275 OA
ATOM      4  C   UNL     1       4.798  -0.508   3.488  0.00  0.00    +0.107 C 
ATOM      5  C   UNL     1       6.033  -0.513   4.388  0.00  0.00    +0.072 C 
ATOM      6  N   UNL     1       5.960  -1.798   5.149  0.00  0.00    -0.295 NA
ATOM      7  C   UNL     1       4.862  -2.618   4.546  0.00  0.00    +0.136 C 
ATOM      8  C   UNL     1       4.714  -2.061   3.192  0.00  0.00    +0.122 C 
ATOM      9  C   UNL     1       3.823  -2.077   2.053  0.00  0.00    +0.229 C 
ATOM     10  O   UNL     1       2.975  -2.902   1.787  0.00  0.00    -0.275 OA
ATOM     11  C   UNL     1       5.229  -4.076   4.606  0.00  0.00    +0.003 A 
ATOM     12  C   UNL     1       6.249  -4.817   4.053  0.00  0.00    +0.008 A 
ATOM     13  C   UNL     1       6.327  -6.177   4.296  0.00  0.00    +0.000 A 
ATOM     14  C   UNL     1       5.377  -6.789   5.094  0.00  0.00    +0.002 A 
ATOM     15  C   UNL     1       4.353  -6.050   5.649  0.00  0.00    +0.023 A 
ATOM     16  C   UNL     1       4.268  -4.680   5.410  0.00  0.00    +0.039 A 
ATOM     17  N   UNL     1       3.343  -3.733   5.853  0.00  0.00    -0.283 N 
ATOM     18  C   UNL     1       3.620  -2.498   5.391  0.00  0.00    +0.243 C 
ATOM     19  O   UNL     1       2.991  -1.486   5.614  0.00  0.00    -0.273 OA
ATOM     20  H   UNL     1       6.840  -2.290   5.114  0.00  0.00    +0.124 HD
ATOM     21  H   UNL     1       2.588  -3.940   6.425  0.00  0.00    +0.155 HD
ENDROOT
BRANCH   1  22
ATOM     22  C   UNL     1       3.711  -0.707  -0.038  0.00  0.00    +0.151 C 
BRANCH  22  26
ATOM     23  C   UNL     1      -0.017   1.378   0.010  0.00  0.00    +0.000 A 
ATOM     24  C   UNL     1       1.171   2.086   0.002  0.00  0.00    +0.000 A 
ATOM     25  C   UNL     1       2.377   1.411  -0.013  0.00  0.00    +0.005 A 
ATOM     26  C   UNL     1       2.396   0.029  -0.020  0.00  0.00    -0.030 A 
ATOM     27  C   UNL     1       1.208  -0.679  -0.012  0.00  0.00    +0.005 A 
ATOM     28  C   UNL     1       0.002  -0.004   0.002  0.00  0.00    +0.000 A 
ENDBRANCH  22  26
ENDBRANCH   1  22
BRANCH   5  29
ATOM     29  C   UNL     1       7.306  -0.468   3.541  0.00  0.00    +0.054 C 
BRANCH  29  30
ATOM     30  C   UNL     1       8.506  -0.349   4.445  0.00  0.00    -0.046 A 
ATOM     31  C   UNL     1       8.975   0.899   4.810  0.00  0.00    +0.007 A 
ATOM     32  C   UNL     1      10.075   1.010   5.638  0.00  0.00    +0.045 A 
ATOM     33  C   UNL     1      10.710  -0.132   6.104  0.00  0.00    +0.117 A 
ATOM     34  C   UNL     1      10.237  -1.384   5.736  0.00  0.00    +0.045 A 
ATOM     35  C   UNL     1       9.134  -1.490   4.912  0.00  0.00    +0.007 A 
BRANCH  33  36
ATOM     36  O   UNL     1      11.792  -0.026   6.918  0.00  0.00    -0.507 OA
ATOM     37  H   UNL     1      11.575  -0.002   7.860  0.00  0.00    +0.292 HD
ENDBRANCH  33  36
ENDBRANCH  29  30
ENDBRANCH   5  29
TORSDOF 5
