REMARK  Name = ZINC00812653
REMARK  5 active torsions:
REMARK  status: ('A' for Active; 'I' for Inactive)
REMARK    1  A    between atoms: C_4  and  C_7
REMARK    2  A    between atoms: C_8  and  C_28
REMARK    3  A    between atoms: C_11  and  S_13
REMARK    4  A    between atoms: S_13  and  C_14
REMARK    5  A    between atoms: C_14  and  C_15
REMARK                            x       y       z     vdW  Elec       q    Type
REMARK                         _______ _______ _______ _____ _____    ______ ____
ROOT
ATOM      1  C   UNL     1      -2.898  12.004  -1.455  0.00  0.00    +0.102 A 
ATOM      2  C   UNL     1      -1.721  12.425  -0.804  0.00  0.00    +0.119 A 
ATOM      3  N   UNL     1      -0.875  11.508  -0.347  0.00  0.00    -0.145 NA
ATOM      4  N   UNL     1      -1.130  10.255  -0.493  0.00  0.00    -0.122 NA
ATOM      5  C   UNL     1      -2.230   9.835  -1.108  0.00  0.00    +0.210 A 
ATOM      6  N   UNL     1      -3.117  10.698  -1.588  0.00  0.00    -0.218 NA
ENDROOT
BRANCH   1  10
ATOM      7  C   UNL     1      -5.686  14.839  -2.957  0.00  0.00    +0.000 A 
ATOM      8  C   UNL     1      -5.474  13.653  -3.638  0.00  0.00    +0.001 A 
ATOM      9  C   UNL     1      -4.570  12.729  -3.155  0.00  0.00    +0.010 A 
ATOM     10  C   UNL     1      -3.870  12.992  -1.979  0.00  0.00    +0.003 A 
ATOM     11  C   UNL     1      -4.091  14.187  -1.294  0.00  0.00    +0.010 A 
ATOM     12  C   UNL     1      -4.993  15.105  -1.790  0.00  0.00    +0.001 A 
ENDBRANCH   1  10
BRANCH   2  13
ATOM     13  C   UNL     1      -1.432  13.868  -0.632  0.00  0.00    +0.004 A 
ATOM     14  C   UNL     1      -1.801  14.779  -1.621  0.00  0.00    +0.010 A 
ATOM     15  C   UNL     1      -1.534  16.122  -1.453  0.00  0.00    +0.001 A 
ATOM     16  C   UNL     1      -0.891  16.565  -0.310  0.00  0.00    +0.000 A 
ATOM     17  C   UNL     1      -0.518  15.665   0.672  0.00  0.00    +0.001 A 
ATOM     18  C   UNL     1      -0.785  14.320   0.518  0.00  0.00    +0.010 A 
ENDBRANCH   2  13
BRANCH   5  19
ATOM     19  S   UNL     1      -2.519   8.106  -1.284  0.00  0.00    -0.075 S 
BRANCH  19  20
ATOM     20  C   UNL     1      -1.036   7.456  -0.475  0.00  0.00    +0.173 C 
BRANCH  20  21
ATOM     21  C   UNL     1      -1.066   5.950  -0.506  0.00  0.00    +0.231 C 
ATOM     22  O   UNL     1      -1.998   5.372  -1.024  0.00  0.00    -0.274 OA
ATOM     23  N   UNL     1      -0.057   5.244   0.042  0.00  0.00    -0.260 N 
ATOM     24  C   UNL     1       1.085   5.920   0.676  0.00  0.00    +0.209 C 
ATOM     25  C   UNL     1       2.356   5.212   0.281  0.00  0.00    +0.235 C 
ATOM     26  O   UNL     1       3.395   5.835   0.221  0.00  0.00    -0.274 OA
ATOM     27  N   UNL     1       2.353   3.897  -0.004  0.00  0.00    -0.283 N 
ATOM     28  C   UNL     1       1.160   3.165   0.009  0.00  0.00    +0.055 A 
ATOM     29  C   UNL     1      -0.062   3.840   0.026  0.00  0.00    +0.058 A 
ATOM     30  C   UNL     1      -1.249   3.131   0.032  0.00  0.00    +0.025 A 
ATOM     31  C   UNL     1      -1.221   1.747   0.017  0.00  0.00    +0.002 A 
ATOM     32  C   UNL     1      -0.013   1.076   0.008  0.00  0.00    +0.002 A 
ATOM     33  C   UNL     1       1.178   1.780   0.000  0.00  0.00    +0.025 A 
ATOM     34  H   UNL     1       3.186   3.451  -0.222  0.00  0.00    +0.155 HD
ENDBRANCH  20  21
ENDBRANCH  19  20
ENDBRANCH   5  19
TORSDOF 5
