REMARK  Name = ZINC63375361
REMARK  6 active torsions:
REMARK  status: ('A' for Active; 'I' for Inactive)
REMARK    1  A    between atoms: C_1  and  C_2
REMARK    2  A    between atoms: C_4  and  C_35
REMARK    3  A    between atoms: C_5  and  N_9
REMARK    4  A    between atoms: C_6  and  C_8
REMARK    5  A    between atoms: C_12  and  C_19
REMARK    6  A    between atoms: N_33  and  C_34
REMARK                            x       y       z     vdW  Elec       q    Type
REMARK                         _______ _______ _______ _____ _____    ______ ____
ROOT
ATOM      1  N   UNL     1       0.059  -4.172  -0.021  0.00  0.00    -0.228 N 
ATOM      2  C   UNL     1      -1.103  -4.856  -0.024  0.00  0.00    +0.270 A 
ATOM      3  O   UNL     1      -2.166  -4.260  -0.020  0.00  0.00    -0.267 OA
ATOM      4  C   UNL     1      -1.079  -6.262  -0.032  0.00  0.00    +0.101 A 
ATOM      5  C   UNL     1       0.124  -6.904  -0.037  0.00  0.00    +0.263 A 
ATOM      6  N   UNL     1       1.282  -6.169  -0.033  0.00  0.00    -0.274 N 
ATOM      7  H   UNL     1       2.140  -6.621  -0.037  0.00  0.00    +0.173 HD
ATOM      8  C   UNL     1       1.236  -4.824  -0.031  0.00  0.00    +0.337 A 
ATOM      9  O   UNL     1       2.272  -4.189  -0.033  0.00  0.00    -0.246 OA
ATOM     10  O   UNL     1       0.174  -8.253  -0.044  0.00  0.00    -0.267 OA
ENDROOT
BRANCH   4  11
ATOM     11  C   UNL     1      -2.365  -7.047  -0.035  0.00  0.00    +0.124 C 
ATOM     12  C   UNL     1      -3.130  -6.778  -1.333  0.00  0.00    +0.128 C 
ATOM     13  C   UNL     1      -4.482  -7.467  -1.181  0.00  0.00    -0.035 C 
ATOM     14  C   UNL     1      -4.619  -8.261  -2.234  0.00  0.00    -0.001 A 
ATOM     15  C   UNL     1      -5.734  -9.108  -2.687  0.00  0.00    +0.010 A 
ATOM     16  C   UNL     1      -5.525  -9.816  -3.828  0.00  0.00    +0.001 A 
ATOM     17  C   UNL     1      -4.332  -9.767  -4.556  0.00  0.00    +0.002 A 
ATOM     18  C   UNL     1      -3.257  -9.011  -4.217  0.00  0.00    +0.026 A 
ATOM     19  C   UNL     1      -3.359  -8.217  -3.038  0.00  0.00    +0.043 A 
ATOM     20  N   UNL     1      -2.490  -7.383  -2.500  0.00  0.00    -0.376 N 
ATOM     21  C   UNL     1      -5.342  -7.262   0.042  0.00  0.00    +0.049 C 
ATOM     22  C   UNL     1      -4.413  -7.443   1.256  0.00  0.00    +0.089 C 
ATOM     23  N   UNL     1      -3.207  -6.625   1.095  0.00  0.00    -0.296 NA
ATOM     24  C   UNL     1      -2.430  -6.580   2.341  0.00  0.00    +0.105 C 
ATOM     25  H   UNL     1      -1.589  -7.202  -2.811  0.00  0.00    +0.160 HD
ENDBRANCH   4  11
BRANCH   1  30
ATOM     26  C   UNL     1      -0.018   1.503   0.010  0.00  0.00    +0.044 C 
ATOM     27  C   UNL     1       0.002  -0.004   0.002  0.00  0.00    -0.050 A 
ATOM     28  C   UNL     1       0.006  -0.688  -1.200  0.00  0.00    +0.008 A 
ATOM     29  C   UNL     1       0.025  -2.068  -1.211  0.00  0.00    -0.026 A 
ATOM     30  C   UNL     1       0.040  -2.771  -0.013  0.00  0.00    +0.060 A 
ATOM     31  C   UNL     1       0.037  -2.082   1.192  0.00  0.00    -0.026 A 
ATOM     32  C   UNL     1       0.023  -0.700   1.196  0.00  0.00    +0.008 A 
ATOM     33  C   UNL     1       0.054  -2.840   2.494  0.00  0.00    +0.046 C 
ATOM     34  C   UNL     1       0.028  -2.812  -2.522  0.00  0.00    +0.046 C 
ENDBRANCH   1  30
TORSDOF 2
