REMARK  Name = ZINC28581336
REMARK  12 active torsions:
REMARK  status: ('A' for Active; 'I' for Inactive)
REMARK    1  A    between atoms: C_1  and  C_2
REMARK    2  A    between atoms: C_6  and  C_8
REMARK    3  A    between atoms: N_10  and  C_11
REMARK    4  A    between atoms: C_11  and  C_13
REMARK    5  A    between atoms: C_11  and  C_16
REMARK    6  A    between atoms: C_13  and  C_14
REMARK    7  A    between atoms: C_13  and  C_15
REMARK    8  A    between atoms: N_18  and  N_19
REMARK    9  A    between atoms: C_20  and  C_22
REMARK   10  A    between atoms: C_22  and  O_23
REMARK   11  A    between atoms: O_23  and  C_24
REMARK   12  A    between atoms: C_29  and  C_30
REMARK                            x       y       z     vdW  Elec       q    Type
REMARK                         _______ _______ _______ _____ _____    ______ ____
ROOT
ATOM      1  C   UNL     1       2.343   8.000  -0.580  0.00  0.00    +0.250 C 
ATOM      2  O   UNL     1       3.185   7.226  -0.982  0.00  0.00    -0.272 OA
ATOM      3  N   UNL     1       2.547   9.329  -0.679  0.00  0.00    -0.233 N 
ATOM      4  H   UNL     1       1.783  10.031  -0.315  0.00  0.00    +0.173 HD
ENDROOT
BRANCH   3   5
ATOM      5  N   UNL     1       3.732   9.815  -1.246  0.00  0.00    -0.232 N 
ATOM      6  C   UNL     1       3.937  11.143  -1.346  0.00  0.00    +0.267 C 
ATOM      7  O   UNL     1       3.094  11.918  -0.944  0.00  0.00    -0.271 OA
ATOM      8  H   UNL     1       4.497   9.112  -1.610  0.00  0.00    +0.173 HD
BRANCH   6   9
ATOM      9  C   UNL     1       5.212  11.666  -1.955  0.00  0.00    +0.326 C 
BRANCH   9  10
ATOM     10  O   UNL     1       5.192  13.095  -1.948  0.00  0.00    -0.482 OA
BRANCH  10  11
ATOM     11  C   UNL     1       6.276  13.729  -2.466  0.00  0.00    +0.129 A 
ATOM     12  C   UNL     1       7.336  12.994  -2.972  0.00  0.00    +0.046 A 
ATOM     13  C   UNL     1       8.438  13.640  -3.499  0.00  0.00    +0.004 A 
ATOM     14  C   UNL     1       8.490  15.023  -3.526  0.00  0.00    +0.001 A 
ATOM     15  C   UNL     1       7.441  15.768  -3.027  0.00  0.00    +0.012 A 
ATOM     16  C   UNL     1       6.323  15.126  -2.497  0.00  0.00    +0.024 A 
BRANCH  16  17
ATOM     17  C   UNL     1       5.191  15.922  -1.964  0.00  0.00    -0.014 A 
ATOM     18  C   UNL     1       3.887  15.642  -2.370  0.00  0.00    +0.008 A 
ATOM     19  C   UNL     1       2.837  16.382  -1.867  0.00  0.00    +0.001 A 
ATOM     20  C   UNL     1       3.077  17.407  -0.970  0.00  0.00    +0.000 A 
ATOM     21  C   UNL     1       4.369  17.693  -0.568  0.00  0.00    +0.001 A 
ATOM     22  C   UNL     1       5.427  16.956  -1.060  0.00  0.00    +0.008 A 
ENDBRANCH  16  17
ENDBRANCH  10  11
ENDBRANCH   9  10
ENDBRANCH   6   9
ENDBRANCH   3   5
BRANCH   1  23
ATOM     23  C   UNL     1       1.068   7.478   0.030  0.00  0.00    +0.163 C 
BRANCH  23  26
ATOM     24  C   UNL     1      -0.070   5.323   0.029  0.00  0.00    +0.245 C 
ATOM     25  O   UNL     1      -1.131   5.916   0.042  0.00  0.00    -0.270 OA
ATOM     26  N   UNL     1       1.088   6.013   0.022  0.00  0.00    -0.300 N 
ATOM     27  H   UNL     1       2.048   5.476   0.010  0.00  0.00    +0.150 HD
BRANCH  24  33
ATOM     28  C   UNL     1      -2.514   0.972   0.020  0.00  0.00    +0.044 C 
ATOM     29  C   UNL     1      -1.222   1.748   0.017  0.00  0.00    -0.050 A 
ATOM     30  C   UNL     1      -0.013   1.076   0.008  0.00  0.00    +0.003 A 
ATOM     31  C   UNL     1       1.178   1.781   0.000  0.00  0.00    +0.001 A 
ATOM     32  C   UNL     1       1.166   3.160   0.007  0.00  0.00    +0.013 A 
ATOM     33  C   UNL     1      -0.050   3.845   0.022  0.00  0.00    +0.037 A 
ATOM     34  C   UNL     1      -1.248   3.127   0.030  0.00  0.00    +0.016 A 
ENDBRANCH  24  33
ENDBRANCH  23  26
BRANCH  23  35
ATOM     35  C   UNL     1       0.949   7.979   1.470  0.00  0.00    +0.012 C 
ATOM     36  C   UNL     1      -0.346   7.448   2.090  0.00  0.00    +0.009 C 
ATOM     37  C   UNL     1       2.145   7.481   2.284  0.00  0.00    +0.009 C 
ENDBRANCH  23  35
ENDBRANCH   1  23
TORSDOF 9
