REMARK  Name = ZINC07171519
REMARK  7 active torsions:
REMARK  status: ('A' for Active; 'I' for Inactive)
REMARK    1  A    between atoms: C_1  and  C_2
REMARK    2  A    between atoms: C_9  and  C_13
REMARK    3  A    between atoms: C_13  and  O_14
REMARK    4  A    between atoms: O_14  and  C_15
REMARK    5  A    between atoms: C_15  and  C_17
REMARK    6  A    between atoms: C_17  and  C_18
REMARK    7  A    between atoms: C_18  and  N_19
REMARK                            x       y       z     vdW  Elec       q    Type
REMARK                         _______ _______ _______ _____ _____    ______ ____
ROOT
ATOM      1  C   UNL     1       1.728  -6.004   1.358  0.00  0.00    +0.309 C 
ATOM      2  O   UNL     1       2.119  -6.740   0.482  0.00  0.00    -0.251 OA
ENDROOT
BRANCH   1   3
ATOM      3  O   UNL     1       1.813  -4.673   1.204  0.00  0.00    -0.458 OA
BRANCH   3   4
ATOM      4  C   UNL     1       2.384  -4.189  -0.041  0.00  0.00    +0.287 C 
BRANCH   4  13
ATOM      5  C   UNL     1      -1.289  -0.781   0.010  0.00  0.00    +0.047 C 
ATOM      6  C   UNL     1       0.002  -0.004   0.002  0.00  0.00    -0.008 A 
ATOM      7  C   UNL     1      -0.016   1.359   0.009  0.00  0.00    +0.008 A 
ATOM      8  C   UNL     1       1.194   2.067   0.002  0.00  0.00    +0.019 A 
ATOM      9  C   UNL     1       2.370   1.401  -0.014  0.00  0.00    +0.096 A 
ATOM     10  N   UNL     1       2.400   0.040  -0.021  0.00  0.00    -0.268 N 
ATOM     11  C   UNL     1       1.236  -0.679  -0.013  0.00  0.00    +0.144 A 
ATOM     12  N   UNL     1       1.257  -2.011  -0.021  0.00  0.00    -0.230 NA
ATOM     13  C   UNL     1       2.397  -2.682  -0.034  0.00  0.00    +0.086 A 
ATOM     14  C   UNL     1       3.600  -2.003  -0.043  0.00  0.00    +0.097 A 
ATOM     15  C   UNL     1       3.587  -0.603  -0.036  0.00  0.00    +0.259 A 
ATOM     16  O   UNL     1       4.633   0.027  -0.043  0.00  0.00    -0.267 OA
ENDBRANCH   4  13
ENDBRANCH   3   4
ENDBRANCH   1   3
BRANCH   1  17
ATOM     17  C   UNL     1       1.147  -6.580   2.623  0.00  0.00    +0.140 C 
BRANCH  17  18
ATOM     18  C   UNL     1       1.167  -8.108   2.543  0.00  0.00    +0.129 C 
BRANCH  18  19
ATOM     19  N   UNL     1       0.602  -8.669   3.773  0.00  0.00    -0.224 N 
ATOM     20  C   UNL     1      -0.708  -8.948   3.949  0.00  0.00    +0.247 C 
ATOM     21  O   UNL     1      -1.607  -8.790   3.151  0.00  0.00    -0.273 OA
ATOM     22  C   UNL     1      -0.813  -9.498   5.348  0.00  0.00    +0.113 C 
ATOM     23  C   UNL     1      -1.371 -10.928   5.338  0.00  0.00    +0.035 C 
ATOM     24  C   UNL     1      -2.228 -11.005   6.628  0.00  0.00    +0.003 C 
ATOM     25  C   UNL     1      -2.865  -9.594   6.704  0.00  0.00    +0.003 C 
ATOM     26  C   UNL     1      -1.748  -8.647   6.211  0.00  0.00    +0.035 C 
ATOM     27  N   UNL     1       0.559  -9.470   5.858  0.00  0.00    -0.285 N 
ATOM     28  C   UNL     1       1.320  -8.973   4.862  0.00  0.00    +0.309 C 
ATOM     29  O   UNL     1       2.523  -8.816   4.944  0.00  0.00    -0.252 OA
ATOM     30  H   UNL     1       0.861  -9.755   6.734  0.00  0.00    +0.151 HD
ENDBRANCH  18  19
ENDBRANCH  17  18
ENDBRANCH   1  17
TORSDOF 6
