REMARK  Name = ZINC35781193
REMARK  14 active torsions:
REMARK  status: ('A' for Active; 'I' for Inactive)
REMARK    1  A    between atoms: C_1  and  C_2
REMARK    2  A    between atoms: C_2  and  C_3
REMARK    3  A    between atoms: C_3  and  N_4
REMARK    4  A    between atoms: N_4  and  C_5
REMARK    5  A    between atoms: N_4  and  C_24
REMARK    6  A    between atoms: C_5  and  C_6
REMARK    7  A    between atoms: C_7  and  C_18
REMARK    8  A    between atoms: C_10  and  N_11
REMARK    9  A    between atoms: N_14  and  C_17
REMARK   10  A    between atoms: C_24  and  C_25
REMARK   11  A    between atoms: C_25  and  C_27
REMARK   12  A    between atoms: C_25  and  O_31
REMARK   13  A    between atoms: C_27  and  C_28
REMARK   14  A    between atoms: C_28  and  C_29
REMARK                            x       y       z     vdW  Elec       q    Type
REMARK                         _______ _______ _______ _____ _____    ______ ____
ROOT
ATOM      1  C   UNL     1      -2.268  -1.948  -2.222  0.00  0.00    +0.025 A 
ATOM      2  C   UNL     1      -2.910  -0.765  -2.644  0.00  0.00    +0.117 A 
ATOM      3  N   UNL     1      -3.059  -0.828  -3.947  0.00  0.00    -0.076 NA
ATOM      4  O   UNL     1      -2.515  -2.058  -4.391  0.00  0.00    -0.339 OA
ATOM      5  C   UNL     1      -2.038  -2.713  -3.319  0.00  0.00    +0.222 A 
ENDROOT
BRANCH   5   6
ATOM      6  N   UNL     1      -1.422  -3.951  -3.331  0.00  0.00    -0.303 N 
ATOM      7  C   UNL     1      -2.214  -5.190  -3.287  0.00  0.00    +0.089 C 
ATOM      8  C   UNL     1      -1.741  -6.110  -4.418  0.00  0.00    -0.060 C 
ATOM      9  N   UNL     1      -0.291  -6.313  -4.308  0.00  0.00    +0.380 N 
ATOM     10  C   UNL     1       0.409  -5.039  -4.515  0.00  0.00    -0.060 C 
ATOM     11  C   UNL     1       0.043  -4.067  -3.395  0.00  0.00    +0.089 C 
ATOM     12  C   UNL     1       0.144  -7.280  -5.325  0.00  0.00    -0.096 C 
ATOM     13  H   UNL     1      -0.071  -6.671  -3.391  0.00  0.00    -0.082 HD
ENDBRANCH   5   6
BRANCH   2  14
ATOM     14  C   UNL     1      -3.340   0.355  -1.769  0.00  0.00    +0.004 A 
ATOM     15  C   UNL     1      -3.974   0.091  -0.557  0.00  0.00    +0.010 A 
ATOM     16  C   UNL     1      -4.371   1.136   0.253  0.00  0.00    +0.001 A 
ATOM     17  C   UNL     1      -4.141   2.443  -0.138  0.00  0.00    +0.000 A 
ATOM     18  C   UNL     1      -3.513   2.710  -1.340  0.00  0.00    +0.001 A 
ATOM     19  C   UNL     1      -3.106   1.673  -2.155  0.00  0.00    +0.010 A 
ENDBRANCH   2  14
BRANCH   1  20
ATOM     20  C   UNL     1      -1.899  -2.298  -0.803  0.00  0.00    -0.035 C 
BRANCH  20  21
ATOM     21  N   UNL     1      -0.492  -1.950  -0.564  0.00  0.00    +0.384 N 
ATOM     22  H   UNL     1       0.092  -2.434  -1.229  0.00  0.00    -0.081 HD
BRANCH  21  23
ATOM     23  C   UNL     1      -0.313  -0.500  -0.720  0.00  0.00    -0.079 C 
BRANCH  23  25
ATOM     24  C   UNL     1       1.374   1.333  -0.908  0.00  0.00    +0.002 C 
ATOM     25  C   UNL     1       1.174  -0.155  -0.615  0.00  0.00    -0.022 C 
ENDBRANCH  23  25
ENDBRANCH  21  23
BRANCH  21  26
ATOM     26  C   UNL     1      -0.115  -2.346   0.800  0.00  0.00    -0.047 C 
BRANCH  26  27
ATOM     27  C   UNL     1      -0.135  -3.872   0.911  0.00  0.00    +0.098 C 
BRANCH  27  28
ATOM     28  O   UNL     1      -1.482  -4.339   0.817  0.00  0.00    -0.394 OA
ATOM     29  H   UNL     1      -2.067  -3.994   1.506  0.00  0.00    +0.210 HD
ENDBRANCH  27  28
BRANCH  27  30
ATOM     30  C   UNL     1       0.457  -4.293   2.258  0.00  0.00    +0.033 C 
BRANCH  30  31
ATOM     31  C   UNL     1       0.552  -5.818   2.319  0.00  0.00    +0.029 C 
BRANCH  31  32
ATOM     32  C   UNL     1       1.136  -6.233   3.645  0.00  0.00    -0.034 C 
ATOM     33  C   UNL     1       0.489  -7.077   4.410  0.00  0.00    +0.004 C 
ENDBRANCH  31  32
ENDBRANCH  30  31
ENDBRANCH  27  30
ENDBRANCH  26  27
ENDBRANCH  21  26
ENDBRANCH  20  21
ENDBRANCH   1  20
TORSDOF 12
