REMARK  Name = ZINC01245315
REMARK  13 active torsions:
REMARK  status: ('A' for Active; 'I' for Inactive)
REMARK    1  A    between atoms: C_1  and  C_2
REMARK    2  A    between atoms: C_2  and  O_3
REMARK    3  A    between atoms: O_3  and  C_4
REMARK    4  A    between atoms: C_4  and  C_6
REMARK    5  A    between atoms: C_6  and  C_7
REMARK    6  A    between atoms: C_8  and  C_28
REMARK    7  A    between atoms: C_20  and  C_24
REMARK    8  A    between atoms: C_21  and  N_23
REMARK    9  A    between atoms: C_24  and  O_26
REMARK   10  A    between atoms: O_26  and  C_27
REMARK   11  A    between atoms: C_28  and  O_30
REMARK   12  A    between atoms: O_30  and  C_31
REMARK   13  A    between atoms: C_31  and  C_32
REMARK                            x       y       z     vdW  Elec       q    Type
REMARK                         _______ _______ _______ _____ _____    ______ ____
ROOT
ATOM      1  C   UNL     1       0.058  -3.493   1.236  0.00  0.00    +0.129 C 
ATOM      2  C   UNL     1       1.139  -2.707   1.133  0.00  0.00    +0.099 C 
ATOM      3  C   UNL     1       1.588  -2.187  -0.202  0.00  0.00    +0.145 C 
ATOM      4  C   UNL     1       1.270  -0.719  -0.331  0.00  0.00    -0.001 A 
ATOM      5  C   UNL     1       0.091  -0.007  -0.313  0.00  0.00    +0.022 A 
ATOM      6  C   UNL     1       0.113   1.369  -0.461  0.00  0.00    +0.018 A 
ATOM      7  C   UNL     1       1.321   2.025  -0.625  0.00  0.00    +0.017 A 
ATOM      8  C   UNL     1       2.503   1.314  -0.642  0.00  0.00    +0.025 A 
ATOM      9  C   UNL     1       2.489  -0.072  -0.496  0.00  0.00    +0.038 A 
ATOM     10  N   UNL     1       3.533  -0.998  -0.482  0.00  0.00    -0.284 N 
ATOM     11  C   UNL     1       3.093  -2.258  -0.315  0.00  0.00    +0.237 C 
ATOM     12  O   UNL     1       3.774  -3.260  -0.266  0.00  0.00    -0.274 OA
ATOM     13 BR   UNL     1      -1.504   2.350  -0.445  0.00  0.00    -0.050 Br
ATOM     14  C   UNL     1       0.942  -2.965  -1.312  0.00  0.00    +0.117 C 
ATOM     15  C   UNL     1      -0.142  -3.748  -1.063  0.00  0.00    +0.195 C 
ATOM     16  O   UNL     1      -0.670  -3.850   0.168  0.00  0.00    -0.445 OA
ATOM     17  H   UNL     1       4.468  -0.761  -0.581  0.00  0.00    +0.155 HD
ENDROOT
BRANCH  15  18
ATOM     18  N   UNL     1      -0.709  -4.449  -2.093  0.00  0.00    -0.329 N 
ATOM     19  H   UNL     1      -0.146  -4.878  -2.755  0.00  0.00    +0.145 HD
ATOM     20  H   UNL     1      -1.675  -4.516  -2.160  0.00  0.00    +0.145 HD
ENDBRANCH  15  18
BRANCH  14  21
ATOM     21  C   UNL     1       1.459  -2.883  -2.614  0.00  0.00    +0.341 C 
ATOM     22  O   UNL     1       0.876  -3.426  -3.536  0.00  0.00    -0.245 OA
BRANCH  21  23
ATOM     23  O   UNL     1       2.602  -2.202  -2.845  0.00  0.00    -0.465 OA
ATOM     24  C   UNL     1       3.071  -2.160  -4.194  0.00  0.00    +0.280 C 
ENDBRANCH  21  23
ENDBRANCH  14  21
BRANCH   2  25
ATOM     25  C   UNL     1       1.866  -2.362   2.299  0.00  0.00    +0.340 C 
ATOM     26  O   UNL     1       1.584  -2.874   3.366  0.00  0.00    -0.245 OA
BRANCH  25  27
ATOM     27  O   UNL     1       2.872  -1.465   2.226  0.00  0.00    -0.462 OA
BRANCH  27  28
ATOM     28  C   UNL     1       3.562  -1.165   3.441  0.00  0.00    +0.229 C 
ATOM     29  C   UNL     1       4.661  -0.136   3.162  0.00  0.00    +0.048 C 
ENDBRANCH  27  28
ENDBRANCH  25  27
ENDBRANCH   2  25
BRANCH   1  30
ATOM     30  C   UNL     1      -0.353  -3.992   2.597  0.00  0.00    +0.195 C 
BRANCH  30  31
ATOM     31  C   UNL     1       0.469  -5.203   2.957  0.00  0.00    +0.314 C 
ATOM     32  O   UNL     1       1.302  -5.618   2.188  0.00  0.00    -0.250 OA
BRANCH  31  33
ATOM     33  O   UNL     1       0.274  -5.820   4.133  0.00  0.00    -0.465 OA
BRANCH  33  35
ATOM     34  C   UNL     1       0.739  -7.545   5.788  0.00  0.00    +0.048 C 
ATOM     35  C   UNL     1       1.101  -6.980   4.413  0.00  0.00    +0.229 C 
ENDBRANCH  33  35
ENDBRANCH  31  33
ENDBRANCH  30  31
ENDBRANCH   1  30
TORSDOF 10
