REMARK  Name = ZINC13526457
REMARK  2 active torsions:
REMARK  status: ('A' for Active; 'I' for Inactive)
REMARK    1  A    between atoms: C_4  and  C_8
REMARK    2  A    between atoms: C_9  and  C_10
REMARK                            x       y       z     vdW  Elec       q    Type
REMARK                         _______ _______ _______ _____ _____    ______ ____
ROOT
ATOM      1  C   UNL     1       0.662   3.400   0.013  0.00  0.00    +0.200 A 
ATOM      2  N   UNL     1      -0.682   3.456   0.026  0.00  0.00    -0.342 N 
ATOM      3  H   UNL     1      -1.243   4.285   0.039  0.00  0.00    +0.167 HD
ATOM      4  C   UNL     1      -1.144   2.151   0.018  0.00  0.00    +0.096 A 
ATOM      5  C   UNL     1      -0.016   1.347   0.009  0.00  0.00    +0.238 A 
ATOM      6  N   UNL     1       1.049   2.150   0.004  0.00  0.00    -0.208 NA
ATOM      7  F   UNL     1       0.002  -0.004   0.002  0.00  0.00    -0.182 F 
ENDROOT
BRANCH   4   8
ATOM      8  C   UNL     1      -2.492   1.725   0.022  0.00  0.00    +0.037 C 
ATOM      9  C   UNL     1      -3.494   2.643   0.031  0.00  0.00    +0.098 C 
BRANCH   9  10
ATOM     10  C   UNL     1      -4.840   2.218   0.034  0.00  0.00    +0.380 C 
ATOM     11  O   UNL     1      -5.103   1.030   0.030  0.00  0.00    -0.241 OA
ATOM     12  O   UNL     1      -5.836   3.130   0.043  0.00  0.00    -0.241 OA
ENDBRANCH   9  10
ENDBRANCH   4   8
TORSDOF 2
