REMARK  Name = ZINC64986540
REMARK  4 active torsions:
REMARK  status: ('A' for Active; 'I' for Inactive)
REMARK    1  A    between atoms: C_12  and  S_25
REMARK    2  A    between atoms: C_13  and  O_17
REMARK    3  A    between atoms: O_17  and  C_18
REMARK    4  A    between atoms: S_25  and  N_28
REMARK                            x       y       z     vdW  Elec       q    Type
REMARK                         _______ _______ _______ _____ _____    ______ ____
ROOT
ATOM      1  C   UNL     1       0.331   1.736  -0.257  0.00  0.00    +0.002 A 
ATOM      2  C   UNL     1       1.597   2.286  -0.340  0.00  0.00    +0.004 A 
ATOM      3  C   UNL     1       2.709   1.469  -0.273  0.00  0.00    +0.048 A 
ATOM      4  C   UNL     1       2.562   0.097  -0.131  0.00  0.00    +0.150 A 
ATOM      5  C   UNL     1       1.291  -0.460  -0.069  0.00  0.00    +0.076 A 
ATOM      6  C   UNL     1       0.176   0.371  -0.120  0.00  0.00    +0.027 A 
ATOM      7  N   UNL     1       1.100  -1.839   0.008  0.00  0.00    -0.278 N 
ATOM      8  C   UNL     1       1.822  -2.691   0.721  0.00  0.00    +0.252 C 
ATOM      9  O   UNL     1       1.503  -3.864   0.687  0.00  0.00    -0.270 OA
ATOM     10  C   UNL     1       2.978  -2.327   1.548  0.00  0.00    +0.081 A 
ATOM     11  C   UNL     1       3.178  -2.962   2.780  0.00  0.00    +0.049 A 
ATOM     12  C   UNL     1       4.277  -2.650   3.546  0.00  0.00    +0.148 A 
ATOM     13  C   UNL     1       5.195  -1.704   3.101  0.00  0.00    +0.158 A 
ATOM     14  C   UNL     1       5.000  -1.060   1.888  0.00  0.00    +0.095 A 
ATOM     15  C   UNL     1       3.889  -1.354   1.116  0.00  0.00    +0.144 A 
ATOM     16  O   UNL     1       3.672  -0.677  -0.035  0.00  0.00    -0.453 OA
ATOM     17  H   UNL     1       0.368  -2.210  -0.510  0.00  0.00    +0.155 HD
ENDROOT
BRANCH  12  18
ATOM     18  S   UNL     1       4.521  -3.449   5.097  0.00  0.00    +0.064 S 
ATOM     19  O   UNL     1       4.796  -2.425   6.043  0.00  0.00    -0.153 OA
ATOM     20  O   UNL     1       3.446  -4.365   5.256  0.00  0.00    -0.153 OA
BRANCH  18  21
ATOM     21  N   UNL     1       5.901  -4.356   4.968  0.00  0.00    -0.176 NA
ATOM     22  C   UNL     1       5.840  -5.749   4.505  0.00  0.00    +0.109 C 
ATOM     23  C   UNL     1       6.808  -5.921   3.330  0.00  0.00    +0.017 C 
ATOM     24  C   UNL     1       8.204  -5.460   3.753  0.00  0.00    +0.003 C 
ATOM     25  C   UNL     1       8.161  -3.977   4.131  0.00  0.00    +0.017 C 
ATOM     26  C   UNL     1       7.209  -3.782   5.309  0.00  0.00    +0.109 C 
ENDBRANCH  18  21
ENDBRANCH  12  18
BRANCH  13  27
ATOM     27  O   UNL     1       6.285  -1.411   3.855  0.00  0.00    -0.452 OA
BRANCH  27  28
ATOM     28  C   UNL     1       7.094  -0.401   3.441  0.00  0.00    +0.147 A 
ATOM     29  C   UNL     1       8.207  -0.677   2.660  0.00  0.00    +0.048 A 
ATOM     30  C   UNL     1       9.028   0.352   2.241  0.00  0.00    +0.004 A 
ATOM     31  C   UNL     1       8.743   1.656   2.599  0.00  0.00    +0.002 A 
ATOM     32  C   UNL     1       7.635   1.935   3.378  0.00  0.00    +0.024 A 
ATOM     33  C   UNL     1       6.806   0.910   3.796  0.00  0.00    +0.083 A 
ATOM     34 CL   UNL     1       5.411   1.262   4.767  0.00  0.00    -0.080 Cl
ENDBRANCH  27  28
ENDBRANCH  13  27
TORSDOF 4
