REMARK  Name = ZINC09075450
REMARK  7 active torsions:
REMARK  status: ('A' for Active; 'I' for Inactive)
REMARK    1  A    between atoms: C_4  and  C_7
REMARK    2  A    between atoms: C_7  and  C_8
REMARK    3  A    between atoms: N_11  and  C_14
REMARK    4  A    between atoms: C_15  and  C_25
REMARK    5  A    between atoms: C_26  and  C_27
REMARK    6  A    between atoms: C_26  and  C_29
REMARK    7  A    between atoms: N_31  and  C_32
REMARK                            x       y       z     vdW  Elec       q    Type
REMARK                         _______ _______ _______ _____ _____    ______ ____
ROOT
ATOM      1  C   UNL     1      -3.789   6.306   0.003  0.00  0.00    +0.136 A 
ATOM      2  C   UNL     1      -2.524   5.686   0.169  0.00  0.00    +0.081 A 
ATOM      3  C   UNL     1      -1.362   6.495   0.075  0.00  0.00    +0.267 A 
ATOM      4  O   UNL     1      -0.255   6.008   0.214  0.00  0.00    -0.267 OA
ATOM      5  N   UNL     1      -1.506   7.814  -0.178  0.00  0.00    -0.268 N 
ATOM      6  C   UNL     1      -0.395   8.598  -0.275  0.00  0.00    +0.096 A 
ATOM      7  C   UNL     1      -0.502   9.923  -0.522  0.00  0.00    +0.018 A 
ATOM      8  C   UNL     1      -1.765  10.508  -0.681  0.00  0.00    +0.005 A 
ATOM      9  C   UNL     1      -2.882   9.732  -0.586  0.00  0.00    +0.047 A 
ATOM     10  C   UNL     1      -2.751   8.356  -0.329  0.00  0.00    +0.142 A 
ATOM     11  N   UNL     1      -3.851   7.606  -0.237  0.00  0.00    -0.214 NA
ENDROOT
BRANCH   1  15
ATOM     12  C   UNL     1      -7.504   4.532  -0.758  0.00  0.00    -0.004 C 
ATOM     13  C   UNL     1      -7.379   5.581   0.350  0.00  0.00    +0.023 C 
ATOM     14  C   UNL     1      -6.129   6.428   0.105  0.00  0.00    +0.107 C 
ATOM     15  N   UNL     1      -4.943   5.562   0.091  0.00  0.00    -0.315 N 
ATOM     16  C   UNL     1      -5.019   4.576  -0.995  0.00  0.00    +0.107 C 
ATOM     17  C   UNL     1      -6.236   3.673  -0.782  0.00  0.00    +0.023 C 
BRANCH  12  18
ATOM     18  C   UNL     1      -8.719   3.643  -0.486  0.00  0.00    +0.038 C 
BRANCH  18  22
ATOM     19  C   UNL     1      -9.269   0.944  -3.752  0.00  0.00    +0.000 A 
ATOM     20  C   UNL     1      -8.473   0.581  -2.681  0.00  0.00    +0.000 A 
ATOM     21  C   UNL     1      -8.296   1.454  -1.625  0.00  0.00    +0.003 A 
ATOM     22  C   UNL     1      -8.913   2.691  -1.638  0.00  0.00    -0.047 A 
ATOM     23  C   UNL     1      -9.713   3.052  -2.707  0.00  0.00    +0.003 A 
ATOM     24  C   UNL     1      -9.887   2.181  -3.765  0.00  0.00    +0.000 A 
ENDBRANCH  18  22
ENDBRANCH  12  18
ENDBRANCH   1  15
BRANCH   2  25
ATOM     25  C   UNL     1      -2.425   4.308   0.425  0.00  0.00    +0.040 C 
ATOM     26  C   UNL     1      -3.067   3.758   1.527  0.00  0.00    +0.114 C 
BRANCH  26  27
ATOM     27  C   UNL     1      -3.050   2.307   1.737  0.00  0.00    +0.255 C 
ATOM     28  O   UNL     1      -2.473   1.584   0.947  0.00  0.00    -0.269 OA
ATOM     29  N   UNL     1      -3.674   1.774   2.806  0.00  0.00    -0.308 N 
ATOM     30  H   UNL     1      -4.131   2.350   3.439  0.00  0.00    +0.149 HD
BRANCH  29  31
ATOM     31  C   UNL     1      -3.657   0.324   3.017  0.00  0.00    +0.073 C 
ATOM     32  C   UNL     1      -4.796  -0.320   2.223  0.00  0.00    +0.022 C 
ATOM     33  C   UNL     1      -4.778  -1.834   2.442  0.00  0.00    +0.002 C 
ATOM     34  C   UNL     1      -4.960  -2.135   3.931  0.00  0.00    +0.000 C 
ATOM     35  C   UNL     1      -3.822  -1.492   4.725  0.00  0.00    +0.002 C 
ATOM     36  C   UNL     1      -3.839   0.022   4.505  0.00  0.00    +0.022 C 
ENDBRANCH  29  31
ENDBRANCH  26  27
BRANCH  26  37
ATOM     37  C   UNL     1      -3.747   4.609   2.457  0.00  0.00    +0.104 C 
ATOM     38  N   UNL     1      -4.286   5.283   3.195  0.00  0.00    -0.191 NA
ENDBRANCH  26  37
ENDBRANCH   2  25
TORSDOF 7
