REMARK  Name = ZINC39704519
REMARK  12 active torsions:
REMARK  status: ('A' for Active; 'I' for Inactive)
REMARK    1  A    between atoms: C_1  and  C_2
REMARK    2  A    between atoms: C_5  and  C_20
REMARK    3  A    between atoms: C_6  and  C_19
REMARK    4  A    between atoms: N_8  and  C_9
REMARK    5  A    between atoms: C_12  and  S_15
REMARK    6  A    between atoms: S_15  and  N_18
REMARK    7  A    between atoms: C_20  and  C_22
REMARK    8  A    between atoms: C_22  and  S_23
REMARK    9  A    between atoms: S_23  and  C_24
REMARK   10  A    between atoms: C_28  and  C_31
REMARK   11  A    between atoms: C_31  and  C_32
REMARK   12  A    between atoms: C_32  and  C_33
REMARK                            x       y       z     vdW  Elec       q    Type
REMARK                         _______ _______ _______ _____ _____    ______ ____
ROOT
ATOM      1  C   UNL     1      -0.649   0.940   0.716  0.00  0.00    +0.032 C 
ATOM      2  C   UNL     1      -0.353  -0.531   0.415  0.00  0.00    +0.094 C 
ATOM      3  C   UNL     1       0.274  -0.658  -0.948  0.00  0.00    +0.004 C 
ATOM      4  C   UNL     1       1.484  -1.199  -0.836  0.00  0.00    +0.014 C 
ATOM      5  C   UNL     1       1.781  -1.484   0.612  0.00  0.00    +0.104 C 
ATOM      6  N   UNL     1       0.608  -1.057   1.393  0.00  0.00    -0.317 N 
ATOM      7  C   UNL     1       3.018  -0.699   1.054  0.00  0.00    +0.033 C 
ENDROOT
BRANCH   6   8
ATOM      8  C   UNL     1       0.442  -1.135   2.778  0.00  0.00    +0.031 A 
ATOM      9  C   UNL     1       1.455  -1.657   3.572  0.00  0.00    +0.025 A 
ATOM     10  C   UNL     1       1.287  -1.732   4.941  0.00  0.00    +0.030 A 
ATOM     11  C   UNL     1       0.113  -1.289   5.521  0.00  0.00    +0.105 A 
ATOM     12  C   UNL     1      -0.897  -0.768   4.733  0.00  0.00    +0.030 A 
ATOM     13  C   UNL     1      -0.734  -0.685   3.364  0.00  0.00    +0.025 A 
BRANCH  11  14
ATOM     14  S   UNL     1      -0.097  -1.387   7.267  0.00  0.00    +0.056 S 
ATOM     15  O   UNL     1      -1.497  -1.412   7.508  0.00  0.00    -0.153 OA
ATOM     16  O   UNL     1       0.773  -2.414   7.723  0.00  0.00    -0.153 OA
BRANCH  14  17
ATOM     17  N   UNL     1       0.468   0.031   7.909  0.00  0.00    -0.204 NA
ATOM     18  H   UNL     1       0.084   0.380   8.729  0.00  0.00    +0.144 HD
ATOM     19  H   UNL     1       1.184   0.513   7.466  0.00  0.00    +0.144 HD
ENDBRANCH  14  17
ENDBRANCH  11  14
ENDBRANCH   6   8
BRANCH   4  20
ATOM     20  C   UNL     1       2.389  -1.474  -1.951  0.00  0.00    +0.171 C 
ATOM     21  O   UNL     1       2.093  -1.123  -3.074  0.00  0.00    -0.291 OA
BRANCH  20  22
ATOM     22  C   UNL     1       3.691  -2.193  -1.705  0.00  0.00    +0.156 C 
BRANCH  22  23
ATOM     23  S   UNL     1       4.514  -2.513  -3.290  0.00  0.00    -0.076 S 
BRANCH  23  24
ATOM     24  C   UNL     1       5.999  -3.347  -2.838  0.00  0.00    +0.213 A 
ATOM     25  N   UNL     1       6.849  -3.731  -3.783  0.00  0.00    -0.180 NA
ATOM     26  C   UNL     1       7.967  -4.359  -3.436  0.00  0.00    +0.296 A 
ATOM     27  O   UNL     1       8.853  -4.763  -4.379  0.00  0.00    -0.264 OA
ATOM     28  C   UNL     1       8.211  -4.595  -2.083  0.00  0.00    +0.130 A 
ATOM     29  N   UNL     1       7.329  -4.189  -1.189  0.00  0.00    -0.146 NA
ATOM     30  N   UNL     1       6.258  -3.579  -1.557  0.00  0.00    -0.122 NA
BRANCH  28  31
ATOM     31  C   UNL     1       9.467  -5.305  -1.647  0.00  0.00    +0.074 C 
BRANCH  31  32
ATOM     32  C   UNL     1      10.574  -4.278  -1.401  0.00  0.00    +0.131 C 
BRANCH  32  33
ATOM     33  C   UNL     1      11.830  -4.987  -0.965  0.00  0.00    +0.356 C 
ATOM     34  O   UNL     1      11.839  -6.202  -0.861  0.00  0.00    -0.246 OA
ATOM     35  O   UNL     1      12.838  -4.347  -0.718  0.00  0.00    -0.246 OA
ENDBRANCH  32  33
ENDBRANCH  31  32
ENDBRANCH  28  31
ENDBRANCH  23  24
ENDBRANCH  22  23
ENDBRANCH  20  22
ENDBRANCH   4  20
TORSDOF 10
