REMARK  Name = ZINC04502836
REMARK  10 active torsions:
REMARK  status: ('A' for Active; 'I' for Inactive)
REMARK    1  A    between atoms: C_1  and  C_2
REMARK    2  A    between atoms: C_2  and  O_3
REMARK    3  A    between atoms: O_3  and  C_4
REMARK    4  A    between atoms: C_4  and  C_6
REMARK    5  A    between atoms: C_7  and  C_27
REMARK    6  A    between atoms: C_11  and  C_13
REMARK    7  A    between atoms: C_16  and  S_19
REMARK    8  A    between atoms: S_19  and  C_20
REMARK    9  A    between atoms: C_21  and  N_26
REMARK   10  A    between atoms: C_22  and  C_24
REMARK                            x       y       z     vdW  Elec       q    Type
REMARK                         _______ _______ _______ _____ _____    ______ ____
ROOT
ATOM      1  C   UNL     1      -0.051   0.857   4.835  0.00  0.00    +0.083 C 
ATOM      2  C   UNL     1      -0.351   1.457   6.041  0.00  0.00    +0.053 C 
ATOM      3  N   UNL     1       0.379   1.202   7.117  0.00  0.00    -0.230 NA
ATOM      4  C   UNL     1       1.416   0.398   7.143  0.00  0.00    +0.168 C 
ATOM      5  N   UNL     1       1.884  -0.292   6.053  0.00  0.00    -0.255 N 
ATOM      6  C   UNL     1       1.132  -0.083   4.787  0.00  0.00    +0.151 C 
ATOM      7  C   UNL     1       2.974  -1.089   6.237  0.00  0.00    +0.115 C 
ATOM      8  C   UNL     1       3.540  -1.161   7.480  0.00  0.00    +0.127 C 
ATOM      9  S   UNL     1       2.493  -0.063   8.418  0.00  0.00    -0.040 S 
ATOM     10  C   UNL     1      -1.518   2.406   6.135  0.00  0.00    +0.066 C 
ENDROOT
BRANCH   6  11
ATOM     11  C   UNL     1       2.099   0.441   3.756  0.00  0.00    -0.022 A 
ATOM     12  C   UNL     1       2.950   1.483   4.076  0.00  0.00    +0.007 A 
ATOM     13  C   UNL     1       3.841   1.963   3.136  0.00  0.00    +0.015 A 
ATOM     14  C   UNL     1       3.873   1.405   1.864  0.00  0.00    +0.008 A 
ATOM     15  C   UNL     1       3.012   0.362   1.544  0.00  0.00    +0.015 A 
ATOM     16  C   UNL     1       2.128  -0.117   2.491  0.00  0.00    +0.007 A 
BRANCH  14  17
ATOM     17  S   UNL     1       5.002   2.019   0.659  0.00  0.00    -0.129 S 
ATOM     18  C   UNL     1       5.890   3.344   1.524  0.00  0.00    +0.090 C 
ENDBRANCH  14  17
ENDBRANCH   6  11
BRANCH   7  19
ATOM     19  N   UNL     1       3.498  -1.813   5.186  0.00  0.00    -0.345 N 
ATOM     20  H   UNL     1       3.090  -1.757   4.307  0.00  0.00    +0.144 HD
ATOM     21  H   UNL     1       4.275  -2.378   5.325  0.00  0.00    +0.144 HD
ENDBRANCH   7  19
BRANCH   1  22
ATOM     22  C   UNL     1      -0.817   1.114   3.690  0.00  0.00    +0.339 C 
ATOM     23  O   UNL     1      -1.718   1.933   3.731  0.00  0.00    -0.245 OA
BRANCH  22  24
ATOM     24  O   UNL     1      -0.556   0.453   2.540  0.00  0.00    -0.462 OA
BRANCH  24  26
ATOM     25  C   UNL     1      -0.935  -0.075   0.213  0.00  0.00    +0.048 C 
ATOM     26  C   UNL     1      -1.377   0.765   1.412  0.00  0.00    +0.229 C 
ENDBRANCH  24  26
ENDBRANCH  22  24
ENDBRANCH   1  22
BRANCH   8  27
ATOM     27  C   UNL     1       4.675  -1.919   7.914  0.00  0.00    +0.110 C 
ATOM     28  N   UNL     1       5.575  -2.520   8.259  0.00  0.00    -0.190 NA
ENDBRANCH   8  27
TORSDOF 7
