REMARK  Name = ZINC44681480
REMARK  13 active torsions:
REMARK  status: ('A' for Active; 'I' for Inactive)
REMARK    1  A    between atoms: C_1  and  C_2
REMARK    2  A    between atoms: C_8  and  C_10
REMARK    3  A    between atoms: C_10  and  C_11
REMARK    4  A    between atoms: C_13  and  O_36
REMARK    5  A    between atoms: C_19  and  C_35
REMARK    6  A    between atoms: C_22  and  O_28
REMARK    7  A    between atoms: C_24  and  C_25
REMARK    8  A    between atoms: C_24  and  C_26
REMARK    9  A    between atoms: C_26  and  O_27
REMARK   10  A    between atoms: O_28  and  C_29
REMARK   11  A    between atoms: N_31  and  C_32
REMARK   12  A    between atoms: C_32  and  C_33
REMARK   13  A    between atoms: C_32  and  C_34
REMARK                            x       y       z     vdW  Elec       q    Type
REMARK                         _______ _______ _______ _____ _____    ______ ____
ROOT
ATOM      1  C   UNL     1       3.940  -4.723   0.778  0.00  0.00    +0.032 C 
ATOM      2  C   UNL     1       3.323  -5.714  -0.205  0.00  0.00    +0.119 C 
ATOM      3  C   UNL     1       2.277  -6.597   0.467  0.00  0.00    +0.032 C 
ATOM      4  C   UNL     1       2.887  -7.326   1.670  0.00  0.00    +0.007 C 
ATOM      5  C   UNL     1       3.406  -6.280   2.658  0.00  0.00    +0.007 C 
ATOM      6  C   UNL     1       4.497  -5.447   2.009  0.00  0.00    -0.023 C 
ATOM      7  C   UNL     1       5.047  -4.424   3.005  0.00  0.00    +0.011 C 
ATOM      8  C   UNL     1       5.587  -5.153   4.237  0.00  0.00    +0.046 C 
ATOM      9  C   UNL     1       4.452  -5.896   4.930  0.00  0.00    +0.186 C 
ATOM     10  C   UNL     1       3.763  -6.892   3.999  0.00  0.00    +0.031 C 
ATOM     11  C   UNL     1       4.615  -8.154   3.863  0.00  0.00    +0.017 C 
ATOM     12  C   UNL     1       5.667  -6.317   1.523  0.00  0.00    +0.012 C 
ENDROOT
BRANCH   2  13
ATOM     13  O   UNL     1       2.697  -4.981  -1.269  0.00  0.00    -0.391 OA
ATOM     14  H   UNL     1       2.279  -5.540  -1.939  0.00  0.00    +0.210 HD
ENDBRANCH   2  13
BRANCH   1  15
ATOM     15  C   UNL     1       2.913  -3.662   1.162  0.00  0.00    +0.102 C 
BRANCH  15  23
ATOM     16  C   UNL     1       0.384   2.089   1.020  0.00  0.00    +0.007 C 
ATOM     17  C   UNL     1       0.412   0.636   0.540  0.00  0.00    -0.011 C 
ATOM     18  C   UNL     1       1.418   0.497  -0.604  0.00  0.00    +0.022 C 
ATOM     19  C   UNL     1       1.418  -0.951  -1.105  0.00  0.00    +0.108 C 
ATOM     20  N   UNL     1       1.671  -1.845   0.034  0.00  0.00    -0.301 N 
ATOM     21  C   UNL     1       0.817  -1.732   1.224  0.00  0.00    +0.108 C 
ATOM     22  C   UNL     1       0.824  -0.275   1.699  0.00  0.00    +0.022 C 
ATOM     23  C   UNL     1       2.667  -2.752  -0.013  0.00  0.00    +0.216 C 
ATOM     24  O   UNL     1       3.364  -2.836  -1.002  0.00  0.00    -0.276 OA
ENDBRANCH  15  23
ENDBRANCH   1  15
BRANCH  10  25
ATOM     25  C   UNL     1       2.445  -7.308   4.698  0.00  0.00    +0.166 C 
BRANCH  25  26
ATOM     26  O   UNL     1       2.743  -7.890   5.969  0.00  0.00    -0.394 OA
ATOM     27  H   UNL     1       1.963  -8.174   6.464  0.00  0.00    +0.209 HD
ENDBRANCH  25  26
ENDBRANCH  10  25
BRANCH   9  28
ATOM     28  O   UNL     1       3.487  -4.955   5.412  0.00  0.00    -0.446 OA
BRANCH  28  29
ATOM     29  C   UNL     1       3.665  -4.482   6.660  0.00  0.00    +0.401 C 
ATOM     30  O   UNL     1       4.612  -4.857   7.323  0.00  0.00    -0.226 OA
ATOM     31  N   UNL     1       2.792  -3.593   7.175  0.00  0.00    -0.279 N 
ATOM     32  H   UNL     1       2.037  -3.294   6.646  0.00  0.00    +0.152 HD
BRANCH  31  33
ATOM     33  C   UNL     1       2.986  -3.079   8.533  0.00  0.00    +0.070 C 
ATOM     34  C   UNL     1       3.949  -1.891   8.496  0.00  0.00    +0.027 C 
ATOM     35  C   UNL     1       1.641  -2.627   9.104  0.00  0.00    +0.027 C 
ENDBRANCH  31  33
ENDBRANCH  28  29
ENDBRANCH   9  28
TORSDOF 8
