REMARK  Name = ZINC38620465
REMARK  6 active torsions:
REMARK  status: ('A' for Active; 'I' for Inactive)
REMARK    1  A    between atoms: C_5  and  N_7
REMARK    2  A    between atoms: N_10  and  C_13
REMARK    3  A    between atoms: C_13  and  C_15
REMARK    4  A    between atoms: C_13  and  C_30
REMARK    5  A    between atoms: C_15  and  N_16
REMARK    6  A    between atoms: C_17  and  C_19
REMARK                            x       y       z     vdW  Elec       q    Type
REMARK                         _______ _______ _______ _____ _____    ______ ____
ROOT
ATOM      1  C   UNL     1       3.237  -5.773  -0.041  0.00  0.00    +0.104 C 
ENDROOT
BRANCH   1   2
ATOM      2  C   UNL     1       3.000  -6.577   1.210  0.00  0.00    -0.025 A 
ATOM      3  C   UNL     1       1.709  -6.799   1.654  0.00  0.00    +0.009 A 
ATOM      4  C   UNL     1       1.487  -7.537   2.802  0.00  0.00    +0.050 A 
ATOM      5  C   UNL     1       2.558  -8.056   3.511  0.00  0.00    +0.166 A 
ATOM      6  C   UNL     1       3.858  -7.833   3.064  0.00  0.00    +0.167 A 
ATOM      7  C   UNL     1       4.073  -7.098   1.910  0.00  0.00    +0.054 A 
ATOM      8  O   UNL     1       4.725  -8.441   3.925  0.00  0.00    -0.453 OA
ATOM      9  C   UNL     1       3.966  -8.690   5.123  0.00  0.00    +0.466 C 
ATOM     10  O   UNL     1       2.610  -8.803   4.652  0.00  0.00    -0.453 OA
ENDBRANCH   1   2
BRANCH   1  14
ATOM     11  N   UNL     1       1.403  -1.999  -0.140  0.00  0.00    -0.325 N 
ATOM     12  C   UNL     1       1.371  -2.724   1.139  0.00  0.00    +0.120 C 
ATOM     13  C   UNL     1       2.470  -3.792   1.121  0.00  0.00    +0.104 C 
ATOM     14  N   UNL     1       2.311  -4.633  -0.073  0.00  0.00    -0.291 NA
ATOM     15  C   UNL     1       2.484  -3.849  -1.304  0.00  0.00    +0.104 C 
ATOM     16  C   UNL     1       1.380  -2.783  -1.385  0.00  0.00    +0.120 C 
BRANCH  11  21
ATOM     17  C   UNL     1       0.317   1.512  -0.224  0.00  0.00    +0.002 A 
ATOM     18  C   UNL     1       1.537   2.164  -0.237  0.00  0.00    +0.003 A 
ATOM     19  C   UNL     1       2.713   1.438  -0.219  0.00  0.00    +0.040 A 
ATOM     20  C   UNL     1       2.673   0.056  -0.187  0.00  0.00    +0.144 A 
ATOM     21  C   UNL     1       1.448  -0.602  -0.172  0.00  0.00    +0.065 A 
ATOM     22  C   UNL     1       0.270   0.132  -0.191  0.00  0.00    +0.026 A 
ATOM     23  F   UNL     1       3.823  -0.654  -0.169  0.00  0.00    -0.204 F 
ENDBRANCH  11  21
ENDBRANCH   1  14
BRANCH   1  24
ATOM     24  C   UNL     1       3.001  -6.656  -1.268  0.00  0.00    +0.128 C 
BRANCH  24  25
ATOM     25  N   UNL     1       3.977  -7.748  -1.279  0.00  0.00    -0.310 N 
ATOM     26  C   UNL     1       4.015  -8.608  -2.316  0.00  0.00    +0.257 C 
ATOM     27  O   UNL     1       3.241  -8.478  -3.240  0.00  0.00    -0.272 OA
ATOM     28  H   UNL     1       4.597  -7.852  -0.540  0.00  0.00    +0.149 HD
BRANCH  26  29
ATOM     29  C   UNL     1       5.020  -9.731  -2.327  0.00  0.00    +0.296 C 
ATOM     30  C   UNL     1       6.439  -9.155  -2.417  0.00  0.00    +0.283 C 
ATOM     31  O   UNL     1       7.366 -10.246  -2.440  0.00  0.00    -0.484 OA
ATOM     32  C   UNL     1       7.075 -11.277  -3.280  0.00  0.00    +0.162 A 
ATOM     33  C   UNL     1       8.074 -12.175  -3.626  0.00  0.00    +0.049 A 
ATOM     34  C   UNL     1       7.793 -13.230  -4.474  0.00  0.00    +0.004 A 
ATOM     35  C   UNL     1       6.517 -13.392  -4.980  0.00  0.00    +0.004 A 
ATOM     36  C   UNL     1       5.518 -12.500  -4.641  0.00  0.00    +0.049 A 
ATOM     37  C   UNL     1       5.793 -11.439  -3.790  0.00  0.00    +0.163 A 
ATOM     38  O   UNL     1       4.800 -10.564  -3.471  0.00  0.00    -0.473 OA
ENDBRANCH  26  29
ENDBRANCH  24  25
ENDBRANCH   1  24
TORSDOF 6
