REMARK  Name = ZINC20033595
REMARK  7 active torsions:
REMARK  status: ('A' for Active; 'I' for Inactive)
REMARK    1  A    between atoms: C_1  and  C_2
REMARK    2  A    between atoms: C_6  and  C_8
REMARK    3  A    between atoms: C_19  and  S_24
REMARK    4  A    between atoms: S_24  and  N_27
REMARK    5  A    between atoms: N_27  and  C_28
REMARK    6  A    between atoms: C_32  and  O_34
REMARK    7  A    between atoms: O_34  and  C_35
REMARK                            x       y       z     vdW  Elec       q    Type
REMARK                         _______ _______ _______ _____ _____    ______ ____
ROOT
ATOM      1  C   UNL     1       0.166  -1.083  -4.355  0.00  0.00    +0.105 C 
ATOM      2  C   UNL     1      -1.020  -1.773  -3.674  0.00  0.00    +0.029 C 
ATOM      3  C   UNL     1      -1.870  -2.446  -4.791  0.00  0.00    +0.033 C 
ATOM      4  C   UNL     1      -2.723  -1.307  -5.317  0.00  0.00    -0.030 C 
ATOM      5  C   UNL     1      -2.813  -0.352  -4.424  0.00  0.00    -0.023 C 
ATOM      6  C   UNL     1      -2.031  -0.718  -3.185  0.00  0.00    +0.049 C 
ATOM      7  C   UNL     1      -1.376   0.481  -2.577  0.00  0.00    -0.018 A 
ATOM      8  C   UNL     1      -2.162   1.388  -1.879  0.00  0.00    +0.034 A 
ATOM      9  C   UNL     1      -1.596   2.503  -1.296  0.00  0.00    +0.109 A 
ATOM     10  C   UNL     1      -0.238   2.737  -1.410  0.00  0.00    +0.030 A 
ATOM     11  C   UNL     1       0.553   1.846  -2.107  0.00  0.00    +0.025 A 
ATOM     12  C   UNL     1      -0.015   0.721  -2.691  0.00  0.00    +0.031 A 
ATOM     13  N   UNL     1       0.799  -0.171  -3.397  0.00  0.00    -0.336 N 
ATOM     14  H   UNL     1       1.889  -0.199  -3.249  0.00  0.00    +0.147 HD
ENDROOT
BRANCH   1  20
ATOM     15  C   UNL     1       2.142  -3.923  -7.971  0.00  0.00    +0.044 C 
ATOM     16  C   UNL     1       2.110  -3.478  -6.531  0.00  0.00    -0.050 A 
ATOM     17  C   UNL     1       2.997  -4.021  -5.620  0.00  0.00    +0.003 A 
ATOM     18  C   UNL     1       2.968  -3.613  -4.300  0.00  0.00    +0.001 A 
ATOM     19  C   UNL     1       2.054  -2.659  -3.891  0.00  0.00    +0.005 A 
ATOM     20  C   UNL     1       1.164  -2.120  -4.801  0.00  0.00    -0.027 A 
ATOM     21  C   UNL     1       1.194  -2.527  -6.122  0.00  0.00    +0.008 A 
ENDBRANCH   1  20
BRANCH   9  22
ATOM     22  S   UNL     1      -2.610   3.639  -0.408  0.00  0.00    +0.072 S 
ATOM     23  O   UNL     1      -3.691   2.886   0.125  0.00  0.00    -0.150 OA
ATOM     24  O   UNL     1      -1.739   4.406   0.411  0.00  0.00    -0.150 OA
BRANCH  22  25
ATOM     25  N   UNL     1      -3.261   4.684  -1.515  0.00  0.00    -0.216 N 
ATOM     26  H   UNL     1      -4.351   4.724  -1.658  0.00  0.00    +0.174 HD
BRANCH  25  27
ATOM     27  C   UNL     1      -2.426   5.513  -2.268  0.00  0.00    +0.052 A 
ATOM     28  C   UNL     1      -1.848   6.633  -1.683  0.00  0.00    +0.025 A 
ATOM     29  C   UNL     1      -1.019   7.450  -2.426  0.00  0.00    +0.005 A 
ATOM     30  C   UNL     1      -0.770   7.163  -3.755  0.00  0.00    +0.046 A 
ATOM     31  C   UNL     1      -1.349   6.049  -4.346  0.00  0.00    +0.122 A 
ATOM     32  C   UNL     1      -2.178   5.223  -3.602  0.00  0.00    +0.070 A 
BRANCH  31  33
ATOM     33  O   UNL     1      -1.104   5.768  -5.652  0.00  0.00    -0.495 OA
ATOM     34  C   UNL     1      -0.241   6.662  -6.357  0.00  0.00    +0.277 C 
ENDBRANCH  31  33
ENDBRANCH  25  27
ENDBRANCH  22  25
ENDBRANCH   9  22
TORSDOF 5
