REMARK  Name = ZINC59310122
REMARK  7 active torsions:
REMARK  status: ('A' for Active; 'I' for Inactive)
REMARK    1  A    between atoms: C_14  and  C_15
REMARK    2  A    between atoms: N_16  and  N_17
REMARK    3  A    between atoms: C_20  and  S_23
REMARK    4  A    between atoms: S_23  and  C_24
REMARK    5  A    between atoms: C_24  and  C_25
REMARK    6  A    between atoms: N_27  and  C_28
REMARK    7  A    between atoms: C_28  and  C_29
REMARK                            x       y       z     vdW  Elec       q    Type
REMARK                         _______ _______ _______ _____ _____    ______ ____
ROOT
ATOM      1  N   UNL     1       7.301   0.382   0.030  0.00  0.00    -0.205 N 
ATOM      2  C   UNL     1       8.523  -0.259   0.118  0.00  0.00    +0.232 A 
ATOM      3  N   UNL     1       8.711  -1.559   0.208  0.00  0.00    -0.186 NA
ATOM      4  C   UNL     1      10.020  -1.821   0.275  0.00  0.00    +0.211 A 
ATOM      5  N   UNL     1      10.684  -0.690   0.229  0.00  0.00    -0.144 NA
ATOM      6  N   UNL     1       9.734   0.338   0.122  0.00  0.00    -0.245 N 
ATOM      7  H   UNL     1       7.264   1.349  -0.037  0.00  0.00    +0.177 HD
ATOM      8  H   UNL     1       9.912   1.290   0.064  0.00  0.00    +0.192 HD
ENDROOT
BRANCH   1  10
ATOM      9  C   UNL     1       4.965   0.238  -0.046  0.00  0.00    +0.139 C 
ATOM     10  N   UNL     1       6.116  -0.365   0.038  0.00  0.00    -0.188 NA
BRANCH   9  24
ATOM     11  C   UNL     1       3.825  -4.738  -0.108  0.00  0.00    +0.001 A 
ATOM     12  C   UNL     1       5.007  -3.998  -0.116  0.00  0.00    +0.001 A 
ATOM     13  C   UNL     1       4.998  -2.639  -0.094  0.00  0.00    +0.009 A 
ATOM     14  C   UNL     1       3.771  -1.953  -0.062  0.00  0.00    -0.009 A 
ATOM     15  C   UNL     1       2.528  -2.727  -0.054  0.00  0.00    -0.017 A 
ATOM     16  C   UNL     1       2.608  -4.136  -0.078  0.00  0.00    +0.008 A 
ATOM     17  C   UNL     1       1.294  -2.078  -0.023  0.00  0.00    +0.017 A 
ATOM     18  C   UNL     1       1.239  -0.684   0.001  0.00  0.00    -0.017 A 
ATOM     19  C   UNL     1       0.003  -0.004   0.033  0.00  0.00    +0.008 A 
ATOM     20  C   UNL     1      -0.016   1.353   0.057  0.00  0.00    +0.001 A 
ATOM     21  C   UNL     1       1.161   2.101   0.049  0.00  0.00    +0.001 A 
ATOM     22  C   UNL     1       2.383   1.507   0.018  0.00  0.00    +0.009 A 
ATOM     23  C   UNL     1       2.474   0.104  -0.007  0.00  0.00    -0.009 A 
ATOM     24  C   UNL     1       3.726  -0.544  -0.038  0.00  0.00    +0.010 A 
ENDBRANCH   9  24
ENDBRANCH   1  10
BRANCH   4  25
ATOM     25  S   UNL     1      10.738  -3.425   0.405  0.00  0.00    -0.075 S 
BRANCH  25  26
ATOM     26  C   UNL     1      12.523  -3.104   0.453  0.00  0.00    +0.173 C 
BRANCH  26  27
ATOM     27  C   UNL     1      13.265  -4.411   0.565  0.00  0.00    +0.224 C 
ATOM     28  O   UNL     1      12.650  -5.455   0.608  0.00  0.00    -0.275 OA
ATOM     29  N   UNL     1      14.612  -4.418   0.617  0.00  0.00    -0.311 N 
ATOM     30  H   UNL     1      15.103  -3.583   0.583  0.00  0.00    +0.149 HD
BRANCH  29  31
ATOM     31  C   UNL     1      15.333  -5.689   0.726  0.00  0.00    +0.139 C 
BRANCH  31  32
ATOM     32  C   UNL     1      16.816  -5.423   0.766  0.00  0.00    -0.029 A 
ATOM     33  C   UNL     1      17.541  -5.371  -0.410  0.00  0.00    +0.005 A 
ATOM     34  C   UNL     1      18.901  -5.127  -0.375  0.00  0.00    +0.002 A 
ATOM     35  C   UNL     1      19.537  -4.934   0.837  0.00  0.00    +0.020 A 
ATOM     36  C   UNL     1      18.812  -4.986   2.014  0.00  0.00    +0.041 A 
ATOM     37  C   UNL     1      17.450  -5.224   1.978  0.00  0.00    +0.025 A 
ATOM     38 CL   UNL     1      19.611  -4.744   3.537  0.00  0.00    -0.084 Cl
ENDBRANCH  31  32
ENDBRANCH  29  31
ENDBRANCH  26  27
ENDBRANCH  25  26
ENDBRANCH   4  25
TORSDOF 7
