REMARK  Name = ZINC06177709
REMARK  10 active torsions:
REMARK  status: ('A' for Active; 'I' for Inactive)
REMARK    1  A    between atoms: C_1  and  C_2
REMARK    2  A    between atoms: C_9  and  N_35
REMARK    3  A    between atoms: C_10  and  C_33
REMARK    4  A    between atoms: C_11  and  C_13
REMARK    5  A    between atoms: N_15  and  C_22
REMARK    6  A    between atoms: C_22  and  C_23
REMARK    7  A    between atoms: C_23  and  O_24
REMARK    8  A    between atoms: O_24  and  C_25
REMARK    9  A    between atoms: C_30  and  O_31
REMARK   10  A    between atoms: O_31  and  C_32
REMARK                            x       y       z     vdW  Elec       q    Type
REMARK                         _______ _______ _______ _____ _____    ______ ____
ROOT
ATOM      1  C   UNL     1      -3.547  -4.510  -0.770  0.00  0.00    -0.009 A 
ATOM      2  C   UNL     1      -3.669  -3.218  -1.111  0.00  0.00    +0.091 A 
ATOM      3  N   UNL     1      -3.611  -2.432   0.008  0.00  0.00    -0.343 N 
ATOM      4  C   UNL     1      -3.456  -3.221   1.126  0.00  0.00    +0.049 A 
ATOM      5  C   UNL     1      -3.409  -4.557   0.688  0.00  0.00    +0.004 A 
ATOM      6  C   UNL     1      -3.257  -5.589   1.615  0.00  0.00    +0.010 A 
ATOM      7  C   UNL     1      -3.154  -5.296   2.946  0.00  0.00    +0.001 A 
ATOM      8  C   UNL     1      -3.199  -3.979   3.383  0.00  0.00    +0.002 A 
ATOM      9  C   UNL     1      -3.349  -2.945   2.485  0.00  0.00    +0.026 A 
ENDROOT
BRANCH   1  20
ATOM     10  C   UNL     1      -0.385  -6.045  -1.224  0.00  0.00    +0.068 C 
ATOM     11  C   UNL     1      -1.070  -5.701  -2.522  0.00  0.00    +0.068 A 
ATOM     12  C   UNL     1      -2.438  -5.554  -2.708  0.00  0.00    +0.049 A 
ATOM     13  C   UNL     1      -2.656  -5.244  -4.021  0.00  0.00    +0.222 A 
ATOM     14  N   UNL     1      -1.461  -5.199  -4.631  0.00  0.00    -0.246 N 
ATOM     15  H   UNL     1      -1.399  -4.963  -5.704  0.00  0.00    +0.192 HD
ATOM     16  N   UNL     1      -0.477  -5.489  -3.673  0.00  0.00    -0.176 NA
ATOM     17  O   UNL     1      -3.897  -5.037  -4.529  0.00  0.00    -0.423 OA
ATOM     18  C   UNL     1      -4.950  -5.410  -3.774  0.00  0.00    +0.200 C 
ATOM     19  C   UNL     1      -4.862  -5.728  -2.463  0.00  0.00    +0.098 C 
ATOM     20  C   UNL     1      -3.557  -5.690  -1.708  0.00  0.00    +0.103 C 
BRANCH  18  21
ATOM     21  N   UNL     1      -6.184  -5.470  -4.372  0.00  0.00    -0.328 N 
ATOM     22  H   UNL     1      -7.065  -5.770  -3.786  0.00  0.00    +0.145 HD
ATOM     23  H   UNL     1      -6.292  -5.217  -5.437  0.00  0.00    +0.145 HD
ENDBRANCH  18  21
BRANCH  19  24
ATOM     24  C   UNL     1      -6.052  -6.114  -1.766  0.00  0.00    +0.101 C 
ATOM     25  N   UNL     1      -6.995  -6.421  -1.213  0.00  0.00    -0.191 NA
ENDBRANCH  19  24
ENDBRANCH   1  20
BRANCH   3  26
ATOM     26  C   UNL     1      -3.705  -0.970   0.016  0.00  0.00    +0.162 C 
BRANCH  26  27
ATOM     27  C   UNL     1      -2.299  -0.368   0.012  0.00  0.00    +0.250 C 
BRANCH  27  28
ATOM     28  O   UNL     1      -2.391   1.058   0.020  0.00  0.00    -0.487 OA
BRANCH  28  29
ATOM     29  C   UNL     1      -1.222   1.752   0.017  0.00  0.00    +0.162 A 
ATOM     30  C   UNL     1      -0.013   1.076   0.008  0.00  0.00    +0.049 A 
ATOM     31  C   UNL     1       1.175   1.783   0.000  0.00  0.00    +0.004 A 
ATOM     32  C   UNL     1       1.160   3.166   0.007  0.00  0.00    +0.004 A 
ATOM     33  C   UNL     1      -0.043   3.847   0.022  0.00  0.00    +0.049 A 
ATOM     34  C   UNL     1      -1.237   3.144   0.030  0.00  0.00    +0.161 A 
BRANCH  34  35
ATOM     35  O   UNL     1      -2.421   3.812   0.045  0.00  0.00    -0.491 OA
ATOM     36  C   UNL     1      -2.361   5.240   0.052  0.00  0.00    +0.277 C 
ENDBRANCH  34  35
ENDBRANCH  28  29
ENDBRANCH  27  28
ENDBRANCH  26  27
ENDBRANCH   3  26
TORSDOF 8
