REMARK  Name = ZINC59023177
REMARK  9 active torsions:
REMARK  status: ('A' for Active; 'I' for Inactive)
REMARK    1  A    between atoms: C_1  and  C_2
REMARK    2  A    between atoms: C_2  and  C_25
REMARK    3  A    between atoms: N_3  and  N_4
REMARK    4  A    between atoms: C_7  and  S_10
REMARK    5  A    between atoms: S_10  and  C_11
REMARK    6  A    between atoms: C_11  and  C_12
REMARK    7  A    between atoms: N_14  and  C_15
REMARK    8  A    between atoms: C_18  and  C_21
REMARK    9  A    between atoms: C_26  and  C_27
REMARK                            x       y       z     vdW  Elec       q    Type
REMARK                         _______ _______ _______ _____ _____    ______ ____
ROOT
ATOM      1  N   UNL     1      -0.128  -2.010   1.532  0.00  0.00    -0.205 N 
ATOM      2  C   UNL     1      -0.200  -2.603   2.779  0.00  0.00    +0.232 A 
ATOM      3  N   UNL     1      -0.197  -1.974   3.936  0.00  0.00    -0.186 NA
ATOM      4  C   UNL     1      -0.280  -2.864   4.931  0.00  0.00    +0.211 A 
ATOM      5  N   UNL     1      -0.338  -4.071   4.420  0.00  0.00    -0.144 NA
ATOM      6  N   UNL     1      -0.293  -3.927   3.024  0.00  0.00    -0.245 N 
ATOM      7  H   UNL     1      -0.142  -2.559   0.732  0.00  0.00    +0.177 HD
ATOM      8  H   UNL     1      -0.322  -4.639   2.365  0.00  0.00    +0.192 HD
ENDROOT
BRANCH   1  11
ATOM      9  C   UNL     1      -0.078   1.452   0.137  0.00  0.00    +0.067 C 
ATOM     10  C   UNL     1      -0.064  -0.051   0.249  0.00  0.00    +0.056 C 
ATOM     11  N   UNL     1      -0.034  -0.616   1.423  0.00  0.00    -0.185 NA
BRANCH  10  12
ATOM     12  C   UNL     1      -0.084  -0.850  -0.922  0.00  0.00    +0.025 C 
ATOM     13  C   UNL     1      -0.010  -0.267  -2.136  0.00  0.00    +0.010 C 
BRANCH  13  14
ATOM     14  C   UNL     1      -0.143  -1.084  -3.354  0.00  0.00    -0.025 A 
ATOM     15  C   UNL     1      -0.353  -2.463  -3.255  0.00  0.00    +0.008 A 
ATOM     16  C   UNL     1      -0.477  -3.222  -4.400  0.00  0.00    +0.001 A 
ATOM     17  C   UNL     1      -0.395  -2.622  -5.644  0.00  0.00    +0.000 A 
ATOM     18  C   UNL     1      -0.187  -1.257  -5.750  0.00  0.00    +0.001 A 
ATOM     19  C   UNL     1      -0.067  -0.484  -4.614  0.00  0.00    +0.008 A 
ENDBRANCH  13  14
ENDBRANCH  10  12
ENDBRANCH   1  11
BRANCH   4  20
ATOM     20  S   UNL     1      -0.307  -2.477   6.649  0.00  0.00    -0.075 S 
BRANCH  20  21
ATOM     21  C   UNL     1      -0.429  -4.095   7.461  0.00  0.00    +0.173 C 
BRANCH  21  22
ATOM     22  C   UNL     1      -0.461  -3.906   8.956  0.00  0.00    +0.227 C 
ATOM     23  O   UNL     1      -0.408  -2.790   9.427  0.00  0.00    -0.275 OA
ATOM     24  N   UNL     1      -0.550  -4.977   9.769  0.00  0.00    -0.285 N 
ATOM     25  H   UNL     1      -0.659  -5.864   9.392  0.00  0.00    +0.155 HD
BRANCH  24  26
ATOM     26  C   UNL     1      -0.484  -4.810  11.156  0.00  0.00    +0.033 A 
ATOM     27  C   UNL     1       0.139  -5.769  11.944  0.00  0.00    +0.024 A 
ATOM     28  C   UNL     1       0.202  -5.601  13.314  0.00  0.00    +0.014 A 
ATOM     29  C   UNL     1      -0.354  -4.479  13.900  0.00  0.00    +0.055 A 
ATOM     30  C   UNL     1      -0.976  -3.522  13.119  0.00  0.00    +0.014 A 
ATOM     31  C   UNL     1      -1.037  -3.681  11.748  0.00  0.00    +0.024 A 
BRANCH  29  32
ATOM     32  C   UNL     1      -0.284  -4.298  15.395  0.00  0.00    +0.417 C 
ATOM     33  F   UNL     1       0.885  -3.605  15.726  0.00  0.00    -0.166 F 
ATOM     34  F   UNL     1      -1.397  -3.570  15.830  0.00  0.00    -0.166 F 
ATOM     35  F   UNL     1      -0.275  -5.552  16.016  0.00  0.00    -0.166 F 
ENDBRANCH  29  32
ENDBRANCH  24  26
ENDBRANCH  21  22
ENDBRANCH  20  21
ENDBRANCH   4  20
TORSDOF 8
