REMARK  Name = ZINC12565972
REMARK  11 active torsions:
REMARK  status: ('A' for Active; 'I' for Inactive)
REMARK    1  A    between atoms: C_1  and  N_2
REMARK    2  A    between atoms: N_2  and  C_3
REMARK    3  A    between atoms: N_2  and  C_4
REMARK    4  A    between atoms: C_4  and  C_6
REMARK    5  A    between atoms: C_4  and  C_29
REMARK    6  A    between atoms: C_6  and  N_7
REMARK    7  A    between atoms: N_7  and  C_8
REMARK    8  A    between atoms: C_8  and  C_10
REMARK    9  A    between atoms: C_8  and  C_16
REMARK   10  A    between atoms: N_18  and  C_19
REMARK   11  A    between atoms: C_22  and  N_26
REMARK                            x       y       z     vdW  Elec       q    Type
REMARK                         _______ _______ _______ _____ _____    ______ ____
ROOT
ATOM      1  C   UNL     1      -0.019  -4.715   0.600  0.00  0.00    +0.171 C 
ENDROOT
BRANCH   1   2
ATOM      2  C   UNL     1       1.071  -4.986  -0.404  0.00  0.00    -0.022 A 
ATOM      3  C   UNL     1       2.236  -4.242  -0.376  0.00  0.00    +0.005 A 
ATOM      4  C   UNL     1       3.237  -4.491  -1.297  0.00  0.00    +0.000 A 
ATOM      5  C   UNL     1       3.073  -5.483  -2.245  0.00  0.00    +0.000 A 
ATOM      6  C   UNL     1       1.908  -6.228  -2.272  0.00  0.00    +0.000 A 
ATOM      7  C   UNL     1       0.909  -5.982  -1.349  0.00  0.00    +0.005 A 
ENDBRANCH   1   2
BRANCH   1   8
ATOM      8  C   UNL     1       0.330  -5.370   1.911  0.00  0.00    +0.239 C 
ATOM      9  O   UNL     1       0.455  -4.696   2.912  0.00  0.00    -0.273 OA
ATOM     10  N   UNL     1       0.504  -6.705   1.972  0.00  0.00    -0.283 N 
ATOM     11  H   UNL     1       0.490  -7.234   1.159  0.00  0.00    +0.155 HD
BRANCH  10  12
ATOM     12  C   UNL     1       0.705  -7.330   3.208  0.00  0.00    +0.048 A 
ATOM     13  C   UNL     1       0.083  -6.834   4.347  0.00  0.00    +0.026 A 
ATOM     14  C   UNL     1       0.283  -7.452   5.566  0.00  0.00    +0.034 A 
ATOM     15  C   UNL     1       1.103  -8.563   5.654  0.00  0.00    +0.127 A 
ATOM     16  C   UNL     1       1.724  -9.059   4.522  0.00  0.00    +0.049 A 
ATOM     17  C   UNL     1       1.523  -8.449   3.299  0.00  0.00    +0.041 A 
ATOM     18 BR   UNL     1       2.366  -9.133   1.750  0.00  0.00    -0.048 Br
BRANCH  15  19
ATOM     19  N   UNL     1       1.316  -9.222   6.962  0.00  0.00    +0.056 N 
ATOM     20  O   UNL     1       0.773  -8.789   7.952  0.00  0.00    -0.126 OA
ATOM     21  O   UNL     1       2.032 -10.193   7.040  0.00  0.00    -0.126 OA
ENDBRANCH  15  19
ENDBRANCH  10  12
ENDBRANCH   1   8
BRANCH   1  22
ATOM     22  N   UNL     1      -0.154  -3.265   0.798  0.00  0.00    -0.303 NA
ATOM     23  H   UNL     1       0.749  -2.816   0.802  0.00  0.00    +0.123 HD
BRANCH  22  24
ATOM     24  C   UNL     1      -1.031  -2.674  -0.221  0.00  0.00    +0.071 C 
BRANCH  24  25
ATOM     25  C   UNL     1      -1.248  -1.192   0.090  0.00  0.00    -0.024 C 
BRANCH  25  26
ATOM     26  C   UNL     1      -1.921  -1.053   1.431  0.00  0.00    -0.060 A 
ATOM     27  C   UNL     1      -3.285  -1.245   1.543  0.00  0.00    +0.002 A 
ATOM     28  C   UNL     1      -3.902  -1.118   2.773  0.00  0.00    +0.000 A 
ATOM     29  C   UNL     1      -3.155  -0.798   3.891  0.00  0.00    +0.000 A 
ATOM     30  C   UNL     1      -1.791  -0.607   3.780  0.00  0.00    +0.000 A 
ATOM     31  C   UNL     1      -1.173  -0.739   2.550  0.00  0.00    +0.002 A 
ENDBRANCH  25  26
BRANCH  25  33
ATOM     32  C   UNL     1      -2.225   0.850  -0.704  0.00  0.00    -0.096 C 
ATOM     33  N   UNL     1      -2.097  -0.593  -0.949  0.00  0.00    +0.381 N 
ATOM     34  C   UNL     1      -1.487  -0.813  -2.267  0.00  0.00    -0.096 C 
ATOM     35  H   UNL     1      -3.010  -1.021  -0.925  0.00  0.00    -0.082 HD
ENDBRANCH  25  33
ENDBRANCH  24  25
ENDBRANCH  22  24
ENDBRANCH   1  22
TORSDOF 9
