REMARK  Name = ZINC21795380
REMARK  7 active torsions:
REMARK  status: ('A' for Active; 'I' for Inactive)
REMARK    1  A    between atoms: C_1  and  C_2
REMARK    2  A    between atoms: N_7  and  S_9
REMARK    3  A    between atoms: S_9  and  N_12
REMARK    4  A    between atoms: N_12  and  C_13
REMARK    5  A    between atoms: C_16  and  C_19
REMARK    6  A    between atoms: C_19  and  C_22
REMARK    7  A    between atoms: N_20  and  O_21
REMARK                            x       y       z     vdW  Elec       q    Type
REMARK                         _______ _______ _______ _____ _____    ______ ____
ROOT
ATOM      1  N   UNL     1      -0.075   5.630   0.027  0.00  0.00    -0.206 N 
ATOM      2  H   UNL     1       0.612   4.881  -0.394  0.00  0.00    +0.175 HD
ENDROOT
BRANCH   1   3
ATOM      3  C   UNL     1      -0.002   5.959   1.379  0.00  0.00    +0.049 A 
ATOM      4  C   UNL     1       0.088   4.951   2.335  0.00  0.00    +0.025 A 
ATOM      5  C   UNL     1       0.160   5.273   3.672  0.00  0.00    +0.011 A 
ATOM      6  C   UNL     1       0.141   6.613   4.069  0.00  0.00    -0.001 A 
ATOM      7  C   UNL     1       0.045   7.622   3.107  0.00  0.00    +0.011 A 
ATOM      8  C   UNL     1      -0.021   7.293   1.771  0.00  0.00    +0.025 A 
BRANCH   6   9
ATOM      9  C   UNL     1       0.216   6.961   5.500  0.00  0.00    +0.084 C 
ATOM     10  N   UNL     1       0.300   6.025   6.390  0.00  0.00    -0.092 NA
ATOM     11  C   UNL     1       0.196   8.406   5.926  0.00  0.00    +0.069 C 
BRANCH  10  12
ATOM     12  O   UNL     1       0.373   6.359   7.764  0.00  0.00    -0.409 OA
ATOM     13  H   UNL     1       0.444   5.564   8.521  0.00  0.00    +0.328 HD
ENDBRANCH  10  12
ENDBRANCH   6   9
ENDBRANCH   1   3
BRANCH   1  14
ATOM     14  S   UNL     1      -1.195   6.366  -0.945  0.00  0.00    +0.112 S 
ATOM     15  O   UNL     1      -1.028   7.766  -0.769  0.00  0.00    -0.138 OA
ATOM     16  O   UNL     1      -1.100   5.742  -2.218  0.00  0.00    -0.138 OA
BRANCH  14  22
ATOM     17  C   UNL     1      -5.507   3.753  -1.531  0.00  0.00    +0.009 C 
ATOM     18  C   UNL     1      -4.750   5.055  -1.259  0.00  0.00    +0.002 C 
ATOM     19  C   UNL     1      -5.514   5.883  -0.224  0.00  0.00    +0.006 C 
ATOM     20  C   UNL     1      -4.776   7.200   0.024  0.00  0.00    +0.017 C 
ATOM     21  C   UNL     1      -3.379   6.902   0.578  0.00  0.00    +0.111 C 
ATOM     22  N   UNL     1      -2.690   5.988  -0.343  0.00  0.00    -0.164 NA
ATOM     23  C   UNL     1      -3.356   4.735  -0.724  0.00  0.00    +0.114 C 
ENDBRANCH  14  22
ENDBRANCH   1  14
TORSDOF 5
