REMARK  Name = ZINC14898021
REMARK  8 active torsions:
REMARK  status: ('A' for Active; 'I' for Inactive)
REMARK    1  A    between atoms: C_1  and  C_2
REMARK    2  A    between atoms: C_2  and  C_4
REMARK    3  A    between atoms: C_2  and  S_19
REMARK    4  A    between atoms: N_6  and  C_7
REMARK    5  A    between atoms: C_8  and  C_17
REMARK    6  A    between atoms: S_19  and  C_20
REMARK    7  A    between atoms: C_22  and  C_25
REMARK    8  A    between atoms: C_26  and  C_27
REMARK                            x       y       z     vdW  Elec       q    Type
REMARK                         _______ _______ _______ _____ _____    ______ ____
ROOT
ATOM      1  C   UNL     1      -0.019   1.526   0.010  0.00  0.00    +0.029 C 
ATOM      2  C   UNL     1       0.002  -0.004   0.002  0.00  0.00    +0.137 C 
ENDROOT
BRANCH   2   3
ATOM      3  C   UNL     1       0.731  -0.503   1.223  0.00  0.00    +0.231 C 
ATOM      4  O   UNL     1       0.105  -0.891   2.187  0.00  0.00    -0.274 OA
ATOM      5  N   UNL     1       2.079  -0.519   1.244  0.00  0.00    -0.278 N 
ATOM      6  H   UNL     1       2.579  -0.208   0.473  0.00  0.00    +0.155 HD
BRANCH   5   7
ATOM      7  C   UNL     1       2.750  -0.979   2.369  0.00  0.00    +0.090 A 
ATOM      8  C   UNL     1       4.116  -1.061   2.569  0.00  0.00    +0.084 A 
ATOM      9  C   UNL     1       4.575  -1.584   3.848  0.00  0.00    -0.018 A 
ATOM     10  C   UNL     1       3.577  -1.933   4.686  0.00  0.00    -0.004 A 
ATOM     11  S   UNL     1       2.091  -1.556   3.800  0.00  0.00    -0.077 S 
ATOM     12  C   UNL     1       3.697  -2.517   6.059  0.00  0.00    +0.043 C 
ATOM     13  C   UNL     1       4.697  -1.685   6.874  0.00  0.00    +0.005 C 
ATOM     14  C   UNL     1       6.095  -2.259   6.662  0.00  0.00    +0.001 C 
ATOM     15  C   UNL     1       6.226  -2.821   5.248  0.00  0.00    +0.005 C 
ATOM     16  C   UNL     1       6.047  -1.713   4.214  0.00  0.00    +0.037 C 
BRANCH   8  17
ATOM     17  C   UNL     1       5.043  -0.648   1.559  0.00  0.00    +0.102 C 
ATOM     18  N   UNL     1       5.777  -0.320   0.757  0.00  0.00    -0.191 NA
ENDBRANCH   8  17
ENDBRANCH   5   7
ENDBRANCH   2   3
BRANCH   2  19
ATOM     19  S   UNL     1      -1.700  -0.632   0.015  0.00  0.00    -0.072 S 
BRANCH  19  20
ATOM     20  C   UNL     1      -2.365  -0.093  -1.525  0.00  0.00    +0.210 A 
ATOM     21  N   UNL     1      -3.606  -0.324  -1.953  0.00  0.00    -0.202 NA
ATOM     22  C   UNL     1      -3.775   0.220  -3.147  0.00  0.00    +0.150 A 
ATOM     23  N   UNL     1      -2.604   0.818  -3.498  0.00  0.00    -0.258 N 
ATOM     24  N   UNL     1      -1.717   0.603  -2.432  0.00  0.00    -0.145 NA
ATOM     25  H   UNL     1      -2.421   1.299  -4.320  0.00  0.00    +0.191 HD
BRANCH  22  26
ATOM     26  C   UNL     1      -5.003   0.183  -3.948  0.00  0.00    +0.048 C 
ATOM     27  C   UNL     1      -6.095  -0.447  -3.478  0.00  0.00    +0.011 C 
BRANCH  27  28
ATOM     28  C   UNL     1      -7.328  -0.483  -4.282  0.00  0.00    -0.025 A 
ATOM     29  C   UNL     1      -7.365   0.131  -5.538  0.00  0.00    +0.011 A 
ATOM     30  C   UNL     1      -8.522   0.093  -6.286  0.00  0.00    +0.039 A 
ATOM     31  C   UNL     1      -9.648  -0.551  -5.796  0.00  0.00    +0.123 A 
ATOM     32  C   UNL     1      -9.617  -1.161  -4.551  0.00  0.00    +0.039 A 
ATOM     33  C   UNL     1      -8.464  -1.137  -3.796  0.00  0.00    +0.011 A 
ATOM     34  F   UNL     1     -10.779  -0.584  -6.534  0.00  0.00    -0.205 F 
ENDBRANCH  27  28
ENDBRANCH  22  26
ENDBRANCH  19  20
ENDBRANCH   2  19
TORSDOF 7
