REMARK  Name = ZINC66851226
REMARK  3 active torsions:
REMARK  status: ('A' for Active; 'I' for Inactive)
REMARK    1  A    between atoms: C_6  and  C_7
REMARK    2  A    between atoms: N_10  and  C_14
REMARK    3  A    between atoms: C_14  and  C_15
REMARK                            x       y       z     vdW  Elec       q    Type
REMARK                         _______ _______ _______ _____ _____    ______ ____
ROOT
ATOM      1  C   UNL     1      -1.293  -0.775   0.011  0.00  0.00    +0.162 C 
ATOM      2  C   UNL     1      -1.653  -1.154   1.450  0.00  0.00    +0.121 C 
ATOM      3  N   UNL     1      -2.875  -1.971   1.445  0.00  0.00    -0.290 NA
ATOM      4  C   UNL     1      -2.687  -3.184   0.636  0.00  0.00    +0.113 C 
ATOM      5  C   UNL     1      -2.317  -2.785  -0.795  0.00  0.00    +0.176 C 
ATOM      6  O   UNL     1      -1.146  -1.965  -0.769  0.00  0.00    -0.369 OA
ENDROOT
BRANCH   1  12
ATOM      7  C   UNL     1      -0.017   1.378   0.010  0.00  0.00    +0.008 A 
ATOM      8  C   UNL     1       1.171   2.086   0.002  0.00  0.00    +0.022 A 
ATOM      9  C   UNL     1       2.378   1.412  -0.013  0.00  0.00    +0.059 A 
ATOM     10  C   UNL     1       2.397   0.027  -0.021  0.00  0.00    +0.060 A 
ATOM     11  C   UNL     1       1.208  -0.680  -0.013  0.00  0.00    +0.027 A 
ATOM     12  C   UNL     1       0.002  -0.004   0.002  0.00  0.00    -0.016 A 
ATOM     13 CL   UNL     1       3.912  -0.821  -0.040  0.00  0.00    -0.082 Cl
ATOM     14 CL   UNL     1       3.869   2.301  -0.023  0.00  0.00    -0.082 Cl
ENDBRANCH   1  12
BRANCH   3  15
ATOM     15  C   UNL     1      -3.287  -2.309   2.814  0.00  0.00    +0.161 C 
BRANCH  15  16
ATOM     16  C   UNL     1      -4.660  -2.929   2.786  0.00  0.00    +0.150 A 
ATOM     17  N   UNL     1      -5.732  -2.162   2.883  0.00  0.00    -0.198 NA
ATOM     18  C   UNL     1      -6.947  -2.706   2.858  0.00  0.00    +0.217 A 
ATOM     19  N   UNL     1      -7.081  -4.022   2.736  0.00  0.00    -0.181 NA
ATOM     20  C   UNL     1      -6.001  -4.790   2.638  0.00  0.00    +0.217 A 
ATOM     21  N   UNL     1      -4.790  -4.238   2.659  0.00  0.00    -0.198 NA
ATOM     22  N   UNL     1      -6.136  -6.158   2.511  0.00  0.00    -0.327 N 
ATOM     23  N   UNL     1      -8.065  -1.904   2.960  0.00  0.00    -0.327 N 
ATOM     24  H   UNL     1      -7.019  -6.559   2.492  0.00  0.00    +0.145 HD
ATOM     25  H   UNL     1      -5.347  -6.718   2.440  0.00  0.00    +0.145 HD
ATOM     26  H   UNL     1      -7.966  -0.943   3.050  0.00  0.00    +0.145 HD
ATOM     27  H   UNL     1      -8.950  -2.301   2.942  0.00  0.00    +0.145 HD
ENDBRANCH  15  16
ENDBRANCH   3  15
TORSDOF 3
