REMARK  Name = ZINC26279490
REMARK  8 active torsions:
REMARK  status: ('A' for Active; 'I' for Inactive)
REMARK    1  A    between atoms: C_4  and  C_7
REMARK    2  A    between atoms: C_7  and  C_8
REMARK    3  A    between atoms: C_8  and  C_10
REMARK    4  A    between atoms: C_8  and  N_26
REMARK    5  A    between atoms: C_29  and  C_34
REMARK    6  A    between atoms: C_34  and  C_35
REMARK    7  A    between atoms: C_35  and  C_36
REMARK    8  A    between atoms: C_36  and  N_37
REMARK                            x       y       z     vdW  Elec       q    Type
REMARK                         _______ _______ _______ _____ _____    ______ ____
ROOT
ATOM      1  C   UNL     1      -0.574  -0.360   6.882  0.00  0.00    +0.176 C 
ENDROOT
BRANCH   1   2
ATOM      2  C   UNL     1      -1.556   0.226   7.864  0.00  0.00    +0.237 C 
ATOM      3  O   UNL     1      -2.243   1.172   7.542  0.00  0.00    -0.274 OA
ATOM      4  N   UNL     1      -1.671  -0.302   9.098  0.00  0.00    -0.300 N 
ATOM      5  C   UNL     1      -2.697   0.188  10.028  0.00  0.00    +0.108 C 
ATOM      6  C   UNL     1      -2.026   0.595  11.340  0.00  0.00    +0.030 C 
ATOM      7  C   UNL     1      -1.188  -0.567  11.865  0.00  0.00    -0.001 C 
ATOM      8  C   UNL     1      -2.093  -1.780  12.148  0.00  0.00    +0.016 C 
ATOM      9  C   UNL     1      -1.418  -2.411  13.386  0.00  0.00    +0.036 C 
ATOM     10  C   UNL     1      -0.696  -1.270  14.069  0.00  0.00    -0.044 A 
ATOM     11  C   UNL     1      -0.564  -0.208  13.192  0.00  0.00    -0.038 A 
ATOM     12  C   UNL     1       0.068   0.952  13.607  0.00  0.00    +0.004 A 
ATOM     13  C   UNL     1       0.568   1.052  14.890  0.00  0.00    +0.000 A 
ATOM     14  C   UNL     1       0.437  -0.009  15.766  0.00  0.00    +0.000 A 
ATOM     15  C   UNL     1      -0.194  -1.168  15.355  0.00  0.00    +0.004 A 
ATOM     16  C   UNL     1      -0.107  -0.948  10.857  0.00  0.00    +0.030 C 
ATOM     17  C   UNL     1      -0.767  -1.373   9.541  0.00  0.00    +0.108 C 
ENDBRANCH   1   2
BRANCH   1  18
ATOM     18  N   UNL     1      -0.348   0.591   5.791  0.00  0.00    -0.212 N 
ATOM     19  C   UNL     1       0.853   1.119   5.483  0.00  0.00    +0.244 C 
ATOM     20  O   UNL     1       1.911   0.905   6.036  0.00  0.00    -0.273 OA
ATOM     21  C   UNL     1       0.607   2.036   4.301  0.00  0.00    +0.161 C 
ATOM     22  N   UNL     1      -0.840   1.906   4.057  0.00  0.00    -0.288 N 
ATOM     23  C   UNL     1      -1.309   1.042   4.976  0.00  0.00    +0.310 C 
ATOM     24  O   UNL     1      -2.475   0.709   5.057  0.00  0.00    -0.252 OA
ATOM     25  H   UNL     1      -1.313   2.470   3.240  0.00  0.00    +0.151 HD
BRANCH  21  26
ATOM     26  C   UNL     1       1.403   1.567   3.081  0.00  0.00    +0.033 C 
BRANCH  26  27
ATOM     27  C   UNL     1       1.148   2.518   1.910  0.00  0.00    +0.023 C 
BRANCH  27  28
ATOM     28  C   UNL     1       1.944   2.049   0.690  0.00  0.00    +0.115 C 
BRANCH  28  29
ATOM     29  N   UNL     1       1.700   2.959  -0.431  0.00  0.00    -0.358 N 
ATOM     30  C   UNL     1       2.313   2.738  -1.642  0.00  0.00    +0.166 C 
ATOM     31  N   UNL     1       3.110   1.718  -1.792  0.00  0.00    -0.372 N 
ATOM     32  N   UNL     1       2.084   3.592  -2.695  0.00  0.00    -0.372 N 
ATOM     33  H   UNL     1       1.027   3.820  -0.305  0.00  0.00    +0.162 HD
ATOM     34  H   UNL     1       3.600   1.541  -2.761  0.00  0.00    +0.159 HD
ATOM     35  H   UNL     1       2.574   3.415  -3.663  0.00  0.00    +0.159 HD
ATOM     36  H   UNL     1       1.411   4.453  -2.568  0.00  0.00    +0.159 HD
ATOM     37  H   UNL     1       3.293   1.034  -0.950  0.00  0.00    +0.159 HD
ENDBRANCH  28  29
ENDBRANCH  27  28
ENDBRANCH  26  27
ENDBRANCH  21  26
ENDBRANCH   1  18
BRANCH   1  38
ATOM     38  C   UNL     1      -1.137  -1.664   6.314  0.00  0.00    +0.067 C 
BRANCH  38  42
ATOM     39  C   UNL     1       1.791  -3.506   3.807  0.00  0.00    +0.000 A 
ATOM     40  C   UNL     1       1.749  -3.805   5.155  0.00  0.00    +0.000 A 
ATOM     41  C   UNL     1       0.802  -3.209   5.967  0.00  0.00    +0.004 A 
ATOM     42  C   UNL     1      -0.104  -2.314   5.429  0.00  0.00    -0.045 A 
ATOM     43  C   UNL     1      -0.065  -2.018   4.079  0.00  0.00    +0.004 A 
ATOM     44  C   UNL     1       0.885  -2.611   3.269  0.00  0.00    +0.000 A 
ENDBRANCH  38  42
ENDBRANCH   1  38
TORSDOF 8
