REMARK  Name = ZINC43619347
REMARK  9 active torsions:
REMARK  status: ('A' for Active; 'I' for Inactive)
REMARK    1  A    between atoms: C_1  and  C_2
REMARK    2  A    between atoms: C_9  and  C_26
REMARK    3  A    between atoms: C_10  and  C_11
REMARK    4  A    between atoms: C_11  and  N_12
REMARK    5  A    between atoms: N_12  and  C_13
REMARK    6  A    between atoms: C_13  and  C_14
REMARK    7  A    between atoms: C_14  and  C_15
REMARK    8  A    between atoms: C_23  and  C_24
REMARK    9  A    between atoms: C_23  and  C_25
REMARK                            x       y       z     vdW  Elec       q    Type
REMARK                         _______ _______ _______ _____ _____    ______ ____
ROOT
ATOM      1  C   UNL     1       0.744   1.435   0.017  0.00  0.00    +0.047 C 
ATOM      2  C   UNL     1       0.454  -0.044   0.006  0.00  0.00    -0.008 A 
ATOM      3  C   UNL     1       0.357  -0.715  -1.171  0.00  0.00    +0.008 A 
ATOM      4  C   UNL     1       0.085  -2.094  -1.167  0.00  0.00    +0.018 A 
ATOM      5  C   UNL     1      -0.080  -2.752  -0.002  0.00  0.00    +0.093 A 
ATOM      6  N   UNL     1       0.014  -2.092   1.191  0.00  0.00    -0.304 N 
ATOM      7  C   UNL     1       0.285  -0.746   1.219  0.00  0.00    +0.141 A 
ATOM      8  N   UNL     1       0.329  -0.356   2.482  0.00  0.00    -0.223 NA
ATOM      9  C   UNL     1       0.100  -1.418   3.277  0.00  0.00    +0.146 A 
ATOM     10  C   UNL     1      -0.107  -2.509   2.482  0.00  0.00    +0.039 A 
ENDROOT
BRANCH   9  11
ATOM     11  C   UNL     1       0.065  -1.403   4.752  0.00  0.00    +0.267 C 
ATOM     12  O   UNL     1      -0.046  -2.445   5.368  0.00  0.00    -0.268 OA
ATOM     13  N   UNL     1       0.157  -0.234   5.417  0.00  0.00    -0.296 N 
ATOM     14  C   UNL     1       0.128   1.044   4.691  0.00  0.00    +0.108 C 
ATOM     15  C   UNL     1      -0.967   1.929   5.296  0.00  0.00    +0.019 C 
ATOM     16  C   UNL     1      -0.732   2.066   6.802  0.00  0.00    +0.003 C 
ATOM     17  C   UNL     1      -0.809   0.687   7.460  0.00  0.00    +0.019 C 
ATOM     18  C   UNL     1       0.281  -0.212   6.880  0.00  0.00    +0.108 C 
ENDBRANCH   9  11
BRANCH  10  19
ATOM     19  C   UNL     1      -0.399  -3.913   2.945  0.00  0.00    -0.025 C 
BRANCH  19  20
ATOM     20  N   UNL     1       0.864  -4.637   3.137  0.00  0.00    +0.383 N 
ATOM     21  H   UNL     1       1.369  -4.670   2.264  0.00  0.00    -0.085 HD
ATOM     22  H   UNL     1       1.422  -4.163   3.831  0.00  0.00    -0.085 HD
BRANCH  20  23
ATOM     23  C   UNL     1       0.580  -6.006   3.589  0.00  0.00    -0.078 C 
BRANCH  23  24
ATOM     24  C   UNL     1       1.895  -6.761   3.789  0.00  0.00    +0.012 C 
BRANCH  24  25
ATOM     25  C   UNL     1       1.604  -8.165   4.253  0.00  0.00    -0.072 C 
ATOM     26  C   UNL     1       1.537  -9.164   3.403  0.00  0.00    -0.027 C 
ATOM     27  C   UNL     1       1.251 -10.556   3.910  0.00  0.00    +0.031 C 
ATOM     28  C   UNL     1       1.003 -10.515   5.424  0.00  0.00    -0.000 C 
ATOM     29  C   UNL     1       0.076  -9.362   5.846  0.00  0.00    +0.012 C 
ATOM     30  C   UNL     1       1.382  -8.480   5.722  0.00  0.00    +0.021 C 
ATOM     31  C   UNL     1       2.133  -9.751   6.144  0.00  0.00    -0.025 C 
ATOM     32  C   UNL     1       2.168  -9.977   7.657  0.00  0.00    +0.012 C 
ATOM     33  C   UNL     1       3.504  -9.905   5.482  0.00  0.00    +0.012 C 
ENDBRANCH  24  25
ENDBRANCH  23  24
ENDBRANCH  20  23
ENDBRANCH  19  20
ENDBRANCH  10  19
TORSDOF 6
