REMARK  Name = ZINC09635497
REMARK  8 active torsions:
REMARK  status: ('A' for Active; 'I' for Inactive)
REMARK    1  A    between atoms: C_1  and  C_2
REMARK    2  A    between atoms: C_2  and  C_32
REMARK    3  A    between atoms: N_9  and  C_31
REMARK    4  A    between atoms: C_11  and  C_12
REMARK    5  A    between atoms: N_13  and  N_14
REMARK    6  A    between atoms: C_15  and  C_17
REMARK    7  A    between atoms: C_21  and  S_23
REMARK    8  A    between atoms: S_23  and  N_26
REMARK                            x       y       z     vdW  Elec       q    Type
REMARK                         _______ _______ _______ _____ _____    ______ ____
ROOT
ATOM      1  N   UNL     1       1.342   8.276   0.075  0.00  0.00    -0.203 N 
ATOM      2  C   UNL     1       1.735   9.560  -0.038  0.00  0.00    +0.263 C 
ATOM      3  O   UNL     1       2.907   9.823  -0.231  0.00  0.00    -0.268 OA
ATOM      4  H   UNL     1       0.407   8.067   0.229  0.00  0.00    +0.178 HD
ENDROOT
BRANCH   2   5
ATOM      5  C   UNL     1       0.743  10.650   0.073  0.00  0.00    +0.040 A 
ATOM      6  C   UNL     1      -0.604  10.352   0.288  0.00  0.00    +0.013 A 
ATOM      7  C   UNL     1      -1.525  11.373   0.395  0.00  0.00    +0.003 A 
ATOM      8  C   UNL     1      -1.118  12.691   0.279  0.00  0.00    +0.028 A 
ATOM      9  C   UNL     1       0.215  12.993   0.060  0.00  0.00    +0.106 A 
ATOM     10  C   UNL     1       1.147  11.981  -0.044  0.00  0.00    +0.041 A 
BRANCH   9  11
ATOM     11  S   UNL     1       0.722  14.674  -0.087  0.00  0.00    +0.061 S 
ATOM     12  O   UNL     1      -0.253  15.453   0.591  0.00  0.00    -0.153 OA
ATOM     13  O   UNL     1       2.101  14.713   0.256  0.00  0.00    -0.153 OA
BRANCH  11  14
ATOM     14  N   UNL     1       0.621  15.078  -1.690  0.00  0.00    -0.177 NA
ATOM     15  C   UNL     1       1.700  14.938  -2.678  0.00  0.00    +0.109 C 
ATOM     16  C   UNL     1       1.158  15.460  -4.025  0.00  0.00    +0.018 C 
ATOM     17  C   UNL     1      -0.002  16.395  -3.592  0.00  0.00    +0.018 C 
ATOM     18  C   UNL     1      -0.564  15.643  -2.360  0.00  0.00    +0.109 C 
ENDBRANCH  11  14
ENDBRANCH   9  11
ENDBRANCH   2   5
BRANCH   1  20
ATOM     19  C   UNL     1       1.903   6.003   0.080  0.00  0.00    +0.132 C 
ATOM     20  N   UNL     1       2.283   7.244  -0.030  0.00  0.00    -0.188 NA
BRANCH  19  31
ATOM     21  C   UNL     1       4.196   2.397   1.292  0.00  0.00    +0.022 C 
ATOM     22  C   UNL     1       3.363   2.416   0.008  0.00  0.00    +0.030 C 
ATOM     23  C   UNL     1       2.393   1.257  -0.010  0.00  0.00    -0.015 A 
ATOM     24  C   UNL     1       2.576  -0.108   0.009  0.00  0.00    +0.006 A 
ATOM     25  C   UNL     1       1.480  -0.953  -0.017  0.00  0.00    +0.000 A 
ATOM     26  C   UNL     1       0.203  -0.422  -0.061  0.00  0.00    +0.002 A 
ATOM     27  C   UNL     1       0.016   0.944  -0.080  0.00  0.00    +0.024 A 
ATOM     28  C   UNL     1       1.116   1.802  -0.055  0.00  0.00    +0.038 A 
ATOM     29  N   UNL     1       1.179   3.194  -0.066  0.00  0.00    -0.306 N 
ATOM     30  C   UNL     1       2.479   3.644  -0.030  0.00  0.00    +0.022 C 
ATOM     31  C   UNL     1       2.885   4.926  -0.030  0.00  0.00    +0.041 C 
ATOM     32  C   UNL     1       0.005   4.070  -0.110  0.00  0.00    +0.135 C 
ATOM     33  C   UNL     1       4.273   2.372  -1.222  0.00  0.00    +0.022 C 
ENDBRANCH  19  31
ENDBRANCH   1  20
TORSDOF 5
