REMARK  Name = ZINC04083225
REMARK  5 active torsions:
REMARK  status: ('A' for Active; 'I' for Inactive)
REMARK    1  A    between atoms: C_3  and  C_13
REMARK    2  A    between atoms: N_4  and  C_6
REMARK    3  A    between atoms: C_14  and  C_15
REMARK    4  A    between atoms: C_14  and  C_17
REMARK    5  A    between atoms: N_19  and  C_20
REMARK                            x       y       z     vdW  Elec       q    Type
REMARK                         _______ _______ _______ _____ _____    ______ ____
ROOT
ATOM      1  C   UNL     1       3.545   2.421  -1.791  0.00  0.00    +0.050 C 
ATOM      2  C   UNL     1       2.537   3.370  -1.861  0.00  0.00    +0.116 C 
ENDROOT
BRANCH   1   5
ATOM      3  C   UNL     1       2.659  -0.107   0.624  0.00  0.00    +0.020 A 
ATOM      4  C   UNL     1       2.327   1.024  -0.122  0.00  0.00    +0.027 A 
ATOM      5  C   UNL     1       3.438   1.345  -0.892  0.00  0.00    +0.048 A 
ATOM      6  N   UNL     1       4.415   0.410  -0.614  0.00  0.00    -0.316 N 
ATOM      7  C   UNL     1       3.931  -0.461   0.308  0.00  0.00    +0.092 A 
BRANCH   6   8
ATOM      8  C   UNL     1       5.695   0.370  -1.184  0.00  0.00    +0.047 A 
ATOM      9  C   UNL     1       6.819   0.380  -0.370  0.00  0.00    +0.027 A 
ATOM     10  C   UNL     1       8.079   0.346  -0.934  0.00  0.00    +0.022 A 
ATOM     11  C   UNL     1       8.222   0.291  -2.309  0.00  0.00    +0.041 A 
ATOM     12  C   UNL     1       7.102   0.281  -3.123  0.00  0.00    +0.022 A 
ATOM     13  C   UNL     1       5.840   0.320  -2.564  0.00  0.00    +0.027 A 
ATOM     14 CL   UNL     1       9.807   0.242  -3.016  0.00  0.00    -0.084 Cl
ENDBRANCH   6   8
ENDBRANCH   1   5
BRANCH   2  15
ATOM     15  C   UNL     1       2.562   4.391  -2.914  0.00  0.00    +0.259 C 
ATOM     16  O   UNL     1       3.467   4.406  -3.727  0.00  0.00    -0.269 OA
ATOM     17  N   UNL     1       1.581   5.314  -2.982  0.00  0.00    -0.280 N 
ATOM     18  H   UNL     1       0.825   5.263  -2.377  0.00  0.00    +0.155 HD
BRANCH  17  19
ATOM     19  C   UNL     1       1.655   6.345  -3.925  0.00  0.00    +0.052 A 
ATOM     20  C   UNL     1       2.222   6.110  -5.170  0.00  0.00    +0.026 A 
ATOM     21  C   UNL     1       2.293   7.130  -6.099  0.00  0.00    +0.022 A 
ATOM     22  C   UNL     1       1.799   8.385  -5.791  0.00  0.00    +0.042 A 
ATOM     23  C   UNL     1       1.232   8.623  -4.551  0.00  0.00    +0.041 A 
ATOM     24  C   UNL     1       1.154   7.605  -3.619  0.00  0.00    +0.064 A 
ATOM     25 CL   UNL     1       0.438   7.902  -2.066  0.00  0.00    -0.082 Cl
ATOM     26 CL   UNL     1       1.890   9.664  -6.961  0.00  0.00    -0.083 Cl
ENDBRANCH  17  19
ENDBRANCH   2  15
BRANCH   2  27
ATOM     27  C   UNL     1       1.471   3.353  -0.904  0.00  0.00    +0.104 C 
ATOM     28  N   UNL     1       0.626   3.340  -0.146  0.00  0.00    -0.191 NA
ENDBRANCH   2  27
TORSDOF 5
