REMARK  Name = ZINC39465138
REMARK  8 active torsions:
REMARK  status: ('A' for Active; 'I' for Inactive)
REMARK    1  A    between atoms: C_1  and  C_2
REMARK    2  A    between atoms: C_2  and  C_3
REMARK    3  A    between atoms: C_2  and  S_4
REMARK    4  A    between atoms: S_4  and  C_7
REMARK    5  A    between atoms: C_12  and  C_13
REMARK    6  A    between atoms: C_18  and  O_19
REMARK    7  A    between atoms: P_24  and  S_30
REMARK    8  A    between atoms: S_30  and  C_31
REMARK                            x       y       z     vdW  Elec       q    Type
REMARK                         _______ _______ _______ _____ _____    ______ ____
ROOT
ATOM      1  C   UNL     1       0.165   0.009   2.903  0.00  0.00    +0.097 A 
ATOM      2  C   UNL     1      -0.405  -0.835   3.832  0.00  0.00    +0.031 A 
ATOM      3  C   UNL     1      -1.482  -0.414   4.598  0.00  0.00    -0.039 A 
ATOM      4  C   UNL     1      -1.993   0.858   4.436  0.00  0.00    -0.023 A 
ATOM      5  C   UNL     1      -1.427   1.712   3.504  0.00  0.00    +0.016 A 
ATOM      6  C   UNL     1      -0.344   1.296   2.737  0.00  0.00    +0.011 A 
ATOM      7  C   UNL     1      -3.159   1.361   5.246  0.00  0.00    +0.129 C 
ATOM      8  C   UNL     1      -4.111   2.132   4.326  0.00  0.00    +0.195 C 
ATOM      9  O   UNL     1      -5.161   2.709   5.127  0.00  0.00    -0.307 OA
ATOM     10  P   UNL     1      -5.949   1.746   6.175  0.00  0.00    +0.341 P 
ATOM     11  O   UNL     1      -6.991   0.968   5.469  0.00  0.00    -0.259 OA
ATOM     12  N   UNL     1      -4.801   0.732   6.796  0.00  0.00    -0.170 NA
ATOM     13  N   UNL     1      -3.865   0.258   5.899  0.00  0.00    -0.225 NA
ATOM     14  C   UNL     1      -2.923  -0.624   6.605  0.00  0.00    +0.108 C 
ATOM     15  C   UNL     1      -2.071  -1.375   5.599  0.00  0.00    +0.052 C 
ATOM     16  H   UNL     1      -4.795   0.481   7.733  0.00  0.00    +0.152 HD
ENDROOT
BRANCH   6  17
ATOM     17  C   UNL     1       0.264   2.215   1.744  0.00  0.00    +0.025 A 
ATOM     18  C   UNL     1       1.122   3.229   2.163  0.00  0.00    +0.012 A 
ATOM     19  C   UNL     1       1.685   4.082   1.235  0.00  0.00    +0.001 A 
ATOM     20  C   UNL     1       1.400   3.934  -0.111  0.00  0.00    +0.004 A 
ATOM     21  C   UNL     1       0.550   2.931  -0.537  0.00  0.00    +0.046 A 
ATOM     22  C   UNL     1      -0.018   2.064   0.383  0.00  0.00    +0.125 A 
BRANCH  22  23
ATOM     23  O   UNL     1      -0.849   1.074  -0.036  0.00  0.00    -0.506 OA
ATOM     24  H   UNL     1      -1.768   1.354  -0.149  0.00  0.00    +0.292 HD
ENDBRANCH  22  23
ENDBRANCH   6  17
BRANCH   1  25
ATOM     25  S   UNL     1       1.533  -0.535   1.935  0.00  0.00    -0.000 S 
ATOM     26  O   UNL     1       1.172  -0.232   0.594  0.00  0.00    -0.169 OA
ATOM     27  O   UNL     1       1.752  -1.879   2.339  0.00  0.00    -0.169 OA
BRANCH  25  29
ATOM     28  C   UNL     1       3.087   0.411   3.977  0.00  0.00    +0.032 C 
ATOM     29  C   UNL     1       2.920   0.510   2.460  0.00  0.00    +0.130 C 
ATOM     30  C   UNL     1       4.203   0.037   1.774  0.00  0.00    +0.032 C 
ENDBRANCH  25  29
ENDBRANCH   1  25
BRANCH  10  31
ATOM     31  S   UNL     1      -6.822   2.905   7.720  0.00  0.00    -0.056 S 
ATOM     32  C   UNL     1      -7.955   4.020   6.846  0.00  0.00    +0.096 C 
ENDBRANCH  10  31
TORSDOF 5
