REMARK  Name = ZINC16887831
REMARK  6 active torsions:
REMARK  status: ('A' for Active; 'I' for Inactive)
REMARK    1  A    between atoms: C_1  and  C_2
REMARK    2  A    between atoms: C_3  and  N_14
REMARK    3  A    between atoms: C_4  and  C_8
REMARK    4  A    between atoms: C_15  and  C_16
REMARK    5  A    between atoms: C_15  and  C_18
REMARK    6  A    between atoms: C_21  and  N_24
REMARK                            x       y       z     vdW  Elec       q    Type
REMARK                         _______ _______ _______ _____ _____    ______ ____
ROOT
ATOM      1  C   UNL     1       0.403   3.932   2.655  0.00  0.00    +0.070 C 
ATOM      2  C   UNL     1       0.668   4.382   1.242  0.00  0.00    +0.086 A 
ATOM      3  C   UNL     1      -0.183   4.169   0.135  0.00  0.00    +0.113 A 
ATOM      4  C   UNL     1       0.436   4.750  -0.975  0.00  0.00    +0.091 A 
ATOM      5  N   UNL     1       1.612   5.280  -0.539  0.00  0.00    -0.275 N 
ATOM      6  H   UNL     1       2.281   5.765  -1.102  0.00  0.00    +0.189 HD
ATOM      7  N   UNL     1       1.723   5.031   0.833  0.00  0.00    -0.176 NA
ENDROOT
BRANCH   4   8
ATOM      8  C   UNL     1      -0.084   4.783  -2.356  0.00  0.00    +0.002 A 
ATOM      9  C   UNL     1      -0.627   3.631  -2.929  0.00  0.00    +0.010 A 
ATOM     10  C   UNL     1      -1.117   3.671  -4.217  0.00  0.00    +0.001 A 
ATOM     11  C   UNL     1      -1.061   4.846  -4.946  0.00  0.00    +0.000 A 
ATOM     12  C   UNL     1      -0.520   5.990  -4.387  0.00  0.00    +0.001 A 
ATOM     13  C   UNL     1      -0.032   5.966  -3.097  0.00  0.00    +0.010 A 
ENDBRANCH   4   8
BRANCH   3  14
ATOM     14  N   UNL     1      -1.379   3.526   0.147  0.00  0.00    -0.232 NA
ATOM     15  C   UNL     1      -1.449   2.261  -0.197  0.00  0.00    +0.148 C 
BRANCH  15  16
ATOM     16  C   UNL     1      -0.210   1.499  -0.468  0.00  0.00    +0.011 A 
ATOM     17  C   UNL     1      -0.135   0.655  -1.577  0.00  0.00    +0.013 A 
ATOM     18  C   UNL     1       1.022  -0.058  -1.820  0.00  0.00    +0.033 A 
ATOM     19  C   UNL     1       2.105   0.064  -0.968  0.00  0.00    +0.126 A 
ATOM     20  C   UNL     1       2.037   0.899   0.133  0.00  0.00    +0.033 A 
ATOM     21  C   UNL     1       0.886   1.617   0.388  0.00  0.00    +0.013 A 
BRANCH  19  22
ATOM     22  N   UNL     1       3.342  -0.704  -1.235  0.00  0.00    +0.056 N 
ATOM     23  O   UNL     1       4.297  -0.600  -0.486  0.00  0.00    -0.126 OA
ATOM     24  O   UNL     1       3.405  -1.440  -2.203  0.00  0.00    -0.126 OA
ENDBRANCH  19  22
ENDBRANCH  15  16
BRANCH  15  25
ATOM     25  C   UNL     1      -2.724   1.619  -0.312  0.00  0.00    +0.120 C 
ATOM     26  N   UNL     1      -3.735   1.110  -0.402  0.00  0.00    -0.189 NA
ENDBRANCH  15  25
ENDBRANCH   3  14
TORSDOF 5
