REMARK  Name = ZINC06193380
REMARK  13 active torsions:
REMARK  status: ('A' for Active; 'I' for Inactive)
REMARK    1  A    between atoms: C_1  and  C_2
REMARK    2  A    between atoms: C_2  and  N_3
REMARK    3  A    between atoms: N_3  and  C_4
REMARK    4  A    between atoms: N_3  and  C_6
REMARK    5  A    between atoms: C_4  and  C_5
REMARK    6  A    between atoms: C_6  and  C_7
REMARK    7  A    between atoms: C_7  and  N_8
REMARK    8  A    between atoms: N_8  and  C_9
REMARK    9  A    between atoms: N_8  and  C_26
REMARK   10  A    between atoms: C_9  and  C_10
REMARK   11  A    between atoms: C_26  and  N_28
REMARK   12  A    between atoms: N_28  and  C_29
REMARK   13  A    between atoms: C_29  and  C_30
REMARK                            x       y       z     vdW  Elec       q    Type
REMARK                         _______ _______ _______ _____ _____    ______ ____
ROOT
ATOM      1  N   UNL     1      -1.382  -3.580  -1.830  0.00  0.00    -0.310 N 
ENDROOT
BRANCH   1   2
ATOM      2  C   UNL     1      -1.435  -4.064  -3.087  0.00  0.00    +0.133 C 
ATOM      3  S   UNL     1      -1.700  -5.734  -3.351  0.00  0.00    -0.019 S 
BRANCH   2   4
ATOM      4  N   UNL     1      -1.279  -3.232  -4.136  0.00  0.00    -0.324 N 
ATOM      5  H   UNL     1      -1.128  -2.285  -3.986  0.00  0.00    +0.148 HD
BRANCH   4   6
ATOM      6  C   UNL     1      -1.336  -3.757  -5.502  0.00  0.00    +0.134 C 
BRANCH   6   7
ATOM      7  C   UNL     1      -1.130  -2.613  -6.497  0.00  0.00    +0.135 C 
ATOM      8  C   UNL     1      -1.309  -3.135  -7.939  0.00  0.00    +0.035 C 
ATOM      9  C   UNL     1      -0.195  -2.372  -8.706  0.00  0.00    +0.031 C 
ATOM     10  C   UNL     1       0.908  -2.293  -7.621  0.00  0.00    +0.160 C 
ATOM     11  O   UNL     1       0.203  -2.103  -6.382  0.00  0.00    -0.375 OA
ENDBRANCH   6   7
ENDBRANCH   4   6
ENDBRANCH   2   4
ENDBRANCH   1   2
BRANCH   1  12
ATOM     12  C   UNL     1      -1.155  -2.151  -1.603  0.00  0.00    +0.088 C 
BRANCH  12  13
ATOM     13  C   UNL     1       0.348  -1.884  -1.496  0.00  0.00    -0.060 C 
BRANCH  13  14
ATOM     14  N   UNL     1       0.576  -0.451  -1.269  0.00  0.00    +0.380 N 
ATOM     15  H   UNL     1       0.124   0.081  -1.998  0.00  0.00    -0.082 HD
BRANCH  14  17
ATOM     16  C   UNL     1       0.129   1.449   0.210  0.00  0.00    -0.017 C 
ATOM     17  C   UNL     1       0.019  -0.067   0.035  0.00  0.00    -0.082 C 
ENDBRANCH  14  17
BRANCH  14  18
ATOM     18  C   UNL     1       2.019  -0.176  -1.285  0.00  0.00    -0.082 C 
ATOM     19  C   UNL     1       2.573  -0.440  -2.687  0.00  0.00    -0.017 C 
ENDBRANCH  14  18
ENDBRANCH  13  14
ENDBRANCH  12  13
ENDBRANCH   1  12
BRANCH   1  20
ATOM     20  C   UNL     1      -1.552  -4.484  -0.690  0.00  0.00    +0.147 C 
BRANCH  20  21
ATOM     21  C   UNL     1      -3.012  -4.567  -0.327  0.00  0.00    +0.035 A 
ATOM     22  C   UNL     1      -3.775  -5.576  -0.820  0.00  0.00    +0.020 A 
ATOM     23  C   UNL     1      -5.189  -5.628  -0.449  0.00  0.00    +0.003 A 
ATOM     24  C   UNL     1      -6.024  -6.645  -0.929  0.00  0.00    +0.059 A 
ATOM     25  C   UNL     1      -7.353  -6.670  -0.561  0.00  0.00    +0.163 A 
ATOM     26  C   UNL     1      -7.867  -5.686   0.288  0.00  0.00    +0.164 A 
ATOM     27  C   UNL     1      -7.049  -4.675   0.765  0.00  0.00    +0.075 A 
ATOM     28  C   UNL     1      -5.708  -4.636   0.404  0.00  0.00    +0.053 A 
ATOM     29  N   UNL     1      -4.878  -3.636   0.870  0.00  0.00    -0.322 N 
ATOM     30  H   UNL     1      -5.237  -2.953   1.457  0.00  0.00    +0.169 HD
ATOM     31  C   UNL     1      -3.579  -3.600   0.527  0.00  0.00    +0.254 A 
ATOM     32  O   UNL     1      -2.875  -2.705   0.962  0.00  0.00    -0.268 OA
ATOM     33  O   UNL     1      -9.175  -5.708   0.662  0.00  0.00    -0.485 OA
ATOM     34  C   UNL     1     -10.057  -6.513  -0.127  0.00  0.00    +0.270 C 
ATOM     35  C   UNL     1      -9.391  -7.877  -0.352  0.00  0.00    +0.270 C 
ATOM     36  O   UNL     1      -8.153  -7.664  -1.038  0.00  0.00    -0.485 OA
ENDBRANCH  20  21
ENDBRANCH   1  20
TORSDOF 11
