REMARK  Name = ZINC39676315
REMARK  4 active torsions:
REMARK  status: ('A' for Active; 'I' for Inactive)
REMARK    1  A    between atoms: C_11  and  C_13
REMARK    2  A    between atoms: C_13  and  N_14
REMARK    3  A    between atoms: C_15  and  C_17
REMARK    4  A    between atoms: C_28  and  C_30
REMARK                            x       y       z     vdW  Elec       q    Type
REMARK                         _______ _______ _______ _____ _____    ______ ____
ROOT
ATOM      1  C   UNL     1       8.432  -0.878  -0.091  0.00  0.00    +0.100 C 
ATOM      2  C   UNL     1       8.301   0.039   1.147  0.00  0.00    +0.121 C 
ATOM      3  N   UNL     1       9.216  -0.555   2.150  0.00  0.00    -0.296 N 
ATOM      4  C   UNL     1      10.398  -0.982   1.365  0.00  0.00    +0.115 C 
ATOM      5  C   UNL     1       9.811  -1.543   0.054  0.00  0.00    -0.004 C 
ATOM      6  C   UNL     1       9.659  -3.058   0.152  0.00  0.00    -0.010 C 
ATOM      7  C   UNL     1      11.046  -3.701   0.238  0.00  0.00    -0.082 C 
ATOM      8  N   UNL     1      11.828  -3.342  -0.951  0.00  0.00    +0.379 N 
ATOM      9  C   UNL     1      12.048  -1.892  -0.988  0.00  0.00    -0.082 C 
ATOM     10  C   UNL     1      10.703  -1.173  -1.126  0.00  0.00    -0.010 C 
ATOM     11  C   UNL     1       9.017  -0.678   3.478  0.00  0.00    +0.248 C 
ATOM     12  O   UNL     1       7.947  -0.365   3.965  0.00  0.00    -0.270 OA
ATOM     13  H   UNL     1      12.719  -3.816  -0.922  0.00  0.00    -0.086 HD
ATOM     14  H   UNL     1      11.327  -3.626  -1.780  0.00  0.00    -0.086 HD
ENDROOT
BRANCH  11  15
ATOM     15  C   UNL     1      10.093  -1.191   4.336  0.00  0.00    +0.052 A 
ATOM     16  C   UNL     1      11.395  -0.906   4.073  0.00  0.00    +0.059 A 
ATOM     17  S   UNL     1      12.272  -1.675   5.278  0.00  0.00    -0.096 S 
ATOM     18  C   UNL     1      10.954  -2.418   6.200  0.00  0.00    +0.020 A 
ATOM     19  C   UNL     1       9.795  -2.019   5.507  0.00  0.00    +0.001 A 
ATOM     20  C   UNL     1       8.557  -2.459   6.013  0.00  0.00    +0.010 A 
ATOM     21  C   UNL     1       8.505  -3.240   7.141  0.00  0.00    +0.001 A 
ATOM     22  C   UNL     1       9.662  -3.615   7.809  0.00  0.00    +0.001 A 
ATOM     23  C   UNL     1      10.891  -3.207   7.329  0.00  0.00    +0.015 A 
ENDBRANCH  11  15
BRANCH   1  25
ATOM     24  N   UNL     1       6.868  -2.401  -1.255  0.00  0.00    -0.308 N 
ATOM     25  C   UNL     1       7.343  -1.920  -0.089  0.00  0.00    +0.219 C 
ATOM     26  O   UNL     1       6.895  -2.327   0.962  0.00  0.00    -0.275 OA
ATOM     27  H   UNL     1       7.227  -2.075  -2.095  0.00  0.00    +0.149 HD
BRANCH  24  28
ATOM     28  C   UNL     1       5.810  -3.414  -1.253  0.00  0.00    +0.178 C 
BRANCH  28  39
ATOM     29  C   UNL     1       5.258  -4.083  -7.584  0.00  0.00    +0.001 A 
ATOM     30  C   UNL     1       6.232  -3.141  -7.281  0.00  0.00    +0.002 A 
ATOM     31  C   UNL     1       6.528  -2.828  -5.974  0.00  0.00    +0.028 A 
ATOM     32  C   UNL     1       5.841  -3.464  -4.938  0.00  0.00    +0.078 A 
ATOM     33  C   UNL     1       4.850  -4.421  -5.250  0.00  0.00    +0.065 A 
ATOM     34  C   UNL     1       4.566  -4.723  -6.580  0.00  0.00    +0.015 A 
ATOM     35  C   UNL     1       4.144  -5.073  -4.136  0.00  0.00    +0.259 A 
ATOM     36  O   UNL     1       3.280  -5.906  -4.336  0.00  0.00    -0.267 OA
ATOM     37  N   UNL     1       4.494  -4.710  -2.880  0.00  0.00    -0.309 N 
ATOM     38  H   UNL     1       4.050  -5.119  -2.121  0.00  0.00    +0.170 HD
ATOM     39  C   UNL     1       5.462  -3.779  -2.673  0.00  0.00    +0.128 A 
ATOM     40  N   UNL     1       6.101  -3.187  -3.636  0.00  0.00    -0.232 NA
ENDBRANCH  28  39
ENDBRANCH  24  28
ENDBRANCH   1  25
TORSDOF 4
