REMARK  Name = ZINC08965575
REMARK  6 active torsions:
REMARK  status: ('A' for Active; 'I' for Inactive)
REMARK    1  A    between atoms: C_1  and  C_2
REMARK    2  A    between atoms: C_2  and  C_3
REMARK    3  A    between atoms: C_3  and  C_30
REMARK    4  A    between atoms: N_6  and  C_10
REMARK    5  A    between atoms: C_10  and  C_11
REMARK    6  A    between atoms: C_22  and  C_24
REMARK                            x       y       z     vdW  Elec       q    Type
REMARK                         _______ _______ _______ _____ _____    ______ ____
ROOT
ATOM      1  C   UNL     1      -1.228   2.155   0.020  0.00  0.00    +0.214 C 
ENDROOT
BRANCH   1   2
ATOM      2  C   UNL     1      -1.651   2.409   1.444  0.00  0.00    +0.238 C 
ATOM      3  O   UNL     1      -1.051   1.885   2.358  0.00  0.00    -0.273 OA
ATOM      4  N   UNL     1      -2.697   3.220   1.701  0.00  0.00    -0.256 N 
ATOM      5  C   UNL     1      -3.042   3.567   3.019  0.00  0.00    +0.079 A 
ATOM      6  C   UNL     1      -2.157   3.318   4.057  0.00  0.00    +0.027 A 
ATOM      7  C   UNL     1      -2.502   3.658   5.352  0.00  0.00    +0.002 A 
ATOM      8  C   UNL     1      -3.727   4.244   5.611  0.00  0.00    +0.004 A 
ATOM      9  C   UNL     1      -4.606   4.503   4.580  0.00  0.00    +0.047 A 
ATOM     10  C   UNL     1      -4.271   4.163   3.278  0.00  0.00    +0.142 A 
ATOM     11  O   UNL     1      -5.149   4.412   2.271  0.00  0.00    -0.488 OA
ATOM     12  C   UNL     1      -4.990   3.682   1.052  0.00  0.00    +0.256 C 
ATOM     13  C   UNL     1      -3.522   3.769   0.611  0.00  0.00    +0.149 C 
BRANCH  13  14
ATOM     14  C   UNL     1      -3.147   5.208   0.361  0.00  0.00    -0.023 A 
ATOM     15  C   UNL     1      -2.880   6.047   1.427  0.00  0.00    +0.005 A 
ATOM     16  C   UNL     1      -2.532   7.365   1.197  0.00  0.00    +0.000 A 
ATOM     17  C   UNL     1      -2.461   7.846  -0.097  0.00  0.00    +0.000 A 
ATOM     18  C   UNL     1      -2.733   7.008  -1.162  0.00  0.00    +0.000 A 
ATOM     19  C   UNL     1      -3.077   5.689  -0.933  0.00  0.00    +0.005 A 
ENDBRANCH  13  14
ENDBRANCH   1   2
BRANCH   1  23
ATOM     20  C   UNL     1       2.181   0.679  -0.003  0.00  0.00    +0.138 C 
ATOM     21  C   UNL     1       1.242   1.869   0.017  0.00  0.00    +0.251 C 
ATOM     22  O   UNL     1       1.547   3.042   0.033  0.00  0.00    -0.272 OA
ATOM     23  N   UNL     1      -0.003   1.351   0.012  0.00  0.00    -0.215 N 
ATOM     24  C   UNL     1       0.019   0.014  -0.008  0.00  0.00    +0.310 C 
ATOM     25  O   UNL     1      -0.980  -0.678  -0.016  0.00  0.00    -0.252 OA
ATOM     26  N   UNL     1       1.271  -0.479  -0.018  0.00  0.00    -0.281 N 
ATOM     27  H   UNL     1       1.525  -1.415  -0.033  0.00  0.00    +0.152 HD
BRANCH  20  28
ATOM     28  C   UNL     1       3.038   0.696  -1.242  0.00  0.00    -0.015 A 
ATOM     29  C   UNL     1       4.299   1.261  -1.202  0.00  0.00    +0.009 A 
ATOM     30  C   UNL     1       5.088   1.272  -2.336  0.00  0.00    +0.039 A 
ATOM     31  C   UNL     1       4.611   0.727  -3.516  0.00  0.00    +0.123 A 
ATOM     32  C   UNL     1       3.345   0.167  -3.557  0.00  0.00    +0.039 A 
ATOM     33  C   UNL     1       2.560   0.153  -2.420  0.00  0.00    +0.009 A 
ATOM     34  F   UNL     1       5.380   0.742  -4.627  0.00  0.00    -0.205 F 
ENDBRANCH  20  28
BRANCH  20  36
ATOM     35  C   UNL     1       2.162   0.573   2.493  0.00  0.00    +0.007 C 
ATOM     36  C   UNL     1       3.054   0.662   1.253  0.00  0.00    +0.037 C 
ENDBRANCH  20  36
ENDBRANCH   1  23
TORSDOF 5
