REMARK  Name = ZINC38615167
REMARK  10 active torsions:
REMARK  status: ('A' for Active; 'I' for Inactive)
REMARK    1  A    between atoms: C_1  and  O_2
REMARK    2  A    between atoms: O_2  and  C_3
REMARK    3  A    between atoms: C_6  and  C_9
REMARK    4  A    between atoms: C_9  and  C_11
REMARK    5  A    between atoms: C_9  and  N_30
REMARK    6  A    between atoms: C_11  and  N_12
REMARK    7  A    between atoms: C_13  and  C_15
REMARK    8  A    between atoms: C_15  and  C_16
REMARK    9  A    between atoms: C_16  and  N_17
REMARK   10  A    between atoms: C_21  and  C_22
REMARK                            x       y       z     vdW  Elec       q    Type
REMARK                         _______ _______ _______ _____ _____    ______ ____
ROOT
ATOM      1  N   UNL     1       4.693  -1.749  -3.639  0.00  0.00    -0.316 N 
ATOM      2  C   UNL     1       5.972  -1.901  -3.241  0.00  0.00    +0.214 C 
ATOM      3  O   UNL     1       6.413  -3.010  -3.029  0.00  0.00    -0.276 OA
ATOM      4  H   UNL     1       4.340  -0.861  -3.809  0.00  0.00    +0.149 HD
ENDROOT
BRANCH   1   5
ATOM      5  C   UNL     1       3.836  -2.924  -3.815  0.00  0.00    +0.093 C 
BRANCH   5   6
ATOM      6  C   UNL     1       2.411  -2.472  -4.139  0.00  0.00    -0.020 C 
BRANCH   6   7
ATOM      7  N   UNL     1       1.569  -3.649  -4.394  0.00  0.00    +0.385 N 
ATOM      8  C   UNL     1       2.087  -4.376  -5.559  0.00  0.00    -0.078 C 
ATOM      9  C   UNL     1       1.264  -5.647  -5.779  0.00  0.00    -0.019 C 
ATOM     10  C   UNL     1      -0.199  -5.264  -6.023  0.00  0.00    -0.004 C 
ATOM     11  C   UNL     1      -0.706  -4.443  -4.834  0.00  0.00    -0.019 C 
ATOM     12  C   UNL     1       0.190  -3.217  -4.649  0.00  0.00    -0.078 C 
ATOM     13  H   UNL     1       1.587  -4.254  -3.587  0.00  0.00    -0.081 HD
ENDBRANCH   6   7
BRANCH   6  17
ATOM     14  C   UNL     1       0.825  -0.275  -0.834  0.00  0.00    +0.120 A 
ATOM     15  C   UNL     1       1.328   0.398  -1.939  0.00  0.00    +0.046 A 
ATOM     16  C   UNL     1       1.840  -0.315  -3.006  0.00  0.00    +0.005 A 
ATOM     17  C   UNL     1       1.852  -1.697  -2.974  0.00  0.00    -0.059 A 
ATOM     18  C   UNL     1       1.351  -2.370  -1.875  0.00  0.00    +0.005 A 
ATOM     19  C   UNL     1       0.844  -1.662  -0.802  0.00  0.00    +0.046 A 
BRANCH  14  21
ATOM     20  C   UNL     1       0.335   1.849   0.115  0.00  0.00    +0.277 C 
ATOM     21  O   UNL     1       0.321   0.423   0.217  0.00  0.00    -0.495 OA
ENDBRANCH  14  21
ENDBRANCH   6  17
ENDBRANCH   5   6
ENDBRANCH   1   5
BRANCH   2  22
ATOM     22  C   UNL     1       6.853  -0.692  -3.061  0.00  0.00    +0.115 C 
BRANCH  22  23
ATOM     23  C   UNL     1       8.245  -1.138  -2.608  0.00  0.00    +0.124 C 
BRANCH  23  24
ATOM     24  N   UNL     1       9.102   0.037  -2.432  0.00  0.00    -0.255 N 
ATOM     25  C   UNL     1       9.811   0.484  -3.454  0.00  0.00    +0.258 C 
ATOM     26  O   UNL     1       9.763  -0.067  -4.539  0.00  0.00    -0.269 OA
ATOM     27  C   UNL     1      10.636   1.631  -3.247  0.00  0.00    +0.078 C 
ATOM     28  C   UNL     1      11.453   2.281  -4.123  0.00  0.00    +0.035 C 
ATOM     29  S   UNL     1      10.304   1.983  -1.526  0.00  0.00    -0.061 S 
ATOM     30  C   UNL     1       9.151   0.651  -1.229  0.00  0.00    +0.121 C 
ATOM     31  S   UNL     1       8.321   0.252   0.214  0.00  0.00    -0.027 S 
BRANCH  28  32
ATOM     32  C   UNL     1      12.188   3.413  -3.699  0.00  0.00    +0.013 A 
ATOM     33  C   UNL     1      13.063   4.214  -4.425  0.00  0.00    +0.015 A 
ATOM     34  C   UNL     1      13.633   5.254  -3.731  0.00  0.00    +0.008 A 
ATOM     35  C   UNL     1      13.316   5.426  -2.424  0.00  0.00    +0.046 A 
ATOM     36  S   UNL     1      12.229   4.189  -2.094  0.00  0.00    -0.097 S 
ENDBRANCH  28  32
ENDBRANCH  23  24
ENDBRANCH  22  23
ENDBRANCH   2  22
TORSDOF 9
