REMARK  Name = ZINC21534812
REMARK  5 active torsions:
REMARK  status: ('A' for Active; 'I' for Inactive)
REMARK    1  A    between atoms: C_11  and  C_27
REMARK    2  A    between atoms: C_14  and  C_16
REMARK    3  A    between atoms: C_16  and  O_17
REMARK    4  A    between atoms: O_17  and  C_18
REMARK    5  A    between atoms: C_18  and  C_20
REMARK                            x       y       z     vdW  Elec       q    Type
REMARK                         _______ _______ _______ _____ _____    ______ ____
ROOT
ATOM      1  C   UNL     1      -0.017   1.379   0.010  0.00  0.00    +0.002 A 
ATOM      2  C   UNL     1       1.168   2.092   0.002  0.00  0.00    +0.002 A 
ATOM      3  C   UNL     1       2.381   1.427  -0.003  0.00  0.00    +0.025 A 
ATOM      4  C   UNL     1       2.409   0.043  -0.005  0.00  0.00    +0.058 A 
ATOM      5  C   UNL     1       1.213  -0.677  -0.015  0.00  0.00    +0.055 A 
ATOM      6  C   UNL     1       0.002  -0.004   0.002  0.00  0.00    +0.025 A 
ATOM      7  N   UNL     1       1.256  -2.074  -0.075  0.00  0.00    -0.284 N 
ATOM      8  C   UNL     1       2.050  -2.771   0.767  0.00  0.00    +0.219 C 
ATOM      9  O   UNL     1       2.143  -3.974   0.650  0.00  0.00    -0.275 OA
ATOM     10  C   UNL     1       2.819  -2.062   1.850  0.00  0.00    +0.128 C 
ATOM     11  C   UNL     1       4.024  -1.336   1.250  0.00  0.00    +0.194 C 
ATOM     12  N   UNL     1       3.628  -0.648   0.020  0.00  0.00    -0.255 N 
ATOM     13  C   UNL     1       4.422  -0.680  -1.069  0.00  0.00    +0.258 C 
ATOM     14  O   UNL     1       5.474  -1.281  -1.035  0.00  0.00    -0.271 OA
ATOM     15  H   UNL     1       0.712  -2.546  -0.725  0.00  0.00    +0.155 HD
ENDROOT
BRANCH  11  16
ATOM     16  C   UNL     1       4.552  -0.310   2.256  0.00  0.00    +0.409 C 
ATOM     17  F   UNL     1       4.939  -0.965   3.430  0.00  0.00    -0.169 F 
ATOM     18  F   UNL     1       5.654   0.355   1.708  0.00  0.00    -0.169 F 
ATOM     19  F   UNL     1       3.546   0.617   2.549  0.00  0.00    -0.169 F 
ENDBRANCH  11  16
BRANCH  13  20
ATOM     20  C   UNL     1       4.001   0.032  -2.329  0.00  0.00    +0.328 C 
BRANCH  20  21
ATOM     21  O   UNL     1       5.001  -0.147  -3.333  0.00  0.00    -0.452 OA
BRANCH  21  22
ATOM     22  C   UNL     1       4.776   0.430  -4.529  0.00  0.00    +0.340 C 
ATOM     23  O   UNL     1       3.760   1.068  -4.714  0.00  0.00    -0.245 OA
BRANCH  22  24
ATOM     24  C   UNL     1       5.769   0.288  -5.618  0.00  0.00    +0.063 A 
ATOM     25  C   UNL     1       6.944  -0.448  -5.428  0.00  0.00    +0.035 A 
ATOM     26  C   UNL     1       7.843  -0.556  -6.471  0.00  0.00    +0.113 A 
ATOM     27  N   UNL     1       7.606   0.022  -7.632  0.00  0.00    -0.244 NA
ATOM     28  C   UNL     1       6.512   0.724  -7.854  0.00  0.00    +0.130 A 
ATOM     29  C   UNL     1       5.556   0.879  -6.867  0.00  0.00    +0.055 A 
ATOM     30 CL   UNL     1       6.266   1.458  -9.408  0.00  0.00    -0.062 Cl
ENDBRANCH  22  24
ENDBRANCH  21  22
ENDBRANCH  20  21
ENDBRANCH  13  20
TORSDOF 5
