REMARK  Name = ZINC59266389
REMARK  5 active torsions:
REMARK  status: ('A' for Active; 'I' for Inactive)
REMARK    1  A    between atoms: C_4  and  N_7
REMARK    2  A    between atoms: N_16  and  C_17
REMARK    3  A    between atoms: C_17  and  C_19
REMARK    4  A    between atoms: N_22  and  S_25
REMARK    5  A    between atoms: S_25  and  C_28
REMARK                            x       y       z     vdW  Elec       q    Type
REMARK                         _______ _______ _______ _____ _____    ______ ____
ROOT
ATOM      1  N   UNL     1       3.624  -0.652  -0.038  0.00  0.00    -0.280 N 
ATOM      2  C   UNL     1       3.792  -2.031   0.063  0.00  0.00    +0.073 A 
ATOM      3  C   UNL     1       2.900  -3.088   0.178  0.00  0.00    +0.028 A 
ATOM      4  C   UNL     1       3.374  -4.381   0.262  0.00  0.00    +0.002 A 
ATOM      5  C   UNL     1       4.736  -4.630   0.233  0.00  0.00    +0.002 A 
ATOM      6  C   UNL     1       5.632  -3.586   0.119  0.00  0.00    +0.028 A 
ATOM      7  C   UNL     1       5.165  -2.281   0.033  0.00  0.00    +0.066 A 
ATOM      8  N   UNL     1       5.804  -1.051  -0.085  0.00  0.00    -0.326 N 
ATOM      9  C   UNL     1       4.855  -0.079  -0.133  0.00  0.00    +0.206 A 
ATOM     10  N   UNL     1       5.091   1.224  -0.249  0.00  0.00    -0.146 NA
ATOM     11  H   UNL     1       6.763  -0.911  -0.130  0.00  0.00    +0.169 HD
ENDROOT
BRANCH   1  15
ATOM     12  C   UNL     1      -0.020   1.370  -0.068  0.00  0.00    +0.000 A 
ATOM     13  C   UNL     1       0.868   1.562   0.975  0.00  0.00    +0.002 A 
ATOM     14  C   UNL     1       2.076   0.893   0.988  0.00  0.00    +0.026 A 
ATOM     15  C   UNL     1       2.399   0.027  -0.048  0.00  0.00    +0.050 A 
ATOM     16  C   UNL     1       1.506  -0.165  -1.093  0.00  0.00    +0.026 A 
ATOM     17  C   UNL     1       0.299   0.507  -1.101  0.00  0.00    +0.002 A 
ENDBRANCH   1  15
BRANCH  10  18
ATOM     18  C   UNL     1       6.332   1.660  -0.447  0.00  0.00    +0.242 C 
ATOM     19  O   UNL     1       7.235   0.865  -0.622  0.00  0.00    -0.273 OA
BRANCH  18  20
ATOM     20  C   UNL     1       6.619   3.139  -0.455  0.00  0.00    +0.080 C 
ATOM     21  C   UNL     1       5.808   3.810  -1.566  0.00  0.00    +0.030 C 
ATOM     22  C   UNL     1       6.076   5.319  -1.548  0.00  0.00    +0.110 C 
ATOM     23  N   UNL     1       7.525   5.543  -1.639  0.00  0.00    -0.177 NA
ATOM     24  C   UNL     1       8.406   4.871  -0.673  0.00  0.00    +0.110 C 
ATOM     25  C   UNL     1       8.112   3.368  -0.701  0.00  0.00    +0.030 C 
BRANCH  23  26
ATOM     26  S   UNL     1       8.154   6.533  -2.807  0.00  0.00    +0.061 S 
ATOM     27  O   UNL     1       9.501   6.125  -3.003  0.00  0.00    -0.153 OA
ATOM     28  O   UNL     1       7.207   6.566  -3.865  0.00  0.00    -0.153 OA
BRANCH  26  29
ATOM     29  C   UNL     1       8.214   8.161  -2.134  0.00  0.00    +0.105 A 
ATOM     30  C   UNL     1       7.132   9.009  -2.280  0.00  0.00    +0.028 A 
ATOM     31  C   UNL     1       7.179  10.285  -1.751  0.00  0.00    +0.002 A 
ATOM     32  C   UNL     1       8.307  10.714  -1.078  0.00  0.00    +0.000 A 
ATOM     33  C   UNL     1       9.389   9.865  -0.931  0.00  0.00    +0.002 A 
ATOM     34  C   UNL     1       9.340   8.587  -1.456  0.00  0.00    +0.028 A 
ENDBRANCH  26  29
ENDBRANCH  23  26
ENDBRANCH  18  20
ENDBRANCH  10  18
TORSDOF 5
