REMARK  Name = ZINC11936470
REMARK  8 active torsions:
REMARK  status: ('A' for Active; 'I' for Inactive)
REMARK    1  A    between atoms: C_1  and  C_2
REMARK    2  A    between atoms: C_2  and  C_4
REMARK    3  A    between atoms: C_2  and  N_43
REMARK    4  A    between atoms: C_11  and  C_12
REMARK    5  A    between atoms: C_11  and  N_43
REMARK    6  A    between atoms: C_17  and  C_18
REMARK    7  A    between atoms: C_21  and  O_25
REMARK    8  A    between atoms: O_25  and  C_26
REMARK                            x       y       z     vdW  Elec       q    Type
REMARK                         _______ _______ _______ _____ _____    ______ ____
ROOT
ATOM      1  C   UNL     1      -5.469   1.374  -2.275  0.00  0.00    -0.019 A 
ATOM      2  C   UNL     1      -6.731   1.734  -1.954  0.00  0.00    +0.107 A 
ATOM      3  N   UNL     1      -7.255   2.399  -3.006  0.00  0.00    -0.284 N 
ATOM      4  H   UNL     1      -8.176   2.786  -3.056  0.00  0.00    +0.188 HD
ATOM      5  N   UNL     1      -6.285   2.454  -4.014  0.00  0.00    -0.174 NA
ATOM      6  C   UNL     1      -5.204   1.843  -3.577  0.00  0.00    +0.097 A 
ENDROOT
BRANCH   6   7
ATOM      7  C   UNL     1      -3.933   1.673  -4.324  0.00  0.00    +0.038 A 
ATOM      8  C   UNL     1      -3.319   0.424  -4.383  0.00  0.00    +0.016 A 
ATOM      9  C   UNL     1      -2.141   0.269  -5.082  0.00  0.00    +0.046 A 
ATOM     10  C   UNL     1      -1.560   1.357  -5.719  0.00  0.00    +0.123 A 
ATOM     11  C   UNL     1      -2.164   2.605  -5.658  0.00  0.00    +0.084 A 
ATOM     12  C   UNL     1      -3.348   2.767  -4.964  0.00  0.00    +0.136 A 
ATOM     13  F   UNL     1      -3.937   3.981  -4.905  0.00  0.00    -0.205 F 
BRANCH  10  14
ATOM     14  O   UNL     1      -0.396   1.201  -6.402  0.00  0.00    -0.495 OA
ATOM     15  C   UNL     1       0.173  -0.110  -6.424  0.00  0.00    +0.277 C 
ENDBRANCH  10  14
ENDBRANCH   6   7
BRANCH   1  16
ATOM     16  C   UNL     1      -4.513   0.612  -1.394  0.00  0.00    -0.042 C 
BRANCH  16  17
ATOM     17  N   UNL     1      -3.490   1.540  -0.876  0.00  0.00    +0.386 N 
ATOM     18  H   UNL     1      -2.981   1.958  -1.664  0.00  0.00    -0.085 HD
ATOM     19  H   UNL     1      -3.948   2.281  -0.333  0.00  0.00    -0.085 HD
BRANCH  17  21
ATOM     20  C   UNL     1      -3.099   0.743   1.413  0.00  0.00    -0.009 C 
ATOM     21  C   UNL     1      -2.538   0.820  -0.009  0.00  0.00    -0.044 C 
BRANCH  21  22
ATOM     22  C   UNL     1      -1.226   1.561   0.008  0.00  0.00    -0.062 A 
ATOM     23  C   UNL     1      -0.035   0.859  -0.018  0.00  0.00    +0.003 A 
ATOM     24  C   UNL     1       1.168   1.539  -0.009  0.00  0.00    +0.020 A 
ATOM     25  C   UNL     1       1.181   2.922   0.033  0.00  0.00    +0.041 A 
ATOM     26  C   UNL     1      -0.011   3.623   0.066  0.00  0.00    +0.020 A 
ATOM     27  C   UNL     1      -1.214   2.943   0.056  0.00  0.00    +0.003 A 
ATOM     28 CL   UNL     1       2.692   3.776   0.045  0.00  0.00    -0.084 Cl
ENDBRANCH  21  22
ENDBRANCH  17  21
ENDBRANCH  16  17
ENDBRANCH   1  16
TORSDOF 6
