REMARK  Name = ZINC29569332
REMARK  9 active torsions:
REMARK  status: ('A' for Active; 'I' for Inactive)
REMARK    1  A    between atoms: C_1  and  C_2
REMARK    2  A    between atoms: C_4  and  C_9
REMARK    3  A    between atoms: C_7  and  O_8
REMARK    4  A    between atoms: C_11  and  C_25
REMARK    5  A    between atoms: C_13  and  N_15
REMARK    6  A    between atoms: N_15  and  C_16
REMARK    7  A    between atoms: N_15  and  C_17
REMARK    8  A    between atoms: C_17  and  C_18
REMARK    9  A    between atoms: C_18  and  C_19
REMARK                            x       y       z     vdW  Elec       q    Type
REMARK                         _______ _______ _______ _____ _____    ______ ____
ROOT
ATOM      1  C   UNL     1       0.028  -2.817  -2.490  0.00  0.00    +0.048 A 
ATOM      2  C   UNL     1       0.018  -2.110  -3.687  0.00  0.00    +0.034 A 
ATOM      3  C   UNL     1       0.022  -2.815  -4.893  0.00  0.00    -0.013 A 
ATOM      4  C   UNL     1       0.036  -4.210  -4.845  0.00  0.00    +0.050 A 
ATOM      5  C   UNL     1       0.045  -4.845  -3.610  0.00  0.00    +0.099 A 
ATOM      6  N   UNL     1       0.046  -4.145  -2.486  0.00  0.00    -0.343 N 
ATOM      7  H   UNL     1       0.057  -4.614  -1.638  0.00  0.00    +0.167 HD
ENDROOT
BRANCH   1  11
ATOM      8  C   UNL     1      -0.018   1.503   0.010  0.00  0.00    +0.047 C 
ATOM      9  C   UNL     1       0.002  -0.004   0.002  0.00  0.00    -0.008 A 
ATOM     10  C   UNL     1       0.006  -0.686  -1.196  0.00  0.00    +0.017 A 
ATOM     11  C   UNL     1       0.025  -2.080  -1.203  0.00  0.00    -0.001 A 
ATOM     12  C   UNL     1       0.040  -2.780   0.003  0.00  0.00    +0.013 A 
ATOM     13  C   UNL     1       0.036  -2.093   1.197  0.00  0.00    +0.046 A 
ATOM     14  C   UNL     1       0.023  -0.704   1.201  0.00  0.00    +0.120 A 
BRANCH  14  15
ATOM     15  O   UNL     1       0.025  -0.029   2.380  0.00  0.00    -0.507 OA
ATOM     16  H   UNL     1      -0.858   0.154   2.729  0.00  0.00    +0.292 HD
ENDBRANCH  14  15
ENDBRANCH   1  11
BRANCH   3  17
ATOM     17  C   UNL     1       0.011  -2.099  -6.192  0.00  0.00    -0.018 A 
ATOM     18  C   UNL     1       0.009  -2.817  -7.386  0.00  0.00    +0.008 A 
ATOM     19  C   UNL     1      -0.001  -2.145  -8.592  0.00  0.00    +0.001 A 
ATOM     20  C   UNL     1      -0.008  -0.762  -8.617  0.00  0.00    +0.000 A 
ATOM     21  C   UNL     1      -0.006  -0.045  -7.435  0.00  0.00    +0.001 A 
ATOM     22  C   UNL     1      -0.003  -0.706  -6.223  0.00  0.00    +0.008 A 
ENDBRANCH   3  17
BRANCH   5  23
ATOM     23  N   UNL     1       0.058  -6.234  -3.552  0.00  0.00    -0.319 N 
ATOM     24  C   UNL     1       0.068  -6.914  -2.254  0.00  0.00    +0.130 C 
BRANCH  23  25
ATOM     25  C   UNL     1       0.062  -7.018  -4.790  0.00  0.00    +0.111 C 
BRANCH  25  26
ATOM     26  C   UNL     1       1.506  -7.278  -5.224  0.00  0.00    +0.054 C 
BRANCH  26  27
ATOM     27  C   UNL     1       1.510  -8.085  -6.497  0.00  0.00    -0.046 A 
ATOM     28  C   UNL     1       1.518  -9.466  -6.440  0.00  0.00    +0.004 A 
ATOM     29  C   UNL     1       1.522 -10.206  -7.608  0.00  0.00    +0.000 A 
ATOM     30  C   UNL     1       1.518  -9.564  -8.832  0.00  0.00    +0.000 A 
ATOM     31  C   UNL     1       1.509  -8.183  -8.889  0.00  0.00    +0.000 A 
ATOM     32  C   UNL     1       1.501  -7.443  -7.722  0.00  0.00    +0.004 A 
ENDBRANCH  26  27
ENDBRANCH  25  26
ENDBRANCH  23  25
ENDBRANCH   5  23
TORSDOF 7
