REMARK  Name = ZINC22473125
REMARK  9 active torsions:
REMARK  status: ('A' for Active; 'I' for Inactive)
REMARK    1  A    between atoms: C_4  and  C_7
REMARK    2  A    between atoms: C_7  and  N_8
REMARK    3  A    between atoms: N_8  and  C_9
REMARK    4  A    between atoms: C_9  and  C_10
REMARK    5  A    between atoms: C_10  and  C_11
REMARK    6  A    between atoms: C_11  and  N_12
REMARK    7  A    between atoms: C_15  and  O_16
REMARK    8  A    between atoms: C_24  and  C_26
REMARK    9  A    between atoms: C_30  and  N_32
REMARK                            x       y       z     vdW  Elec       q    Type
REMARK                         _______ _______ _______ _____ _____    ______ ____
ROOT
ATOM      1  N   UNL     1      -6.389   2.144   0.025  0.00  0.00    -0.293 N 
ATOM      2  C   UNL     1      -6.897   2.805   1.084  0.00  0.00    +0.247 C 
ATOM      3  O   UNL     1      -7.643   3.749   0.911  0.00  0.00    -0.270 OA
ENDROOT
BRANCH   2   4
ATOM      4  C   UNL     1      -6.548   2.381   2.456  0.00  0.00    +0.039 A 
ATOM      5  C   UNL     1      -5.375   1.660   2.690  0.00  0.00    +0.014 A 
ATOM      6  C   UNL     1      -5.051   1.273   3.973  0.00  0.00    +0.023 A 
ATOM      7  C   UNL     1      -5.893   1.587   5.027  0.00  0.00    +0.071 A 
ATOM      8  C   UNL     1      -7.060   2.298   4.801  0.00  0.00    +0.145 A 
ATOM      9  C   UNL     1      -7.391   2.696   3.523  0.00  0.00    +0.047 A 
ATOM     10 CL   UNL     1      -5.482   1.090   6.639  0.00  0.00    -0.081 Cl
BRANCH   8  11
ATOM     11  N   UNL     1      -7.953   2.631   5.934  0.00  0.00    +0.058 N 
ATOM     12  O   UNL     1      -8.979   3.256   5.736  0.00  0.00    -0.126 OA
ATOM     13  O   UNL     1      -7.661   2.280   7.063  0.00  0.00    -0.126 OA
ENDBRANCH   8  11
ENDBRANCH   2   4
BRANCH   1  14
ATOM     14  C   UNL     1      -6.669   2.614  -1.334  0.00  0.00    +0.143 C 
BRANCH  14  18
ATOM     15  C   UNL     1     -10.338   0.906  -2.703  0.00  0.00    +0.000 A 
ATOM     16  C   UNL     1     -10.352   2.078  -1.970  0.00  0.00    +0.000 A 
ATOM     17  C   UNL     1      -9.165   2.630  -1.526  0.00  0.00    +0.005 A 
ATOM     18  C   UNL     1      -7.963   2.011  -1.817  0.00  0.00    -0.030 A 
ATOM     19  C   UNL     1      -7.949   0.843  -2.556  0.00  0.00    +0.005 A 
ATOM     20  C   UNL     1      -9.136   0.287  -2.994  0.00  0.00    +0.000 A 
ENDBRANCH  14  18
ENDBRANCH   1  14
BRANCH   1  21
ATOM     21  C   UNL     1      -5.557   0.957   0.233  0.00  0.00    +0.110 C 
BRANCH  21  22
ATOM     22  C   UNL     1      -4.092   1.307  -0.035  0.00  0.00    +0.040 C 
BRANCH  22  23
ATOM     23  C   UNL     1      -3.222   0.067   0.182  0.00  0.00    +0.114 C 
BRANCH  23  24
ATOM     24  N   UNL     1      -1.820   0.403  -0.074  0.00  0.00    -0.384 N 
ATOM     25  C   UNL     1      -0.845  -0.561   0.059  0.00  0.00    +0.053 A 
ATOM     26  C   UNL     1      -1.165  -1.842   0.430  0.00  0.00    +0.113 A 
ATOM     27  C   UNL     1      -0.152  -2.802   0.551  0.00  0.00    +0.286 A 
ATOM     28  O   UNL     1       1.137  -2.508   0.314  0.00  0.00    -0.425 OA
ATOM     29  C   UNL     1       1.526  -1.268  -0.056  0.00  0.00    +0.141 A 
ATOM     30  C   UNL     1       0.571  -0.250  -0.200  0.00  0.00    +0.041 A 
ATOM     31  C   UNL     1       0.968   1.032  -0.581  0.00  0.00    +0.013 A 
ATOM     32  C   UNL     1       2.301   1.290  -0.816  0.00  0.00    +0.001 A 
ATOM     33  C   UNL     1       3.244   0.283  -0.674  0.00  0.00    +0.004 A 
ATOM     34  C   UNL     1       2.865  -0.988  -0.296  0.00  0.00    +0.047 A 
ATOM     35  H   UNL     1      -1.545   1.425  -0.373  0.00  0.00    +0.160 HD
BRANCH  27  36
ATOM     36  O   UNL     1      -0.449  -3.937   0.882  0.00  0.00    -0.480 OA
ATOM     37  H   UNL     1       0.334  -4.703   0.981  0.00  0.00    +0.295 HD
ENDBRANCH  27  36
ENDBRANCH  23  24
ENDBRANCH  22  23
ENDBRANCH  21  22
ENDBRANCH   1  21
TORSDOF 9
