REMARK  Name = ZINC36493969
REMARK  10 active torsions:
REMARK  status: ('A' for Active; 'I' for Inactive)
REMARK    1  A    between atoms: C_1  and  C_2
REMARK    2  A    between atoms: C_5  and  C_8
REMARK    3  A    between atoms: C_8  and  C_10
REMARK    4  A    between atoms: C_8  and  N_19
REMARK    5  A    between atoms: N_12  and  C_13
REMARK    6  A    between atoms: N_19  and  C_20
REMARK    7  A    between atoms: C_20  and  C_21
REMARK    8  A    between atoms: C_26  and  C_28
REMARK    9  A    between atoms: C_28  and  C_36
REMARK   10  A    between atoms: C_29  and  C_30
REMARK                            x       y       z     vdW  Elec       q    Type
REMARK                         _______ _______ _______ _____ _____    ______ ____
ROOT
ATOM      1  N   UNL     1      -0.065  -4.456  -1.089  0.00  0.00    -0.275 N 
ATOM      2  C   UNL     1      -0.365  -5.468  -0.251  0.00  0.00    +0.248 C 
ATOM      3  O   UNL     1       0.222  -5.574   0.809  0.00  0.00    -0.270 OA
ENDROOT
BRANCH   2   4
ATOM      4  C   UNL     1      -1.404  -6.444  -0.618  0.00  0.00    +0.045 C 
ATOM      5  C   UNL     1      -2.718  -6.113  -0.504  0.00  0.00    +0.021 C 
BRANCH   5   6
ATOM      6  C   UNL     1      -3.106  -4.860   0.157  0.00  0.00    -0.024 A 
ATOM      7  C   UNL     1      -4.132  -4.071  -0.377  0.00  0.00    +0.008 A 
ATOM      8  C   UNL     1      -4.490  -2.897   0.250  0.00  0.00    +0.001 A 
ATOM      9  C   UNL     1      -3.838  -2.496   1.403  0.00  0.00    +0.000 A 
ATOM     10  C   UNL     1      -2.821  -3.270   1.937  0.00  0.00    +0.001 A 
ATOM     11  C   UNL     1      -2.455  -4.450   1.326  0.00  0.00    +0.008 A 
ENDBRANCH   5   6
BRANCH   4  12
ATOM     12  C   UNL     1      -1.018  -7.785  -1.112  0.00  0.00    -0.013 A 
ATOM     13  C   UNL     1      -0.336  -8.670  -0.276  0.00  0.00    +0.008 A 
ATOM     14  C   UNL     1       0.021  -9.919  -0.741  0.00  0.00    +0.001 A 
ATOM     15  C   UNL     1      -0.296 -10.294  -2.034  0.00  0.00    +0.000 A 
ATOM     16  C   UNL     1      -0.972  -9.422  -2.869  0.00  0.00    +0.001 A 
ATOM     17  C   UNL     1      -1.340  -8.173  -2.413  0.00  0.00    +0.008 A 
ENDBRANCH   4  12
ENDBRANCH   2   4
BRANCH   1  18
ATOM     18  C   UNL     1      -0.660  -4.411  -2.426  0.00  0.00    +0.193 C 
BRANCH  18  23
ATOM     19  C   UNL     1      -4.535  -0.131  -2.664  0.00  0.00    +0.044 C 
ATOM     20  C   UNL     1      -3.525  -1.247  -2.603  0.00  0.00    -0.050 A 
ATOM     21  C   UNL     1      -3.902  -2.539  -2.917  0.00  0.00    +0.004 A 
ATOM     22  C   UNL     1      -2.975  -3.563  -2.860  0.00  0.00    +0.006 A 
ATOM     23  C   UNL     1      -1.671  -3.295  -2.489  0.00  0.00    -0.018 A 
ATOM     24  C   UNL     1      -1.293  -2.002  -2.176  0.00  0.00    +0.006 A 
ATOM     25  C   UNL     1      -2.219  -0.978  -2.237  0.00  0.00    +0.004 A 
ENDBRANCH  18  23
BRANCH  18  26
ATOM     26  C   UNL     1       0.419  -4.170  -3.449  0.00  0.00    +0.238 C 
ATOM     27  O   UNL     1       1.573  -4.047  -3.096  0.00  0.00    -0.273 OA
ATOM     28  N   UNL     1       0.103  -4.090  -4.757  0.00  0.00    -0.311 N 
ATOM     29  H   UNL     1      -0.819  -4.188  -5.040  0.00  0.00    +0.149 HD
BRANCH  28  30
ATOM     30  C   UNL     1       1.153  -3.855  -5.752  0.00  0.00    +0.073 C 
ATOM     31  C   UNL     1       1.413  -2.352  -5.873  0.00  0.00    +0.022 C 
ATOM     32  C   UNL     1       2.510  -2.107  -6.912  0.00  0.00    +0.002 C 
ATOM     33  C   UNL     1       2.061  -2.659  -8.267  0.00  0.00    +0.000 C 
ATOM     34  C   UNL     1       1.801  -4.162  -8.145  0.00  0.00    +0.002 C 
ATOM     35  C   UNL     1       0.705  -4.407  -7.106  0.00  0.00    +0.022 C 
ENDBRANCH  28  30
ENDBRANCH  18  26
ENDBRANCH   1  18
BRANCH   1  36
ATOM     36  C   UNL     1       0.858  -3.401  -0.662  0.00  0.00    +0.183 C 
BRANCH  36  37
ATOM     37  C   UNL     1       0.163  -2.494   0.321  0.00  0.00    +0.122 A 
ATOM     38  C   UNL     1       0.059  -2.702   1.645  0.00  0.00    +0.046 A 
ATOM     39  C   UNL     1      -0.666  -1.610   2.176  0.00  0.00    +0.041 A 
ATOM     40  C   UNL     1      -0.962  -0.800   1.143  0.00  0.00    +0.195 A 
ATOM     41  O   UNL     1      -0.452  -1.337   0.023  0.00  0.00    -0.466 OA
ENDBRANCH  36  37
ENDBRANCH   1  36
TORSDOF 9
