REMARK  Name = ZINC09860269
REMARK  10 active torsions:
REMARK  status: ('A' for Active; 'I' for Inactive)
REMARK    1  A    between atoms: C_1  and  C_2
REMARK    2  A    between atoms: C_7  and  C_39
REMARK    3  A    between atoms: C_9  and  C_10
REMARK    4  A    between atoms: C_9  and  N_72
REMARK    5  A    between atoms: C_10  and  N_11
REMARK    6  A    between atoms: C_12  and  C_14
REMARK    7  A    between atoms: C_14  and  C_15
REMARK    8  A    between atoms: C_15  and  C_16
REMARK    9  A    between atoms: C_16  and  C_17
REMARK   10  A    between atoms: C_31  and  C_33
REMARK                            x       y       z     vdW  Elec       q    Type
REMARK                         _______ _______ _______ _____ _____    ______ ____
ROOT
ATOM      1  C   UNL     1      -0.011   0.899  -7.408  0.00  0.00    +0.139 A 
ATOM      2  N   UNL     1       1.010   1.473  -7.984  0.00  0.00    -0.132 NA
ATOM      3  N   UNL     1       1.405   0.769  -8.984  0.00  0.00    -0.108 NA
ATOM      4  C   UNL     1       0.651  -0.302  -9.103  0.00  0.00    +0.259 A 
ATOM      5  N   UNL     1      -0.269  -0.250  -8.097  0.00  0.00    -0.263 N 
ATOM      6  C   UNL     1      -1.221  -1.251  -7.940  0.00  0.00    +0.062 A 
ATOM      7  C   UNL     1      -2.158  -1.196  -6.919  0.00  0.00    +0.027 A 
ATOM      8  C   UNL     1      -3.092  -2.204  -6.787  0.00  0.00    +0.002 A 
ATOM      9  C   UNL     1      -3.103  -3.275  -7.667  0.00  0.00    +0.001 A 
ATOM     10  C   UNL     1      -2.179  -3.346  -8.689  0.00  0.00    +0.013 A 
ATOM     11  C   UNL     1      -1.232  -2.335  -8.832  0.00  0.00    +0.043 A 
ATOM     12  C   UNL     1      -0.226  -2.372  -9.909  0.00  0.00    +0.169 A 
ATOM     13  N   UNL     1       0.673  -1.351 -10.005  0.00  0.00    -0.177 N 
ATOM     14  N   UNL     1       1.495  -1.651 -11.101  0.00  0.00    -0.142 NA
ATOM     15  C   UNL     1       1.064  -2.791 -11.602  0.00  0.00    +0.182 A 
ATOM     16  N   UNL     1       0.024  -3.224 -10.880  0.00  0.00    -0.206 NA
ENDROOT
BRANCH  15  17
ATOM     17  C   UNL     1       1.641  -3.484 -12.780  0.00  0.00    +0.021 A 
ATOM     18  C   UNL     1       1.100  -4.693 -13.214  0.00  0.00    +0.011 A 
ATOM     19  C   UNL     1       1.638  -5.331 -14.314  0.00  0.00    +0.001 A 
ATOM     20  C   UNL     1       2.718  -4.778 -14.978  0.00  0.00    +0.000 A 
ATOM     21  C   UNL     1       3.262  -3.581 -14.548  0.00  0.00    +0.001 A 
ATOM     22  C   UNL     1       2.729  -2.932 -13.453  0.00  0.00    +0.011 A 
ENDBRANCH  15  17
BRANCH   1  23
ATOM     23  C   UNL     1      -0.761   1.407  -6.204  0.00  0.00    +0.077 C 
BRANCH  23  24
ATOM     24  C   UNL     1      -0.227   0.722  -4.944  0.00  0.00    +0.017 C 
BRANCH  24  25
ATOM     25  C   UNL     1      -0.989   1.238  -3.722  0.00  0.00    +0.096 C 
BRANCH  25  27
ATOM     26  N   UNL     1      -0.987   0.864  -1.276  0.00  0.00    -0.317 N 
ATOM     27  C   UNL     1      -0.463   0.564  -2.481  0.00  0.00    +0.213 C 
ATOM     28  O   UNL     1       0.433  -0.250  -2.566  0.00  0.00    -0.276 OA
ATOM     29  H   UNL     1      -1.704   1.515  -1.208  0.00  0.00    +0.149 HD
BRANCH  26  30
ATOM     30  C   UNL     1      -0.476   0.208  -0.070  0.00  0.00    +0.085 C 
BRANCH  30  31
ATOM     31  C   UNL     1      -1.238   0.725   1.152  0.00  0.00    -0.059 C 
BRANCH  31  39
ATOM     32  C   UNL     1      -3.175  -0.227   2.958  0.00  0.00    -0.013 C 
ATOM     33  C   UNL     1      -1.773   0.150   3.442  0.00  0.00    -0.071 C 
ATOM     34  C   UNL     1      -1.378  -0.753   4.613  0.00  0.00    -0.016 C 
ATOM     35  C   UNL     1       0.032  -0.386   5.081  0.00  0.00    -0.003 C 
ATOM     36  C   UNL     1       1.004  -0.527   3.907  0.00  0.00    -0.016 C 
ATOM     37  C   UNL     1       0.540   0.370   2.756  0.00  0.00    -0.071 C 
ATOM     38  C   UNL     1       0.531   1.828   3.219  0.00  0.00    -0.013 C 
ATOM     39  N   UNL     1      -0.813  -0.051   2.336  0.00  0.00    +0.384 N 
ATOM     40  H   UNL     1      -0.791  -1.048   2.091  0.00  0.00    -0.081 HD
ENDBRANCH  31  39
ENDBRANCH  30  31
ENDBRANCH  26  30
ENDBRANCH  25  27
ENDBRANCH  24  25
ENDBRANCH  23  24
ENDBRANCH   1  23
TORSDOF 8
