REMARK  Name = ZINC01148528
REMARK  8 active torsions:
REMARK  status: ('A' for Active; 'I' for Inactive)
REMARK    1  A    between atoms: C_1  and  C_2
REMARK    2  A    between atoms: N_5  and  C_7
REMARK    3  A    between atoms: C_14  and  N_31
REMARK    4  A    between atoms: C_15  and  C_29
REMARK    5  A    between atoms: C_16  and  C_18
REMARK    6  A    between atoms: C_20  and  O_27
REMARK    7  A    between atoms: C_21  and  O_26
REMARK    8  A    between atoms: O_27  and  C_28
REMARK                            x       y       z     vdW  Elec       q    Type
REMARK                         _______ _______ _______ _____ _____    ______ ____
ROOT
ATOM      1  C   UNL     1       2.579   6.798   1.579  0.00  0.00    +0.068 C 
ATOM      2  C   UNL     1       2.722   6.109   0.246  0.00  0.00    +0.068 A 
ATOM      3  C   UNL     1       1.685   5.796  -0.623  0.00  0.00    +0.050 A 
ATOM      4  C   UNL     1       2.222   5.179  -1.719  0.00  0.00    +0.230 A 
ATOM      5  N   UNL     1       3.558   5.110  -1.532  0.00  0.00    -0.200 N 
ATOM      6  N   UNL     1       3.847   5.700  -0.292  0.00  0.00    -0.168 NA
ATOM      7  O   UNL     1       1.468   4.748  -2.760  0.00  0.00    -0.423 OA
ATOM      8  C   UNL     1       0.193   5.182  -2.829  0.00  0.00    +0.200 C 
ATOM      9  C   UNL     1      -0.450   5.794  -1.809  0.00  0.00    +0.098 C 
ATOM     10  C   UNL     1       0.207   6.050  -0.476  0.00  0.00    +0.103 C 
ENDROOT
BRANCH  10  11
ATOM     11  C   UNL     1      -0.367   5.119   0.561  0.00  0.00    -0.011 A 
ATOM     12  C   UNL     1      -0.259   3.750   0.395  0.00  0.00    +0.055 A 
ATOM     13  C   UNL     1      -0.787   2.893   1.346  0.00  0.00    +0.163 A 
ATOM     14  C   UNL     1      -1.432   3.411   2.466  0.00  0.00    +0.174 A 
ATOM     15  C   UNL     1      -1.533   4.784   2.630  0.00  0.00    +0.081 A 
ATOM     16  C   UNL     1      -1.003   5.635   1.676  0.00  0.00    +0.063 A 
ATOM     17 CL   UNL     1      -1.136   7.354   1.879  0.00  0.00    -0.082 Cl
ATOM     18 BR   UNL     1      -2.401   5.493   4.152  0.00  0.00    -0.045 Br
BRANCH  14  19
ATOM     19  O   UNL     1      -1.957   2.573   3.399  0.00  0.00    -0.503 OA
ATOM     20  H   UNL     1      -1.342   2.337   4.107  0.00  0.00    +0.292 HD
ENDBRANCH  14  19
BRANCH  13  21
ATOM     21  O   UNL     1      -0.682   1.547   1.184  0.00  0.00    -0.491 OA
ATOM     22  C   UNL     1      -0.013   1.086   0.008  0.00  0.00    +0.277 C 
ENDBRANCH  13  21
ENDBRANCH  10  11
BRANCH   5  23
ATOM     23  C   UNL     1       4.489   4.550  -2.418  0.00  0.00    +0.069 A 
ATOM     24  C   UNL     1       4.149   3.432  -3.168  0.00  0.00    +0.028 A 
ATOM     25  C   UNL     1       5.066   2.886  -4.045  0.00  0.00    +0.002 A 
ATOM     26  C   UNL     1       6.325   3.445  -4.167  0.00  0.00    +0.000 A 
ATOM     27  C   UNL     1       6.668   4.554  -3.417  0.00  0.00    +0.002 A 
ATOM     28  C   UNL     1       5.753   5.109  -2.543  0.00  0.00    +0.028 A 
ENDBRANCH   5  23
BRANCH   8  29
ATOM     29  N   UNL     1      -0.493   4.991  -4.003  0.00  0.00    -0.328 N 
ATOM     30  H   UNL     1      -1.411   5.292  -4.083  0.00  0.00    +0.145 HD
ATOM     31  H   UNL     1      -0.058   4.555  -4.752  0.00  0.00    +0.145 HD
ENDBRANCH   8  29
BRANCH   9  32
ATOM     32  C   UNL     1      -1.805   6.215  -2.002  0.00  0.00    +0.101 C 
ATOM     33  N   UNL     1      -2.880   6.549  -2.155  0.00  0.00    -0.191 NA
ENDBRANCH   9  32
TORSDOF 6
