REMARK  Name = ZINC14464974
REMARK  3 active torsions:
REMARK  status: ('A' for Active; 'I' for Inactive)
REMARK    1  A    between atoms: C_6  and  C_7
REMARK    2  A    between atoms: C_18  and  S_23
REMARK    3  A    between atoms: S_23  and  N_26
REMARK                            x       y       z     vdW  Elec       q    Type
REMARK                         _______ _______ _______ _____ _____    ______ ____
ROOT
ATOM      1  C   UNL     1       2.418  -2.761  -0.517  0.00  0.00    +0.105 C 
ATOM      2  C   UNL     1       3.642  -2.185   0.169  0.00  0.00    +0.029 C 
ATOM      3  C   UNL     1       3.506  -2.264   1.708  0.00  0.00    +0.033 C 
ATOM      4  C   UNL     1       4.356  -1.100   2.184  0.00  0.00    -0.030 C 
ATOM      5  C   UNL     1       4.496  -0.215   1.228  0.00  0.00    -0.023 C 
ATOM      6  C   UNL     1       3.753  -0.662  -0.023  0.00  0.00    +0.049 C 
ATOM      7  C   UNL     1       2.410   0.016  -0.016  0.00  0.00    -0.018 A 
ATOM      8  C   UNL     1       2.379   1.404  -0.011  0.00  0.00    +0.034 A 
ATOM      9  C   UNL     1       1.175   2.078   0.002  0.00  0.00    +0.106 A 
ATOM     10  C   UNL     1      -0.017   1.376   0.010  0.00  0.00    +0.030 A 
ATOM     11  C   UNL     1       0.002  -0.004   0.002  0.00  0.00    +0.025 A 
ATOM     12  C   UNL     1       1.216  -0.682  -0.012  0.00  0.00    +0.031 A 
ATOM     13  N   UNL     1       1.214  -2.082  -0.025  0.00  0.00    -0.336 N 
ATOM     14  H   UNL     1       0.444  -2.585   0.282  0.00  0.00    +0.147 HD
ENDROOT
BRANCH   1  20
ATOM     15  C   UNL     1       2.221  -1.334  -2.564  0.00  0.00    +0.007 A 
ATOM     16  C   UNL     1       2.333  -1.147  -3.929  0.00  0.00    +0.020 A 
ATOM     17  C   UNL     1       2.749  -2.188  -4.738  0.00  0.00    +0.041 A 
ATOM     18  C   UNL     1       3.059  -3.416  -4.179  0.00  0.00    +0.020 A 
ATOM     19  C   UNL     1       2.951  -3.601  -2.814  0.00  0.00    +0.007 A 
ATOM     20  C   UNL     1       2.535  -2.559  -2.006  0.00  0.00    -0.027 A 
ATOM     21 CL   UNL     1       2.884  -1.956  -6.453  0.00  0.00    -0.084 Cl
ENDBRANCH   1  20
BRANCH   9  22
ATOM     22  S   UNL     1       1.156   3.840   0.008  0.00  0.00    +0.061 S 
ATOM     23  O   UNL     1       2.392   4.262  -0.551  0.00  0.00    -0.153 OA
ATOM     24  O   UNL     1      -0.099   4.234  -0.531  0.00  0.00    -0.153 OA
BRANCH  22  25
ATOM     25  N   UNL     1       1.164   4.324   1.592  0.00  0.00    -0.177 NA
ATOM     26  C   UNL     1      -0.102   4.518   2.264  0.00  0.00    +0.109 C 
ATOM     27  C   UNL     1      -0.584   5.971   2.066  0.00  0.00    +0.017 C 
ATOM     28  C   UNL     1       0.250   6.896   2.846  0.00  0.00    +0.001 C 
ATOM     29  C   UNL     1       1.718   6.924   2.429  0.00  0.00    +0.001 C 
ATOM     30  C   UNL     1       2.458   5.813   3.132  0.00  0.00    +0.017 C 
ATOM     31  C   UNL     1       2.462   4.545   2.258  0.00  0.00    +0.109 C 
ENDBRANCH  22  25
ENDBRANCH   9  22
TORSDOF 3
