REMARK  Name = ZINC36490716
REMARK  7 active torsions:
REMARK  status: ('A' for Active; 'I' for Inactive)
REMARK    1  A    between atoms: C_4  and  O_34
REMARK    2  A    between atoms: C_5  and  C_7
REMARK    3  A    between atoms: C_7  and  C_9
REMARK    4  A    between atoms: C_7  and  N_18
REMARK    5  A    between atoms: N_11  and  C_12
REMARK    6  A    between atoms: N_18  and  C_19
REMARK    7  A    between atoms: C_25  and  C_27
REMARK                            x       y       z     vdW  Elec       q    Type
REMARK                         _______ _______ _______ _____ _____    ______ ____
ROOT
ATOM      1  C   UNL     1       1.275  -1.884  -0.281  0.00  0.00    +0.196 C 
ENDROOT
BRANCH   1   6
ATOM      2  C   UNL     1       0.990   1.768   0.636  0.00  0.00    +0.001 A 
ATOM      3  C   UNL     1       0.565   2.323  -0.557  0.00  0.00    +0.004 A 
ATOM      4  C   UNL     1       0.368   1.519  -1.663  0.00  0.00    +0.046 A 
ATOM      5  C   UNL     1       0.598   0.153  -1.576  0.00  0.00    +0.122 A 
ATOM      6  C   UNL     1       1.025  -0.401  -0.378  0.00  0.00    +0.023 A 
ATOM      7  C   UNL     1       1.219   0.407   0.725  0.00  0.00    +0.009 A 
BRANCH   5   8
ATOM      8  O   UNL     1       0.406  -0.640  -2.663  0.00  0.00    -0.506 OA
ATOM      9  H   UNL     1       1.166  -0.681  -3.259  0.00  0.00    +0.292 HD
ENDBRANCH   5   8
ENDBRANCH   1   6
BRANCH   1  10
ATOM     10  C   UNL     1       1.654  -2.237   1.135  0.00  0.00    +0.238 C 
ATOM     11  O   UNL     1       1.061  -3.120   1.718  0.00  0.00    -0.273 OA
ATOM     12  N   UNL     1       2.651  -1.573   1.752  0.00  0.00    -0.311 N 
ATOM     13  H   UNL     1       3.092  -0.834   1.303  0.00  0.00    +0.149 HD
BRANCH  12  14
ATOM     14  C   UNL     1       3.068  -1.965   3.100  0.00  0.00    +0.073 C 
ATOM     15  C   UNL     1       2.170  -1.279   4.131  0.00  0.00    +0.022 C 
ATOM     16  C   UNL     1       2.606  -1.689   5.540  0.00  0.00    +0.002 C 
ATOM     17  C   UNL     1       4.059  -1.266   5.767  0.00  0.00    +0.000 C 
ATOM     18  C   UNL     1       4.957  -1.952   4.735  0.00  0.00    +0.002 C 
ATOM     19  C   UNL     1       4.521  -1.542   3.327  0.00  0.00    +0.022 C 
ENDBRANCH  12  14
ENDBRANCH   1  10
BRANCH   1  20
ATOM     20  N   UNL     1       0.060  -2.610  -0.657  0.00  0.00    -0.281 N 
ATOM     21  C   UNL     1       0.116  -3.578  -1.594  0.00  0.00    +0.237 C 
ATOM     22  O   UNL     1       1.177  -3.866  -2.106  0.00  0.00    -0.274 OA
BRANCH  21  23
ATOM     23  C   UNL     1      -1.140  -4.301  -2.005  0.00  0.00    +0.159 C 
ATOM     24  C   UNL     1      -1.484  -5.402  -0.977  0.00  0.00    +0.041 C 
ATOM     25  C   UNL     1      -0.802  -6.641  -1.603  0.00  0.00    +0.098 C 
ATOM     26  C   UNL     1      -0.731  -6.319  -3.079  0.00  0.00    +0.214 C 
ATOM     27  O   UNL     1      -0.525  -7.130  -3.958  0.00  0.00    -0.276 OA
ATOM     28  N   UNL     1      -0.929  -5.003  -3.277  0.00  0.00    -0.304 N 
ATOM     29  H   UNL     1      -0.933  -4.572  -4.146  0.00  0.00    +0.149 HD
ENDBRANCH  21  23
BRANCH  20  30
ATOM     30  C   UNL     1      -1.216  -2.285  -0.015  0.00  0.00    +0.077 C 
ATOM     31  C   UNL     1      -2.119  -1.557  -1.014  0.00  0.00    +0.022 C 
ATOM     32  C   UNL     1      -3.451  -1.218  -0.343  0.00  0.00    +0.002 C 
ATOM     33  C   UNL     1      -3.198  -0.316   0.867  0.00  0.00    +0.000 C 
ATOM     34  C   UNL     1      -2.296  -1.043   1.865  0.00  0.00    +0.002 C 
ATOM     35  C   UNL     1      -0.963  -1.383   1.195  0.00  0.00    +0.022 C 
ENDBRANCH  20  30
ENDBRANCH   1  20
TORSDOF 7
