REMARK  Name = ZINC59037876
REMARK  7 active torsions:
REMARK  status: ('A' for Active; 'I' for Inactive)
REMARK    1  A    between atoms: C_1  and  C_2
REMARK    2  A    between atoms: C_11  and  C_14
REMARK    3  A    between atoms: C_14  and  N_15
REMARK    4  A    between atoms: N_18  and  C_19
REMARK    5  A    between atoms: C_19  and  C_20
REMARK    6  A    between atoms: C_20  and  C_22
REMARK    7  A    between atoms: C_20  and  N_27
REMARK                            x       y       z     vdW  Elec       q    Type
REMARK                         _______ _______ _______ _____ _____    ______ ____
ROOT
ATOM      1  N   UNL     1      -1.683  -7.731   4.645  0.00  0.00    -0.295 N 
ATOM      2  C   UNL     1      -2.145  -8.815   5.300  0.00  0.00    +0.300 C 
ATOM      3  O   UNL     1      -2.555  -8.709   6.439  0.00  0.00    -0.253 OA
ATOM      4  N   UNL     1      -2.152 -10.018   4.690  0.00  0.00    -0.301 N 
ATOM      5  H   UNL     1      -1.356  -7.816   3.736  0.00  0.00    +0.151 HD
ATOM      6  H   UNL     1      -1.825 -10.103   3.781  0.00  0.00    +0.150 HD
ENDROOT
BRANCH   1   7
ATOM      7  C   UNL     1      -1.675  -6.425   5.307  0.00  0.00    +0.142 C 
BRANCH   7  18
ATOM      8  C   UNL     1       2.524  -1.719  -1.811  0.00  0.00    +0.007 C 
ATOM      9  C   UNL     1       1.855  -1.583  -0.442  0.00  0.00    -0.011 C 
ATOM     10  C   UNL     1       2.622  -2.418   0.586  0.00  0.00    +0.022 C 
ATOM     11  C   UNL     1       1.970  -2.251   1.962  0.00  0.00    +0.107 C 
ATOM     12  N   UNL     1       0.544  -2.588   1.854  0.00  0.00    -0.317 N 
ATOM     13  C   UNL     1      -0.268  -1.908   0.835  0.00  0.00    +0.107 C 
ATOM     14  C   UNL     1       0.409  -2.078  -0.529  0.00  0.00    +0.022 C 
ATOM     15  C   UNL     1      -0.027  -3.532   2.699  0.00  0.00    +0.099 A 
ATOM     16  C   UNL     1      -1.402  -3.746   2.666  0.00  0.00    +0.042 A 
ATOM     17  C   UNL     1      -1.956  -4.688   3.513  0.00  0.00    +0.010 A 
ATOM     18  C   UNL     1      -1.115  -5.388   4.367  0.00  0.00    -0.014 A 
ATOM     19  C   UNL     1       0.240  -5.125   4.348  0.00  0.00    +0.089 A 
ATOM     20  N   UNL     1       0.742  -4.224   3.525  0.00  0.00    -0.349 N 
ATOM     21  H   UNL     1       1.699  -4.061   3.529  0.00  0.00    +0.167 HD
ENDBRANCH   7  18
ENDBRANCH   1   7
BRANCH   4  22
ATOM     22  C   UNL     1      -2.654 -11.196   5.402  0.00  0.00    +0.095 C 
BRANCH  22  23
ATOM     23  C   UNL     1      -2.433 -12.443   4.542  0.00  0.00    -0.013 C 
BRANCH  23  24
ATOM     24  N   UNL     1      -3.029 -13.608   5.208  0.00  0.00    +0.386 N 
ATOM     25  C   UNL     1      -2.729 -14.831   4.434  0.00  0.00    -0.078 C 
ATOM     26  C   UNL     1      -4.000 -15.707   4.570  0.00  0.00    -0.020 C 
ATOM     27  C   UNL     1      -5.123 -14.638   4.532  0.00  0.00    -0.020 C 
ATOM     28  C   UNL     1      -4.493 -13.444   5.279  0.00  0.00    -0.078 C 
ATOM     29  H   UNL     1      -2.652 -13.698   6.140  0.00  0.00    -0.081 HD
ENDBRANCH  23  24
BRANCH  23  30
ATOM     30  C   UNL     1      -0.954 -12.671   4.359  0.00  0.00    -0.022 A 
ATOM     31  C   UNL     1      -0.167 -12.357   3.302  0.00  0.00    +0.009 A 
ATOM     32  C   UNL     1       1.180 -12.663   3.354  0.00  0.00    +0.008 A 
ATOM     33  C   UNL     1       1.673 -13.269   4.462  0.00  0.00    +0.045 A 
ATOM     34  S   UNL     1       0.216 -13.417   5.482  0.00  0.00    -0.103 S 
ENDBRANCH  23  30
ENDBRANCH  22  23
ENDBRANCH   4  22
TORSDOF 6
