REMARK  Name = ZINC08915563
REMARK  7 active torsions:
REMARK  status: ('A' for Active; 'I' for Inactive)
REMARK    1  A    between atoms: C_3  and  C_10
REMARK    2  A    between atoms: C_5  and  N_7
REMARK    3  A    between atoms: C_13  and  C_15
REMARK    4  A    between atoms: C_17  and  C_29
REMARK    5  A    between atoms: C_19  and  C_24
REMARK    6  A    between atoms: C_19  and  O_28
REMARK    7  A    between atoms: C_29  and  C_31
REMARK                            x       y       z     vdW  Elec       q    Type
REMARK                         _______ _______ _______ _____ _____    ______ ____
ROOT
ATOM      1  C   UNL     1       3.503  -2.622   1.398  0.00  0.00    +0.156 C 
ATOM      2  C   UNL     1       3.004  -2.441  -0.039  0.00  0.00    +0.148 C 
ATOM      3  C   UNL     1       3.119  -3.783  -0.769  0.00  0.00    +0.243 C 
ATOM      4  N   UNL     1       2.389  -4.804  -0.015  0.00  0.00    -0.264 N 
ATOM      5  C   UNL     1       2.249  -4.721   1.317  0.00  0.00    +0.302 C 
ATOM      6  O   UNL     1       1.641  -5.601   1.896  0.00  0.00    -0.253 OA
ATOM      7  N   UNL     1       2.752  -3.705   2.034  0.00  0.00    -0.289 N 
ATOM      8  H   UNL     1       1.999  -5.556  -0.488  0.00  0.00    +0.153 HD
ATOM      9  H   UNL     1       2.615  -3.688   2.994  0.00  0.00    +0.151 HD
ENDROOT
BRANCH   1  13
ATOM     10  C   UNL     1       6.829  -4.122   1.208  0.00  0.00    +0.135 A 
ATOM     11  C   UNL     1       7.179  -2.841   1.500  0.00  0.00    +0.050 A 
ATOM     12  C   UNL     1       5.981  -2.107   1.611  0.00  0.00    +0.047 A 
ATOM     13  C   UNL     1       4.970  -2.967   1.383  0.00  0.00    +0.127 A 
ATOM     14  O   UNL     1       5.485  -4.184   1.145  0.00  0.00    -0.458 OA
BRANCH  10  17
ATOM     15  C   UNL     1      10.002  -6.108   0.908  0.00  0.00    +0.003 A 
ATOM     16  C   UNL     1       9.138  -5.048   1.095  0.00  0.00    +0.012 A 
ATOM     17  C   UNL     1       7.760  -5.250   1.001  0.00  0.00    +0.019 A 
ATOM     18  C   UNL     1       7.266  -6.522   0.705  0.00  0.00    +0.044 A 
ATOM     19  C   UNL     1       8.141  -7.571   0.513  0.00  0.00    +0.127 A 
ATOM     20  C   UNL     1       9.505  -7.365   0.614  0.00  0.00    +0.033 A 
BRANCH  19  21
ATOM     21  N   UNL     1       7.619  -8.920   0.199  0.00  0.00    +0.056 N 
ATOM     22  O   UNL     1       6.418  -9.103   0.110  0.00  0.00    -0.126 OA
ATOM     23  O   UNL     1       8.390  -9.847   0.029  0.00  0.00    -0.126 OA
ENDBRANCH  19  21
ENDBRANCH  10  17
ENDBRANCH   1  13
BRANCH   3  24
ATOM     24  C   UNL     1       2.522  -3.656  -2.171  0.00  0.00    +0.436 C 
ATOM     25  F   UNL     1       3.217  -2.676  -2.887  0.00  0.00    -0.166 F 
ATOM     26  F   UNL     1       2.628  -4.883  -2.836  0.00  0.00    -0.166 F 
ATOM     27  F   UNL     1       1.174  -3.295  -2.073  0.00  0.00    -0.166 F 
ENDBRANCH   3  24
BRANCH   3  28
ATOM     28  O   UNL     1       4.496  -4.156  -0.868  0.00  0.00    -0.364 OA
ATOM     29  H   UNL     1       4.644  -4.998  -1.319  0.00  0.00    +0.212 HD
ENDBRANCH   3  28
BRANCH   2  30
ATOM     30  C   UNL     1       1.564  -1.996  -0.023  0.00  0.00    +0.180 C 
ATOM     31  O   UNL     1       0.673  -2.822  -0.018  0.00  0.00    -0.291 OA
BRANCH  30  32
ATOM     32  C   UNL     1       1.250  -0.619  -0.013  0.00  0.00    +0.055 A 
ATOM     33  C   UNL     1       0.002  -0.004   0.002  0.00  0.00    +0.019 A 
ATOM     34  C   UNL     1      -0.017   1.366   0.010  0.00  0.00    +0.008 A 
ATOM     35  C   UNL     1       1.161   2.047   0.002  0.00  0.00    +0.046 A 
ATOM     36  S   UNL     1       2.350   0.785  -0.016  0.00  0.00    -0.094 S 
ENDBRANCH  30  32
ENDBRANCH   2  30
TORSDOF 7
