REMARK  Name = ZINC63446277
REMARK  8 active torsions:
REMARK  status: ('A' for Active; 'I' for Inactive)
REMARK    1  A    between atoms: C_1  and  O_2
REMARK    2  A    between atoms: O_2  and  C_3
REMARK    3  A    between atoms: C_7  and  C_9
REMARK    4  A    between atoms: C_13  and  S_22
REMARK    5  A    between atoms: N_15  and  C_16
REMARK    6  A    between atoms: C_16  and  C_17
REMARK    7  A    between atoms: S_22  and  C_23
REMARK    8  A    between atoms: C_23  and  C_24
REMARK                            x       y       z     vdW  Elec       q    Type
REMARK                         _______ _______ _______ _____ _____    ______ ____
ROOT
ATOM      1  C   UNL     1       1.299  -4.064  -2.367  0.00  0.00    +0.172 C 
ATOM      2  N   UNL     1       1.287  -4.502  -0.953  0.00  0.00    -0.233 NA
ATOM      3  N   UNL     1       2.099  -5.729  -0.941  0.00  0.00    -0.229 NA
ATOM      4  C   UNL     1       3.184  -5.423  -1.909  0.00  0.00    +0.200 C 
ATOM      5  N   UNL     1       2.510  -4.650  -2.979  0.00  0.00    -0.250 NA
ATOM      6  H   UNL     1       0.346  -4.688  -0.640  0.00  0.00    +0.143 HD
ATOM      7  H   UNL     1       2.474  -5.905  -0.021  0.00  0.00    +0.143 HD
ENDROOT
BRANCH   1  12
ATOM      8  C   UNL     1       0.812  -0.411  -1.530  0.00  0.00    +0.120 A 
ATOM      9  C   UNL     1       1.473   0.203  -2.584  0.00  0.00    +0.045 A 
ATOM     10  C   UNL     1       2.074  -0.566  -3.562  0.00  0.00    +0.004 A 
ATOM     11  C   UNL     1       2.017  -1.946  -3.491  0.00  0.00    +0.007 A 
ATOM     12  C   UNL     1       1.359  -2.559  -2.441  0.00  0.00    -0.011 A 
ATOM     13  C   UNL     1       0.762  -1.795  -1.458  0.00  0.00    +0.052 A 
BRANCH   8  15
ATOM     14  C   UNL     1       0.313   1.762  -0.705  0.00  0.00    +0.277 C 
ATOM     15  O   UNL     1       0.221   0.343  -0.566  0.00  0.00    -0.495 OA
ENDBRANCH   8  15
ENDBRANCH   1  12
BRANCH   5  16
ATOM     16  C   UNL     1       2.159  -5.514  -4.114  0.00  0.00    +0.163 C 
BRANCH  16  17
ATOM     17  C   UNL     1       1.548  -4.681  -5.211  0.00  0.00    +0.119 A 
ATOM     18  C   UNL     1       2.206  -4.159  -6.262  0.00  0.00    +0.046 A 
ATOM     19  C   UNL     1       1.253  -3.457  -7.034  0.00  0.00    +0.041 A 
ATOM     20  C   UNL     1       0.069  -3.591  -6.409  0.00  0.00    +0.195 A 
ATOM     21  O   UNL     1       0.253  -4.339  -5.308  0.00  0.00    -0.467 OA
ENDBRANCH  16  17
ENDBRANCH   5  16
BRANCH   4  22
ATOM     22  S   UNL     1       3.889  -6.955  -2.577  0.00  0.00    -0.121 S 
BRANCH  22  23
ATOM     23  C   UNL     1       4.888  -7.610  -1.212  0.00  0.00    +0.118 C 
BRANCH  23  24
ATOM     24  C   UNL     1       5.449  -8.979  -1.602  0.00  0.00    +0.184 C 
ATOM     25  N   UNL     1       6.318  -8.851  -2.778  0.00  0.00    -0.363 N 
ATOM     26  C   UNL     1       5.803  -9.579  -3.726  0.00  0.00    +0.060 A 
ATOM     27  C   UNL     1       6.210  -9.849  -5.112  0.00  0.00    +0.027 A 
ATOM     28  C   UNL     1       5.459 -10.665  -5.878  0.00  0.00    +0.002 A 
ATOM     29  C   UNL     1       4.285 -11.280  -5.408  0.00  0.00    +0.002 A 
ATOM     30  C   UNL     1       3.822 -11.099  -4.154  0.00  0.00    +0.027 A 
ATOM     31  C   UNL     1       4.560 -10.229  -3.228  0.00  0.00    +0.060 A 
ATOM     32  N   UNL     1       4.356  -9.879  -1.991  0.00  0.00    -0.363 N 
ATOM     33  H   UNL     1       7.129  -8.321  -2.838  0.00  0.00    +0.162 HD
ATOM     34  H   UNL     1       3.618 -10.161  -1.429  0.00  0.00    +0.162 HD
ENDBRANCH  23  24
ENDBRANCH  22  23
ENDBRANCH   4  22
TORSDOF 7
