REMARK  Name = ZINC12401667
REMARK  8 active torsions:
REMARK  status: ('A' for Active; 'I' for Inactive)
REMARK    1  A    between atoms: C_1  and  C_2
REMARK    2  A    between atoms: C_2  and  C_3
REMARK    3  A    between atoms: C_2  and  S_4
REMARK    4  A    between atoms: S_4  and  C_5
REMARK    5  A    between atoms: C_16  and  C_18
REMARK    6  A    between atoms: C_16  and  C_19
REMARK    7  A    between atoms: C_31  and  C_34
REMARK    8  A    between atoms: C_32  and  N_33
REMARK                            x       y       z     vdW  Elec       q    Type
REMARK                         _______ _______ _______ _____ _____    ______ ____
ROOT
ATOM      1  C   UNL     1       1.468  -0.097  -1.284  0.00  0.00    +0.160 A 
ATOM      2  N   UNL     1       0.711  -0.370  -2.337  0.00  0.00    -0.133 NA
ATOM      3  N   UNL     1       1.167  -0.974  -3.346  0.00  0.00    -0.124 NA
ATOM      4  C   UNL     1       2.424  -1.383  -3.411  0.00  0.00    +0.194 A 
ATOM      5  S   UNL     1       3.018  -0.815  -1.820  0.00  0.00    -0.024 S 
ATOM      6  N   UNL     1       3.094  -2.060  -4.427  0.00  0.00    -0.237 N 
ATOM      7  C   UNL     1       3.658  -1.353  -5.456  0.00  0.00    +0.028 C 
ATOM      8  C   UNL     1       4.625  -1.908  -6.221  0.00  0.00    +0.037 C 
ATOM      9  C   UNL     1       5.214  -1.191  -7.277  0.00  0.00    +0.163 C 
ATOM     10  O   UNL     1       6.064  -1.726  -7.960  0.00  0.00    -0.292 OA
ATOM     11  C   UNL     1       4.810   0.227  -7.576  0.00  0.00    +0.086 C 
ATOM     12  C   UNL     1       4.331   0.892  -6.282  0.00  0.00    -0.023 C 
ATOM     13  C   UNL     1       3.186   0.057  -5.703  0.00  0.00    +0.058 C 
ATOM     14  C   UNL     1       5.483   0.951  -5.277  0.00  0.00    +0.011 C 
ATOM     15  C   UNL     1       3.839   2.309  -6.583  0.00  0.00    +0.011 C 
ATOM     16  C   UNL     1       5.097  -3.316  -5.967  0.00  0.00    +0.141 C 
ATOM     17  C   UNL     1       6.460  -3.307  -5.343  0.00  0.00    +0.001 A 
ATOM     18  C   UNL     1       6.908  -2.804  -4.141  0.00  0.00    +0.045 A 
ATOM     19  C   UNL     1       8.262  -2.963  -3.856  0.00  0.00    +0.124 A 
ATOM     20  C   UNL     1       9.113  -3.597  -4.742  0.00  0.00    +0.040 A 
ATOM     21  C   UNL     1       8.666  -4.105  -5.952  0.00  0.00    +0.026 A 
ATOM     22  C   UNL     1       7.311  -3.952  -6.248  0.00  0.00    +0.038 A 
ATOM     23  N   UNL     1       6.605  -4.357  -7.368  0.00  0.00    -0.284 N 
ATOM     24  C   UNL     1       5.300  -4.027  -7.290  0.00  0.00    +0.238 C 
ATOM     25  O   UNL     1       4.447  -4.258  -8.122  0.00  0.00    -0.274 OA
ATOM     26  F   UNL     1       8.753  -2.489  -2.691  0.00  0.00    -0.205 F 
ATOM     27  C   UNL     1       4.125  -4.079  -5.119  0.00  0.00    +0.089 C 
ATOM     28  C   UNL     1       3.177  -3.434  -4.390  0.00  0.00    +0.109 C 
ATOM     29  H   UNL     1       7.003  -4.822  -8.120  0.00  0.00    +0.155 HD
ENDROOT
BRANCH  28  30
ATOM     30  N   UNL     1       2.299  -4.154  -3.615  0.00  0.00    -0.345 N 
ATOM     31  H   UNL     1       1.565  -3.704  -3.168  0.00  0.00    +0.144 HD
ATOM     32  H   UNL     1       2.414  -5.112  -3.515  0.00  0.00    +0.144 HD
ENDBRANCH  28  30
BRANCH  27  33
ATOM     33  C   UNL     1       4.196  -5.509  -5.077  0.00  0.00    +0.100 C 
ATOM     34  N   UNL     1       4.253  -6.643  -5.043  0.00  0.00    -0.191 NA
ENDBRANCH  27  33
BRANCH   1  35
ATOM     35  S   UNL     1       1.062   0.729   0.219  0.00  0.00    -0.094 S 
BRANCH  35  37
ATOM     36  C   UNL     1      -1.526  -0.115  -0.050  0.00  0.00    +0.019 C 
ATOM     37  C   UNL     1      -0.689   1.164   0.022  0.00  0.00    +0.047 C 
ATOM     38  C   UNL     1      -1.143   2.004   1.217  0.00  0.00    +0.019 C 
ENDBRANCH  35  37
ENDBRANCH   1  35
TORSDOF 4
