REMARK  Name = ZINC00728451
REMARK  6 active torsions:
REMARK  status: ('A' for Active; 'I' for Inactive)
REMARK    1  A    between atoms: C_1  and  C_2
REMARK    2  A    between atoms: C_2  and  C_3
REMARK    3  A    between atoms: C_6  and  C_8
REMARK    4  A    between atoms: C_6  and  O_15
REMARK    5  A    between atoms: C_11  and  C_14
REMARK    6  A    between atoms: C_16  and  C_18
REMARK                            x       y       z     vdW  Elec       q    Type
REMARK                         _______ _______ _______ _____ _____    ______ ____
ROOT
ATOM      1  C   UNL     1      -1.413  -0.531   0.075  0.00  0.00    +0.042 C 
ATOM      2  N   UNL     1      -2.456   0.192   0.064  0.00  0.00    -0.183 NA
ATOM      3  N   UNL     1      -3.653  -0.521   0.053  0.00  0.00    -0.153 N 
ATOM      4  C   UNL     1      -3.345  -1.961   0.058  0.00  0.00    +0.187 C 
ATOM      5  C   UNL     1      -1.803  -1.992   0.067  0.00  0.00    +0.114 C 
ATOM      6  C   UNL     1      -4.889   0.017   0.040  0.00  0.00    +0.269 C 
ATOM      7  O   UNL     1      -5.864  -0.701  -0.065  0.00  0.00    -0.268 OA
ENDROOT
BRANCH   4   8
ATOM      8  C   UNL     1      -3.902  -2.619   1.294  0.00  0.00    +0.004 A 
ATOM      9  C   UNL     1      -4.162  -3.977   1.295  0.00  0.00    +0.008 A 
ATOM     10  C   UNL     1      -4.674  -4.581   2.429  0.00  0.00    +0.004 A 
ATOM     11  C   UNL     1      -4.924  -3.828   3.560  0.00  0.00    -0.050 A 
ATOM     12  C   UNL     1      -4.663  -2.471   3.559  0.00  0.00    +0.004 A 
ATOM     13  C   UNL     1      -4.148  -1.867   2.427  0.00  0.00    +0.008 A 
ATOM     14  C   UNL     1      -5.482  -4.487   4.796  0.00  0.00    +0.044 C 
ENDBRANCH   4   8
BRANCH   6  15
ATOM     15  C   UNL     1      -5.058   1.481   0.153  0.00  0.00    +0.039 A 
ATOM     16  C   UNL     1      -6.335   2.032   0.274  0.00  0.00    +0.014 A 
ATOM     17  C   UNL     1      -6.487   3.398   0.379  0.00  0.00    +0.016 A 
ATOM     18  C   UNL     1      -5.375   4.224   0.365  0.00  0.00    +0.018 A 
ATOM     19  C   UNL     1      -4.106   3.684   0.244  0.00  0.00    +0.016 A 
ATOM     20  C   UNL     1      -3.941   2.318   0.144  0.00  0.00    +0.014 A 
ATOM     21 BR   UNL     1      -5.591   6.097   0.509  0.00  0.00    -0.050 Br
ENDBRANCH   6  15
BRANCH   1  23
ATOM     22  C   UNL     1      -0.017   1.518   0.093  0.00  0.00    +0.010 C 
ATOM     23  C   UNL     1       0.002  -0.011   0.088  0.00  0.00    +0.049 C 
ENDBRANCH   1  23
BRANCH   4  24
ATOM     24  O   UNL     1      -3.850  -2.589  -1.121  0.00  0.00    -0.366 OA
ATOM     25  H   UNL     1      -4.811  -2.534  -1.216  0.00  0.00    +0.212 HD
ENDBRANCH   4  24
TORSDOF 4
