REMARK  Name = ZINC24858541
REMARK  9 active torsions:
REMARK  status: ('A' for Active; 'I' for Inactive)
REMARK    1  A    between atoms: C_1  and  C_2
REMARK    2  A    between atoms: C_2  and  C_3
REMARK    3  A    between atoms: C_3  and  C_30
REMARK    4  A    between atoms: N_6  and  N_10
REMARK    5  A    between atoms: C_11  and  C_13
REMARK    6  A    between atoms: C_13  and  N_14
REMARK    7  A    between atoms: C_17  and  C_20
REMARK    8  A    between atoms: N_22  and  C_23
REMARK    9  A    between atoms: C_23  and  C_24
REMARK                            x       y       z     vdW  Elec       q    Type
REMARK                         _______ _______ _______ _____ _____    ______ ____
ROOT
ATOM      1  N   UNL     1      -4.192   2.924  -5.265  0.00  0.00    -0.225 N 
ATOM      2  C   UNL     1      -4.154   1.625  -5.625  0.00  0.00    +0.213 C 
ATOM      3  O   UNL     1      -3.715   1.310  -6.711  0.00  0.00    -0.276 OA
ATOM      4  H   UNL     1      -4.591   3.210  -4.281  0.00  0.00    +0.173 HD
ENDROOT
BRANCH   1   8
ATOM      5  C   UNL     1      -3.592   5.619  -7.654  0.00  0.00    +0.139 C 
ATOM      6  C   UNL     1      -4.524   4.733  -6.852  0.00  0.00    +0.268 C 
ATOM      7  O   UNL     1      -5.736   4.760  -6.847  0.00  0.00    -0.271 OA
ATOM      8  N   UNL     1      -3.726   3.909  -6.145  0.00  0.00    -0.137 N 
ATOM      9  C   UNL     1      -2.432   4.148  -6.388  0.00  0.00    +0.327 C 
ATOM     10  O   UNL     1      -1.522   3.533  -5.867  0.00  0.00    -0.251 OA
ATOM     11  N   UNL     1      -2.250   5.146  -7.271  0.00  0.00    -0.280 N 
ATOM     12  H   UNL     1      -1.357   5.616  -7.707  0.00  0.00    +0.152 HD
BRANCH   5  13
ATOM     13  C   UNL     1      -3.820   5.427  -9.132  0.00  0.00    -0.015 A 
ATOM     14  C   UNL     1      -4.737   6.218  -9.798  0.00  0.00    +0.006 A 
ATOM     15  C   UNL     1      -4.951   6.037 -11.152  0.00  0.00    +0.000 A 
ATOM     16  C   UNL     1      -4.247   5.066 -11.839  0.00  0.00    +0.000 A 
ATOM     17  C   UNL     1      -3.329   4.276 -11.173  0.00  0.00    +0.000 A 
ATOM     18  C   UNL     1      -3.116   4.455  -9.819  0.00  0.00    +0.006 A 
ENDBRANCH   5  13
BRANCH   5  20
ATOM     19  C   UNL     1      -3.422   7.277  -5.793  0.00  0.00    +0.007 C 
ATOM     20  C   UNL     1      -3.780   7.087  -7.269  0.00  0.00    +0.037 C 
ENDBRANCH   5  20
ENDBRANCH   1   8
BRANCH   2  21
ATOM     21  C   UNL     1      -4.656   0.566  -4.678  0.00  0.00    +0.020 C 
BRANCH  21  22
ATOM     22  N   UNL     1      -4.647  -0.739  -5.354  0.00  0.00    +0.385 N 
ATOM     23  C   UNL     1      -4.887  -1.828  -4.399  0.00  0.00    -0.077 C 
ATOM     24  C   UNL     1      -4.726  -3.174  -5.108  0.00  0.00    -0.006 C 
ATOM     25  C   UNL     1      -5.724  -3.257  -6.267  0.00  0.00    +0.071 C 
ATOM     26  C   UNL     1      -5.484  -2.085  -7.221  0.00  0.00    -0.006 C 
ATOM     27  C   UNL     1      -5.622  -0.770  -6.451  0.00  0.00    -0.077 C 
ATOM     28  H   UNL     1      -3.648  -0.889  -5.789  0.00  0.00    -0.081 HD
BRANCH  25  29
ATOM     29  C   UNL     1      -5.530  -4.556  -7.006  0.00  0.00    +0.216 C 
ATOM     30  O   UNL     1      -5.229  -4.547  -8.181  0.00  0.00    -0.276 OA
ATOM     31  N   UNL     1      -5.691  -5.729  -6.361  0.00  0.00    -0.311 N 
ATOM     32  H   UNL     1      -5.963  -5.738  -5.295  0.00  0.00    +0.149 HD
BRANCH  31  33
ATOM     33  C   UNL     1      -5.502  -6.992  -7.079  0.00  0.00    +0.139 C 
BRANCH  33  34
ATOM     34  C   UNL     1      -5.739  -8.145  -6.139  0.00  0.00    -0.030 A 
ATOM     35  C   UNL     1      -4.686  -8.674  -5.415  0.00  0.00    +0.005 A 
ATOM     36  C   UNL     1      -4.904  -9.728  -4.548  0.00  0.00    +0.000 A 
ATOM     37  C   UNL     1      -6.173 -10.261  -4.413  0.00  0.00    +0.000 A 
ATOM     38  C   UNL     1      -7.224  -9.736  -5.141  0.00  0.00    +0.000 A 
ATOM     39  C   UNL     1      -7.007  -8.678  -6.004  0.00  0.00    +0.005 A 
ENDBRANCH  33  34
ENDBRANCH  31  33
ENDBRANCH  25  29
ENDBRANCH  21  22
ENDBRANCH   2  21
TORSDOF 8
