REMARK  Name = ZINC06084904
REMARK  6 active torsions:
REMARK  status: ('A' for Active; 'I' for Inactive)
REMARK    1  A    between atoms: C_3  and  S_23
REMARK    2  A    between atoms: C_6  and  N_7
REMARK    3  A    between atoms: C_8  and  C_10
REMARK    4  A    between atoms: C_10  and  S_11
REMARK    5  A    between atoms: S_11  and  C_12
REMARK    6  A    between atoms: S_23  and  N_26
REMARK                            x       y       z     vdW  Elec       q    Type
REMARK                         _______ _______ _______ _____ _____    ______ ____
ROOT
ATOM      1  N   UNL     1      -1.199  -0.722   0.010  0.00  0.00    -0.285 N 
ATOM      2  C   UNL     1      -1.183  -2.065  -0.099  0.00  0.00    +0.227 C 
ATOM      3  O   UNL     1      -0.125  -2.659  -0.113  0.00  0.00    -0.275 OA
ATOM      4  H   UNL     1      -2.044  -0.253   0.098  0.00  0.00    +0.155 HD
ENDROOT
BRANCH   1  10
ATOM      5  C   UNL     1       1.072  -0.453  -0.766  0.00  0.00    +0.025 A 
ATOM      6  C   UNL     1       2.256   0.259  -0.778  0.00  0.00    +0.030 A 
ATOM      7  C   UNL     1       2.376   1.416  -0.032  0.00  0.00    +0.105 A 
ATOM      8  C   UNL     1       1.312   1.866   0.729  0.00  0.00    +0.030 A 
ATOM      9  C   UNL     1       0.126   1.160   0.744  0.00  0.00    +0.025 A 
ATOM     10  C   UNL     1       0.002  -0.004  -0.004  0.00  0.00    +0.034 A 
BRANCH   7  11
ATOM     11  S   UNL     1       3.889   2.320  -0.048  0.00  0.00    +0.056 S 
ATOM     12  O   UNL     1       3.928   3.069   1.159  0.00  0.00    -0.153 OA
ATOM     13  O   UNL     1       4.909   1.398  -0.406  0.00  0.00    -0.153 OA
BRANCH  11  14
ATOM     14  N   UNL     1       3.789   3.419  -1.284  0.00  0.00    -0.204 NA
ATOM     15  H   UNL     1       2.989   3.462  -1.831  0.00  0.00    +0.144 HD
ATOM     16  H   UNL     1       4.530   4.019  -1.460  0.00  0.00    +0.144 HD
ENDBRANCH  11  14
ENDBRANCH   7  11
ENDBRANCH   1  10
BRANCH   2  17
ATOM     17  C   UNL     1      -2.478  -2.828  -0.204  0.00  0.00    +0.173 C 
BRANCH  17  18
ATOM     18  S   UNL     1      -2.124  -4.603  -0.337  0.00  0.00    -0.079 S 
BRANCH  18  19
ATOM     19  C   UNL     1      -3.717  -5.347  -0.450  0.00  0.00    +0.168 A 
ATOM     20  N   UNL     1      -3.951  -6.689  -0.562  0.00  0.00    -0.333 N 
ATOM     21  H   UNL     1      -3.280  -7.389  -0.592  0.00  0.00    +0.168 HD
ATOM     22  C   UNL     1      -5.324  -6.863  -0.623  0.00  0.00    +0.068 A 
ATOM     23  C   UNL     1      -6.148  -7.972  -0.737  0.00  0.00    +0.047 A 
ATOM     24  C   UNL     1      -7.518  -7.810  -0.771  0.00  0.00    +0.043 A 
ATOM     25  C   UNL     1      -8.078  -6.542  -0.693  0.00  0.00    +0.022 A 
ATOM     26  C   UNL     1      -7.274  -5.430  -0.580  0.00  0.00    +0.031 A 
ATOM     27  C   UNL     1      -5.885  -5.578  -0.543  0.00  0.00    +0.090 A 
ATOM     28  N   UNL     1      -4.855  -4.697  -0.434  0.00  0.00    -0.222 NA
ATOM     29 CL   UNL     1      -8.549  -9.199  -0.914  0.00  0.00    -0.083 Cl
ENDBRANCH  18  19
ENDBRANCH  17  18
ENDBRANCH   2  17
TORSDOF 6
