REMARK  Name = ZINC39792369
REMARK  5 active torsions:
REMARK  status: ('A' for Active; 'I' for Inactive)
REMARK    1  A    between atoms: C_1  and  C_2
REMARK    2  A    between atoms: C_10  and  S_14
REMARK    3  A    between atoms: S_14  and  C_15
REMARK    4  A    between atoms: C_15  and  C_16
REMARK    5  A    between atoms: N_22  and  C_23
REMARK                            x       y       z     vdW  Elec       q    Type
REMARK                         _______ _______ _______ _____ _____    ______ ____
ROOT
ATOM      1  C   UNL     1      -3.918  -7.802   6.049  0.00  0.00    +0.146 A 
ATOM      2  N   UNL     1      -3.857  -9.100   5.807  0.00  0.00    -0.199 NA
ATOM      3  C   UNL     1      -4.453  -9.960   6.629  0.00  0.00    +0.217 A 
ATOM      4  N   UNL     1      -5.109  -9.513   7.695  0.00  0.00    -0.181 NA
ATOM      5  C   UNL     1      -5.168  -8.208   7.935  0.00  0.00    +0.224 A 
ATOM      6  N   UNL     1      -4.565  -7.354   7.111  0.00  0.00    -0.198 NA
ATOM      7  N   UNL     1      -5.849  -7.738   9.040  0.00  0.00    -0.284 N 
ATOM      8  N   UNL     1      -4.389 -11.315   6.376  0.00  0.00    -0.327 N 
ATOM      9  H   UNL     1      -5.962  -6.784   9.171  0.00  0.00    +0.155 HD
ATOM     10  H   UNL     1      -3.910 -11.641   5.598  0.00  0.00    +0.145 HD
ATOM     11  H   UNL     1      -4.823 -11.942   6.975  0.00  0.00    +0.145 HD
ENDROOT
BRANCH   7  12
ATOM     12  C   UNL     1      -6.377  -8.639   9.972  0.00  0.00    +0.034 A 
ATOM     13  C   UNL     1      -5.678  -9.796  10.294  0.00  0.00    +0.026 A 
ATOM     14  C   UNL     1      -6.201 -10.684  11.214  0.00  0.00    +0.040 A 
ATOM     15  C   UNL     1      -7.420 -10.421  11.815  0.00  0.00    +0.124 A 
ATOM     16  C   UNL     1      -8.118  -9.269  11.496  0.00  0.00    +0.040 A 
ATOM     17  C   UNL     1      -7.597  -8.376  10.581  0.00  0.00    +0.026 A 
ATOM     18  F   UNL     1      -7.929 -11.291  12.715  0.00  0.00    -0.205 F 
ENDBRANCH   7  12
BRANCH   1  19
ATOM     19  C   UNL     1      -3.242  -6.831   5.115  0.00  0.00    +0.153 C 
BRANCH  19  20
ATOM     20  S   UNL     1      -1.536  -6.553   5.663  0.00  0.00    -0.081 S 
BRANCH  20  29
ATOM     21  C   UNL     1       1.886   1.269   1.269  0.00  0.00    +0.007 C 
ATOM     22  C   UNL     1       1.651  -0.233   1.093  0.00  0.00    -0.012 C 
ATOM     23  C   UNL     1       0.151  -0.496   0.984  0.00  0.00    +0.008 C 
ATOM     24  C   UNL     1      -0.113  -1.986   0.726  0.00  0.00    +0.033 C 
ATOM     25  C   UNL     1       0.625  -2.756   1.818  0.00  0.00    -0.042 C 
ATOM     26  C   UNL     1       0.062  -3.647   2.631  0.00  0.00    +0.071 C 
ATOM     27  C   UNL     1       0.868  -4.171   3.768  0.00  0.00    +0.112 C 
ATOM     28  N   UNL     1       0.383  -5.016   4.642  0.00  0.00    -0.217 NA
ATOM     29  C   UNL     1      -0.890  -5.412   4.486  0.00  0.00    +0.182 C 
ATOM     30  N   UNL     1      -1.696  -5.013   3.521  0.00  0.00    -0.151 NA
ATOM     31  C   UNL     1      -1.351  -4.151   2.554  0.00  0.00    +0.272 C 
ATOM     32  O   UNL     1      -2.126  -3.802   1.678  0.00  0.00    -0.268 OA
ATOM     33  S   UNL     1       2.451  -3.413   3.584  0.00  0.00    -0.097 S 
ATOM     34  C   UNL     1       2.114  -2.483   2.039  0.00  0.00    +0.080 C 
ATOM     35  C   UNL     1       2.253  -0.980   2.287  0.00  0.00    +0.022 C 
ENDBRANCH  20  29
ENDBRANCH  19  20
ENDBRANCH   1  19
TORSDOF 4
