REMARK  Name = ZINC32516076
REMARK  6 active torsions:
REMARK  status: ('A' for Active; 'I' for Inactive)
REMARK    1  A    between atoms: C_6  and  C_7
REMARK    2  A    between atoms: C_8  and  C_13
REMARK    3  A    between atoms: C_13  and  N_14
REMARK    4  A    between atoms: N_14  and  C_15
REMARK    5  A    between atoms: C_15  and  C_16
REMARK    6  A    between atoms: C_16  and  N_22
REMARK                            x       y       z     vdW  Elec       q    Type
REMARK                         _______ _______ _______ _____ _____    ______ ____
ROOT
ATOM      1  C   UNL     1      -2.690   0.767   1.895  0.00  0.00    +0.120 C 
ENDROOT
BRANCH   1   3
ATOM      2  C   UNL     1      -1.460  -0.781   0.208  0.00  0.00    +0.097 A 
ATOM      3  C   UNL     1      -2.551  -0.468   1.042  0.00  0.00    +0.011 A 
ATOM      4  C   UNL     1      -3.450  -1.470   0.941  0.00  0.00    +0.110 A 
ATOM      5  N   UNL     1      -2.958  -2.387   0.081  0.00  0.00    -0.284 N 
ATOM      6  H   UNL     1      -3.393  -3.213  -0.181  0.00  0.00    +0.188 HD
ATOM      7  N   UNL     1      -1.712  -1.935  -0.372  0.00  0.00    -0.174 NA
BRANCH   2  13
ATOM      8  C   UNL     1       0.370   0.654   1.107  0.00  0.00    +0.014 A 
ATOM      9  C   UNL     1       1.502   1.423   0.926  0.00  0.00    +0.050 A 
ATOM     10  C   UNL     1       2.031   1.595  -0.344  0.00  0.00    +0.166 A 
ATOM     11  C   UNL     1       1.421   0.990  -1.442  0.00  0.00    +0.167 A 
ATOM     12  C   UNL     1       0.287   0.219  -1.264  0.00  0.00    +0.059 A 
ATOM     13  C   UNL     1      -0.243   0.047   0.014  0.00  0.00    +0.006 A 
ATOM     14  O   UNL     1       2.128   1.311  -2.565  0.00  0.00    -0.453 OA
ATOM     15  C   UNL     1       2.934   2.447  -2.200  0.00  0.00    +0.466 C 
ATOM     16  O   UNL     1       3.119   2.294  -0.781  0.00  0.00    -0.453 OA
ENDBRANCH   2  13
ENDBRANCH   1   3
BRANCH   1  17
ATOM     17  N   UNL     1      -3.044   1.912   1.045  0.00  0.00    -0.313 NA
ATOM     18  H   UNL     1      -2.408   1.994   0.266  0.00  0.00    +0.122 HD
BRANCH  17  19
ATOM     19  C   UNL     1      -3.082   3.155   1.826  0.00  0.00    +0.069 C 
BRANCH  19  20
ATOM     20  C   UNL     1      -3.454   4.322   0.909  0.00  0.00    -0.053 C 
ATOM     21  C   UNL     1      -3.599   5.598   1.741  0.00  0.00    -0.011 C 
ATOM     22  C   UNL     1      -2.274   5.903   2.443  0.00  0.00    -0.001 C 
ATOM     23  C   UNL     1      -1.175   6.098   1.397  0.00  0.00    -0.000 C 
ATOM     24  C   UNL     1      -1.030   4.822   0.565  0.00  0.00    -0.001 C 
ATOM     25  C   UNL     1      -2.355   4.518  -0.137  0.00  0.00    -0.011 C 
BRANCH  20  26
ATOM     26  N   UNL     1      -4.726   4.030   0.235  0.00  0.00    +0.384 N 
ATOM     27  C   UNL     1      -5.782   3.860   1.240  0.00  0.00    -0.078 C 
ATOM     28  C   UNL     1      -7.092   3.476   0.548  0.00  0.00    -0.019 C 
ATOM     29  C   UNL     1      -7.490   4.584  -0.431  0.00  0.00    -0.004 C 
ATOM     30  C   UNL     1      -6.349   4.804  -1.429  0.00  0.00    -0.019 C 
ATOM     31  C   UNL     1      -5.067   5.139  -0.664  0.00  0.00    -0.078 C 
ATOM     32  H   UNL     1      -4.634   3.180  -0.300  0.00  0.00    -0.081 HD
ENDBRANCH  20  26
ENDBRANCH  19  20
ENDBRANCH  17  19
ENDBRANCH   1  17
TORSDOF 6
