REMARK  Name = ZINC04785616
REMARK  6 active torsions:
REMARK  status: ('A' for Active; 'I' for Inactive)
REMARK    1  A    between atoms: C_1  and  C_2
REMARK    2  A    between atoms: C_2  and  C_29
REMARK    3  A    between atoms: C_6  and  N_21
REMARK    4  A    between atoms: C_9  and  N_20
REMARK    5  A    between atoms: C_10  and  C_12
REMARK    6  A    between atoms: C_12  and  C_14
REMARK                            x       y       z     vdW  Elec       q    Type
REMARK                         _______ _______ _______ _____ _____    ______ ____
ROOT
ATOM      1  C   UNL     1      -4.616   3.685   1.999  0.00  0.00    +0.041 C 
ATOM      2  C   UNL     1      -3.487   3.070   1.169  0.00  0.00    +0.068 C 
ATOM      3  C   UNL     1      -2.279   4.009   1.167  0.00  0.00    +0.070 C 
ATOM      4  C   UNL     1      -1.081   3.293   0.603  0.00  0.00    -0.025 A 
ATOM      5  C   UNL     1      -1.038   1.941   0.488  0.00  0.00    +0.020 A 
ATOM      6  C   UNL     1       0.107   1.318  -0.027  0.00  0.00    +0.105 A 
ATOM      7  C   UNL     1       1.138   3.351  -0.332  0.00  0.00    +0.089 A 
ATOM      8  C   UNL     1       0.033   4.067   0.180  0.00  0.00    +0.031 A 
ATOM      9  C   UNL     1       0.191   5.512   0.204  0.00  0.00    +0.052 A 
ATOM     10  C   UNL     1       1.377   6.049  -0.263  0.00  0.00    +0.083 A 
ATOM     11  S   UNL     1       2.314   4.614  -0.749  0.00  0.00    -0.065 S 
ATOM     12  C   UNL     1      -2.198   1.078   0.916  0.00  0.00    +0.199 C 
ATOM     13  O   UNL     1      -3.089   1.821   1.746  0.00  0.00    -0.369 OA
ATOM     14  C   UNL     1      -3.967   2.845  -0.266  0.00  0.00    +0.041 C 
ATOM     15  N   UNL     1       1.208   2.003  -0.447  0.00  0.00    -0.337 N 
ATOM     16  H   UNL     1       2.036   1.528  -0.825  0.00  0.00    +0.168 HD
ENDROOT
BRANCH   6  17
ATOM     17  N   UNL     1       0.149  -0.064  -0.132  0.00  0.00    -0.316 N 
ATOM     18  C   UNL     1       1.089  -0.637   0.840  0.00  0.00    +0.106 C 
ATOM     19  C   UNL     1       1.002  -2.164   0.796  0.00  0.00    +0.019 C 
ATOM     20  C   UNL     1       1.341  -2.649  -0.617  0.00  0.00    +0.003 C 
ATOM     21  C   UNL     1       0.378  -2.000  -1.615  0.00  0.00    +0.019 C 
ATOM     22  C   UNL     1       0.483  -0.477  -1.501  0.00  0.00    +0.106 C 
ENDBRANCH   6  17
BRANCH   9  23
ATOM     23  N   UNL     1      -0.821   6.330   0.682  0.00  0.00    -0.356 N 
ATOM     24  H   UNL     1      -0.886   7.248   0.378  0.00  0.00    +0.142 HD
ATOM     25  H   UNL     1      -1.463   5.983   1.321  0.00  0.00    +0.142 HD
ENDBRANCH   9  23
BRANCH  10  26
ATOM     26  C   UNL     1       1.754   7.408  -0.337  0.00  0.00    +0.202 C 
ATOM     27  O   UNL     1       0.945   8.280  -0.070  0.00  0.00    -0.286 OA
BRANCH  26  28
ATOM     28  C   UNL     1       3.130   7.773  -0.739  0.00  0.00    +0.023 A 
ATOM     29  C   UNL     1       4.178   6.871  -0.548  0.00  0.00    +0.012 A 
ATOM     30  C   UNL     1       5.458   7.216  -0.930  0.00  0.00    +0.001 A 
ATOM     31  C   UNL     1       5.706   8.456  -1.491  0.00  0.00    +0.000 A 
ATOM     32  C   UNL     1       4.672   9.357  -1.677  0.00  0.00    +0.001 A 
ATOM     33  C   UNL     1       3.387   9.023  -1.305  0.00  0.00    +0.012 A 
ENDBRANCH  26  28
ENDBRANCH  10  26
TORSDOF 4
