REMARK  Name = ZINC20220575
REMARK  9 active torsions:
REMARK  status: ('A' for Active; 'I' for Inactive)
REMARK    1  A    between atoms: C_1  and  O_2
REMARK    2  A    between atoms: O_2  and  C_3
REMARK    3  A    between atoms: C_3  and  C_5
REMARK    4  A    between atoms: C_6  and  N_35
REMARK    5  A    between atoms: C_8  and  C_9
REMARK    6  A    between atoms: C_17  and  C_31
REMARK    7  A    between atoms: C_19  and  C_24
REMARK    8  A    between atoms: C_31  and  O_33
REMARK    9  A    between atoms: O_33  and  C_34
REMARK                            x       y       z     vdW  Elec       q    Type
REMARK                         _______ _______ _______ _____ _____    ______ ____
ROOT
ATOM      1  C   UNL     1       4.178  -0.897  -2.995  0.00  0.00    +0.155 A 
ATOM      2  C   UNL     1       5.542  -1.041  -2.867  0.00  0.00    +0.065 A 
ATOM      3  C   UNL     1       5.813  -1.385  -1.460  0.00  0.00    +0.024 A 
ATOM      4  C   UNL     1       7.046  -1.578  -0.867  0.00  0.00    +0.022 C 
ATOM      5  C   UNL     1       4.495  -1.480  -0.824  0.00  0.00    +0.079 A 
ATOM      6  C   UNL     1       4.220  -1.929   0.456  0.00  0.00    +0.118 C 
ATOM      7  S   UNL     1       2.521  -2.098   0.920  0.00  0.00    -0.098 S 
ATOM      8  C   UNL     1       1.689  -0.864  -0.121  0.00  0.00    +0.173 C 
ATOM      9  C   UNL     1       2.231  -0.937  -1.523  0.00  0.00    +0.250 C 
ATOM     10  O   UNL     1       1.466  -0.855  -2.460  0.00  0.00    -0.271 OA
ATOM     11  N   UNL     1       3.549  -1.092  -1.760  0.00  0.00    -0.270 N 
ENDROOT
BRANCH   4  12
ATOM     12  C   UNL     1       8.271  -1.268  -1.607  0.00  0.00    +0.011 A 
ATOM     13  C   UNL     1       8.351  -0.103  -2.384  0.00  0.00    +0.011 A 
ATOM     14  C   UNL     1       9.507   0.181  -3.076  0.00  0.00    +0.001 A 
ATOM     15  C   UNL     1      10.591  -0.679  -3.008  0.00  0.00    +0.003 A 
ATOM     16  C   UNL     1      10.524  -1.831  -2.245  0.00  0.00    +0.039 A 
ATOM     17  C   UNL     1       9.375  -2.132  -1.539  0.00  0.00    +0.131 A 
ATOM     18  F   UNL     1       9.313  -3.254  -0.790  0.00  0.00    -0.205 F 
ENDBRANCH   4  12
BRANCH   8  19
ATOM     19  C   UNL     1       0.207  -1.141  -0.140  0.00  0.00    +0.010 A 
ATOM     20  C   UNL     1      -0.260  -2.419   0.099  0.00  0.00    +0.008 A 
ATOM     21  C   UNL     1      -1.618  -2.675   0.075  0.00  0.00    +0.000 A 
ATOM     22  C   UNL     1      -2.511  -1.650  -0.177  0.00  0.00    +0.003 A 
ATOM     23  C   UNL     1      -2.046  -0.371  -0.416  0.00  0.00    +0.038 A 
ATOM     24  C   UNL     1      -0.685  -0.115  -0.398  0.00  0.00    +0.128 A 
ATOM     25  F   UNL     1      -0.230   1.135  -0.632  0.00  0.00    -0.205 F 
ENDBRANCH   8  19
BRANCH   2  26
ATOM     26  N   UNL     1       6.481  -0.891  -3.871  0.00  0.00    -0.356 N 
ATOM     27  H   UNL     1       7.549  -1.032  -3.651  0.00  0.00    +0.142 HD
ATOM     28  H   UNL     1       6.159  -0.632  -4.891  0.00  0.00    +0.142 HD
ENDBRANCH   2  26
BRANCH   1  29
ATOM     29  C   UNL     1       3.510  -0.595  -4.201  0.00  0.00    +0.358 C 
ATOM     30  O   UNL     1       2.590   0.204  -4.203  0.00  0.00    -0.243 OA
BRANCH  29  32
ATOM     31  C   UNL     1       3.169  -0.838  -6.534  0.00  0.00    +0.280 C 
ATOM     32  O   UNL     1       3.890  -1.191  -5.351  0.00  0.00    -0.463 OA
ENDBRANCH  29  32
ENDBRANCH   1  29
BRANCH   6  33
ATOM     33  C   UNL     1       5.261  -2.241   1.361  0.00  0.00    +0.347 C 
ATOM     34  O   UNL     1       5.610  -3.397   1.512  0.00  0.00    -0.244 OA
BRANCH  33  35
ATOM     35  O   UNL     1       5.867  -1.256   2.059  0.00  0.00    -0.464 OA
ATOM     36  C   UNL     1       6.910  -1.643   2.955  0.00  0.00    +0.280 C 
ENDBRANCH  33  35
ENDBRANCH   6  33
TORSDOF 7
