REMARK  Name = ZINC00729542
REMARK  2 active torsions:
REMARK  status: ('A' for Active; 'I' for Inactive)
REMARK    1  A    between atoms: C_8  and  C_24
REMARK    2  A    between atoms: C_14  and  C_19
REMARK                            x       y       z     vdW  Elec       q    Type
REMARK                         _______ _______ _______ _____ _____    ______ ____
ROOT
ATOM      1  C   UNL     1      -5.910   9.021   3.865  0.00  0.00    +0.002 A 
ATOM      2  C   UNL     1      -5.575   7.770   4.352  0.00  0.00    +0.002 A 
ATOM      3  C   UNL     1      -4.466   7.104   3.861  0.00  0.00    +0.025 A 
ATOM      4  C   UNL     1      -3.698   7.699   2.876  0.00  0.00    +0.052 A 
ATOM      5  C   UNL     1      -4.054   8.936   2.359  0.00  0.00    +0.049 A 
ATOM      6  C   UNL     1      -5.153   9.610   2.867  0.00  0.00    +0.025 A 
ATOM      7  N   UNL     1      -3.327   9.439   1.282  0.00  0.00    -0.331 N 
ATOM      8  C   UNL     1      -3.337   8.775  -0.004  0.00  0.00    +0.136 C 
ATOM      9  C   UNL     1      -2.723   7.396  -0.000  0.00  0.00    +0.036 C 
ATOM     10  C   UNL     1      -2.393   6.683   1.089  0.00  0.00    +0.017 C 
ATOM     11  N   UNL     1      -2.547   7.105   2.370  0.00  0.00    -0.316 N 
ATOM     12  C   UNL     1      -1.801   5.290   0.947  0.00  0.00    +0.060 C 
ATOM     13  C   UNL     1      -0.945   5.217  -0.316  0.00  0.00    +0.039 C 
ATOM     14  C   UNL     1      -1.850   5.532  -1.513  0.00  0.00    +0.088 C 
ATOM     15  C   UNL     1      -2.488   6.870  -1.293  0.00  0.00    +0.163 C 
ATOM     16  O   UNL     1      -2.816   7.529  -2.261  0.00  0.00    -0.292 OA
ATOM     17  H   UNL     1      -2.805  10.249   1.396  0.00  0.00    +0.147 HD
ATOM     18  H   UNL     1      -1.800   6.984   2.977  0.00  0.00    +0.152 HD
ENDROOT
BRANCH   8  19
ATOM     19  C   UNL     1      -4.766   8.657  -0.470  0.00  0.00    -0.021 A 
ATOM     20  C   UNL     1      -5.687   7.965   0.294  0.00  0.00    +0.006 A 
ATOM     21  C   UNL     1      -6.998   7.861  -0.130  0.00  0.00    +0.002 A 
ATOM     22  C   UNL     1      -7.387   8.439  -1.323  0.00  0.00    +0.020 A 
ATOM     23  C   UNL     1      -6.465   9.128  -2.091  0.00  0.00    +0.041 A 
ATOM     24  C   UNL     1      -5.153   9.236  -1.663  0.00  0.00    +0.025 A 
ATOM     25 CL   UNL     1      -6.953   9.855  -3.590  0.00  0.00    -0.084 Cl
ENDBRANCH   8  19
BRANCH  13  26
ATOM     26  C   UNL     1      -0.368   3.833  -0.463  0.00  0.00    -0.006 A 
ATOM     27  C   UNL     1       0.932   3.452  -0.524  0.00  0.00    +0.011 A 
ATOM     28  C   UNL     1       1.231   2.110  -0.661  0.00  0.00    +0.008 A 
ATOM     29  C   UNL     1       0.216   1.214  -0.730  0.00  0.00    +0.045 A 
ATOM     30  S   UNL     1      -1.218   2.269  -0.607  0.00  0.00    -0.101 S 
ENDBRANCH  13  26
TORSDOF 2
