REMARK  Name = ZINC27099792
REMARK  13 active torsions:
REMARK  status: ('A' for Active; 'I' for Inactive)
REMARK    1  A    between atoms: C_1  and  C_2
REMARK    2  A    between atoms: C_2  and  O_3
REMARK    3  A    between atoms: O_3  and  C_4
REMARK    4  A    between atoms: C_4  and  C_6
REMARK    5  A    between atoms: C_9  and  O_12
REMARK    6  A    between atoms: O_12  and  C_13
REMARK    7  A    between atoms: C_14  and  C_36
REMARK    8  A    between atoms: C_22  and  O_35
REMARK    9  A    between atoms: C_23  and  C_24
REMARK   10  A    between atoms: C_24  and  N_25
REMARK   11  A    between atoms: N_25  and  C_26
REMARK   12  A    between atoms: N_25  and  C_29
REMARK   13  A    between atoms: C_26  and  C_27
REMARK                            x       y       z     vdW  Elec       q    Type
REMARK                         _______ _______ _______ _____ _____    ______ ____
ROOT
ATOM      1  C   UNL     1       0.249   4.337   0.877  0.00  0.00    +0.213 A 
ATOM      2  C   UNL     1       0.247   4.841  -0.373  0.00  0.00    +0.148 A 
ATOM      3  O   UNL     1      -0.228   6.060  -0.661  0.00  0.00    -0.456 OA
ATOM      4  C   UNL     1      -0.740   6.877   0.280  0.00  0.00    +0.144 A 
ATOM      5  C   UNL     1      -0.788   6.455   1.621  0.00  0.00    +0.068 A 
ATOM      6  C   UNL     1      -0.274   5.114   1.949  0.00  0.00    +0.235 A 
ATOM      7  O   UNL     1      -0.292   4.689   3.092  0.00  0.00    -0.283 OA
ATOM      8  C   UNL     1      -1.317   7.292   2.604  0.00  0.00    +0.019 A 
ATOM      9  C   UNL     1      -1.790   8.526   2.260  0.00  0.00    +0.046 A 
ATOM     10  C   UNL     1      -1.746   8.953   0.935  0.00  0.00    +0.122 A 
ATOM     11  C   UNL     1      -1.224   8.134  -0.053  0.00  0.00    +0.020 A 
ATOM     12  C   UNL     1       0.801   3.998  -1.493  0.00  0.00    +0.090 C 
ENDROOT
BRANCH  10  13
ATOM     13  O   UNL     1      -2.219  10.183   0.608  0.00  0.00    -0.506 OA
ATOM     14  H   UNL     1      -2.187  10.525  -0.437  0.00  0.00    +0.292 HD
ENDBRANCH  10  13
BRANCH   1  15
ATOM     15  O   UNL     1       0.744   3.091   1.112  0.00  0.00    -0.449 OA
BRANCH  15  19
ATOM     16  C   UNL     1       4.759   2.736   2.001  0.00  0.00    +0.059 A 
ATOM     17  C   UNL     1       3.949   1.597   1.950  0.00  0.00    +0.018 A 
ATOM     18  C   UNL     1       2.610   1.720   1.655  0.00  0.00    +0.047 A 
ATOM     19  C   UNL     1       2.063   2.974   1.408  0.00  0.00    +0.129 A 
ATOM     20  C   UNL     1       2.865   4.109   1.458  0.00  0.00    +0.047 A 
ATOM     21  C   UNL     1       4.205   3.995   1.752  0.00  0.00    +0.018 A 
BRANCH  16  22
ATOM     22  C   UNL     1       6.194   2.609   2.317  0.00  0.00    +0.339 C 
ATOM     23  O   UNL     1       6.674   1.514   2.534  0.00  0.00    -0.245 OA
BRANCH  22  24
ATOM     24  O   UNL     1       6.973   3.707   2.366  0.00  0.00    -0.461 OA
BRANCH  24  26
ATOM     25  C   UNL     1       9.094   4.858   2.692  0.00  0.00    +0.048 C 
ATOM     26  C   UNL     1       8.376   3.507   2.683  0.00  0.00    +0.229 C 
ENDBRANCH  24  26
ENDBRANCH  22  24
ENDBRANCH  16  22
ENDBRANCH  15  19
ENDBRANCH   1  15
BRANCH  11  27
ATOM     27  C   UNL     1      -1.182   8.607  -1.483  0.00  0.00    -0.035 C 
BRANCH  27  28
ATOM     28  N   UNL     1      -2.495   8.397  -2.107  0.00  0.00    +0.387 N 
ATOM     29  H   UNL     1      -3.246   8.921  -1.498  0.00  0.00    -0.081 HD
BRANCH  28  30
ATOM     30  C   UNL     1      -2.532   8.968  -3.460  0.00  0.00    -0.068 C 
ATOM     31  C   UNL     1      -1.880  10.352  -3.448  0.00  0.00    -0.015 C 
ATOM     32  C   UNL     1      -1.919  10.947  -4.857  0.00  0.00    -0.002 C 
ATOM     33  C   UNL     1      -3.372  11.072  -5.318  0.00  0.00    -0.000 C 
ATOM     34  C   UNL     1      -4.024   9.688  -5.330  0.00  0.00    -0.002 C 
ATOM     35  C   UNL     1      -3.986   9.093  -3.921  0.00  0.00    -0.015 C 
ENDBRANCH  28  30
BRANCH  28  36
ATOM     36  C   UNL     1      -2.846   6.971  -2.128  0.00  0.00    -0.051 C 
BRANCH  36  37
ATOM     37  C   UNL     1      -4.341   6.823  -2.249  0.00  0.00    -0.053 C 
ATOM     38  C   UNL     1      -4.851   6.094  -3.210  0.00  0.00    +0.002 C 
ENDBRANCH  36  37
ENDBRANCH  28  36
ENDBRANCH  27  28
ENDBRANCH  11  27
TORSDOF 11
