REMARK  Name = ZINC58012474
REMARK  13 active torsions:
REMARK  status: ('A' for Active; 'I' for Inactive)
REMARK    1  A    between atoms: C_1  and  C_2
REMARK    2  A    between atoms: C_3  and  C_7
REMARK    3  A    between atoms: C_10  and  S_13
REMARK    4  A    between atoms: N_11  and  C_12
REMARK    5  A    between atoms: S_13  and  C_14
REMARK    6  A    between atoms: C_14  and  C_15
REMARK    7  A    between atoms: C_15  and  C_17
REMARK    8  A    between atoms: C_15  and  O_28
REMARK    9  A    between atoms: C_17  and  O_18
REMARK   10  A    between atoms: O_18  and  C_19
REMARK   11  A    between atoms: C_19  and  C_20
REMARK   12  A    between atoms: C_23  and  O_26
REMARK   13  A    between atoms: O_26  and  C_27
REMARK                            x       y       z     vdW  Elec       q    Type
REMARK                         _______ _______ _______ _____ _____    ______ ____
ROOT
ATOM      1  C   UNL     1      -7.236   0.717  -0.624  0.00  0.00    +0.111 C 
ENDROOT
BRANCH   1   2
ATOM      2  S   UNL     1      -6.333  -0.857  -0.581  0.00  0.00    -0.083 S 
BRANCH   2   6
ATOM      3  C   UNL     1      -2.531  -0.417   0.203  0.00  0.00    +0.168 A 
ATOM      4  N   UNL     1      -2.974   0.818   0.221  0.00  0.00    -0.128 NA
ATOM      5  N   UNL     1      -4.235   0.836  -0.025  0.00  0.00    -0.122 NA
ATOM      6  C   UNL     1      -4.675  -0.387  -0.216  0.00  0.00    +0.192 A 
ATOM      7  N   UNL     1      -3.604  -1.227  -0.083  0.00  0.00    -0.305 N 
ATOM      8  C   UNL     1      -3.602  -2.686  -0.215  0.00  0.00    +0.153 C 
BRANCH   3  11
ATOM      9  C   UNL     1       0.052   0.855  -1.038  0.00  0.00    +0.087 C 
ATOM     10  C   UNL     1      -0.006  -0.315  -0.089  0.00  0.00    +0.112 A 
ATOM     11  C   UNL     1      -1.138  -0.854   0.439  0.00  0.00    +0.060 A 
ATOM     12  C   UNL     1      -0.689  -1.960   1.294  0.00  0.00    +0.053 A 
ATOM     13  C   UNL     1       0.651  -1.982   1.200  0.00  0.00    +0.196 A 
ATOM     14  O   UNL     1       1.047  -1.003   0.372  0.00  0.00    -0.467 OA
ENDBRANCH   3  11
ENDBRANCH   2   6
ENDBRANCH   1   2
BRANCH   1  15
ATOM     15  C   UNL     1      -8.710   0.451  -0.936  0.00  0.00    +0.150 C 
BRANCH  15  16
ATOM     16  O   UNL     1      -8.819  -0.196  -2.205  0.00  0.00    -0.389 OA
ATOM     17  H   UNL     1      -8.460   0.318  -2.941  0.00  0.00    +0.210 HD
ENDBRANCH  15  16
BRANCH  15  18
ATOM     18  C   UNL     1      -9.471   1.778  -0.972  0.00  0.00    +0.192 C 
BRANCH  18  19
ATOM     19  O   UNL     1     -10.866   1.522  -1.147  0.00  0.00    -0.373 OA
BRANCH  19  20
ATOM     20  C   UNL     1     -11.671   2.701  -1.195  0.00  0.00    +0.195 C 
BRANCH  20  21
ATOM     21  C   UNL     1     -13.116   2.316  -1.381  0.00  0.00    -0.022 A 
ATOM     22  C   UNL     1     -13.636   2.181  -2.655  0.00  0.00    +0.009 A 
ATOM     23  C   UNL     1     -14.960   1.828  -2.829  0.00  0.00    +0.046 A 
ATOM     24  C   UNL     1     -15.768   1.608  -1.723  0.00  0.00    +0.120 A 
ATOM     25  C   UNL     1     -15.245   1.743  -0.446  0.00  0.00    +0.046 A 
ATOM     26  C   UNL     1     -13.918   2.091  -0.278  0.00  0.00    +0.009 A 
BRANCH  24  27
ATOM     27  O   UNL     1     -17.072   1.261  -1.891  0.00  0.00    -0.495 OA
ATOM     28  C   UNL     1     -17.845   1.050  -0.708  0.00  0.00    +0.277 C 
ENDBRANCH  24  27
ENDBRANCH  20  21
ENDBRANCH  19  20
ENDBRANCH  18  19
ENDBRANCH  15  18
ENDBRANCH   1  15
TORSDOF 10
