REMARK  Name = ZINC39671532
REMARK  6 active torsions:
REMARK  status: ('A' for Active; 'I' for Inactive)
REMARK    1  A    between atoms: C_1  and  O_2
REMARK    2  A    between atoms: O_2  and  C_3
REMARK    3  A    between atoms: C_4  and  C_9
REMARK    4  A    between atoms: C_13  and  C_22
REMARK    5  A    between atoms: N_24  and  C_25
REMARK    6  A    between atoms: C_25  and  C_26
REMARK                            x       y       z     vdW  Elec       q    Type
REMARK                         _______ _______ _______ _____ _____    ______ ____
ROOT
ATOM      1  C   UNL     1      -1.291  -0.701   2.550  0.00  0.00    +0.251 C 
ATOM      2  O   UNL     1      -1.812  -0.881   1.465  0.00  0.00    -0.270 OA
ATOM      3  N   UNL     1      -1.898  -1.140   3.670  0.00  0.00    -0.296 N 
ATOM      4  C   UNL     1      -3.142  -1.939   3.776  0.00  0.00    +0.121 C 
ATOM      5  C   UNL     1      -2.867  -2.941   4.919  0.00  0.00    +0.100 C 
ATOM      6  C   UNL     1      -1.771  -2.275   5.769  0.00  0.00    -0.004 C 
ATOM      7  C   UNL     1      -1.468  -0.939   5.075  0.00  0.00    +0.115 C 
ATOM      8  C   UNL     1      -0.519  -3.146   5.794  0.00  0.00    -0.010 C 
ATOM      9  C   UNL     1       0.535  -2.491   6.691  0.00  0.00    -0.082 C 
ATOM     10  N   UNL     1      -0.004  -2.335   8.048  0.00  0.00    +0.379 N 
ATOM     11  C   UNL     1      -1.153  -1.421   8.029  0.00  0.00    -0.082 C 
ATOM     12  C   UNL     1      -2.278  -2.031   7.188  0.00  0.00    -0.010 C 
ATOM     13  H   UNL     1      -0.297  -3.235   8.397  0.00  0.00    -0.086 HD
ATOM     14  H   UNL     1       0.713  -1.960   8.651  0.00  0.00    -0.086 HD
ENDROOT
BRANCH   1  16
ATOM     15  C   UNL     1       1.017  -0.162   1.624  0.00  0.00    +0.158 A 
ATOM     16  C   UNL     1       0.000  -0.003   2.639  0.00  0.00    +0.087 A 
ATOM     17  C   UNL     1       0.298   0.833   3.693  0.00  0.00    +0.063 A 
ATOM     18  S   UNL     1       1.848   1.383   3.360  0.00  0.00    -0.081 S 
ATOM     19  C   UNL     1       2.160   0.531   1.829  0.00  0.00    +0.120 A 
ATOM     20 CL   UNL     1       3.585   0.580   0.838  0.00  0.00    -0.072 Cl
BRANCH  15  22
ATOM     21  C   UNL     1       1.236  -2.328   0.664  0.00  0.00    +0.277 C 
ATOM     22  O   UNL     1       0.839  -0.962   0.537  0.00  0.00    -0.492 OA
ENDBRANCH  15  22
ENDBRANCH   1  16
BRANCH   5  23
ATOM     23  C   UNL     1      -4.112  -3.156   5.740  0.00  0.00    +0.219 C 
ATOM     24  O   UNL     1      -4.969  -2.298   5.778  0.00  0.00    -0.275 OA
ATOM     25  N   UNL     1      -4.275  -4.302   6.431  0.00  0.00    -0.309 N 
ATOM     26  H   UNL     1      -3.590  -4.988   6.400  0.00  0.00    +0.149 HD
BRANCH  25  27
ATOM     27  C   UNL     1      -5.486  -4.511   7.228  0.00  0.00    +0.157 C 
BRANCH  27  28
ATOM     28  C   UNL     1      -5.420  -5.860   7.896  0.00  0.00    +0.034 A 
ATOM     29  H   UNL     1      -6.163  -7.133   6.424  0.00  0.00    +0.166 HD
ATOM     30  C   UNL     1      -4.980  -6.082   9.145  0.00  0.00    +0.032 A 
ATOM     31  C   UNL     1      -5.087  -7.522   9.388  0.00  0.00    -0.000 A 
ATOM     32  C   UNL     1      -4.792  -8.347  10.474  0.00  0.00    +0.010 A 
ATOM     33  C   UNL     1      -5.013  -9.693  10.384  0.00  0.00    +0.001 A 
ATOM     34  C   UNL     1      -5.528 -10.246   9.220  0.00  0.00    +0.002 A 
ATOM     35  C   UNL     1      -5.827  -9.450   8.136  0.00  0.00    +0.026 A 
ATOM     36  C   UNL     1      -5.610  -8.078   8.206  0.00  0.00    +0.047 A 
ATOM     37  N   UNL     1      -5.807  -7.041   7.322  0.00  0.00    -0.357 N 
ENDBRANCH  27  28
ENDBRANCH  25  27
ENDBRANCH   5  23
TORSDOF 5
