REMARK  Name = ZINC65394207
REMARK  5 active torsions:
REMARK  status: ('A' for Active; 'I' for Inactive)
REMARK    1  A    between atoms: C_4  and  C_7
REMARK    2  A    between atoms: C_9  and  C_26
REMARK    3  A    between atoms: N_11  and  C_14
REMARK    4  A    between atoms: C_14  and  C_15
REMARK    5  A    between atoms: C_15  and  C_16
REMARK                            x       y       z     vdW  Elec       q    Type
REMARK                         _______ _______ _______ _____ _____    ______ ____
ROOT
ATOM      1  C   UNL     1       3.701  -0.688   0.020  0.00  0.00    +0.073 C 
ATOM      2  C   UNL     1       4.071  -1.178  -1.393  0.00  0.00    -0.014 C 
ATOM      3  N   UNL     1       4.127  -2.656  -1.301  0.00  0.00    +0.394 N 
ATOM      4  C   UNL     1       4.387  -2.928   0.136  0.00  0.00    +0.006 C 
ATOM      5  N   UNL     1       3.567  -1.911   0.846  0.00  0.00    -0.327 NA
ATOM      6  H   UNL     1       3.912  -1.756   1.782  0.00  0.00    +0.120 HD
ATOM      7  H   UNL     1       3.247  -3.061  -1.582  0.00  0.00    -0.079 HD
ENDROOT
BRANCH   1  11
ATOM      8  C   UNL     1      -0.000   1.442  -0.079  0.00  0.00    +0.000 A 
ATOM      9  C   UNL     1       1.195   2.135  -0.029  0.00  0.00    +0.000 A 
ATOM     10  C   UNL     1       2.393   1.446   0.004  0.00  0.00    +0.005 A 
ATOM     11  C   UNL     1       2.395   0.063  -0.014  0.00  0.00    -0.032 A 
ATOM     12  C   UNL     1       1.200  -0.630  -0.063  0.00  0.00    +0.005 A 
ATOM     13  C   UNL     1       0.003   0.059  -0.097  0.00  0.00    +0.000 A 
ENDBRANCH   1  11
BRANCH   2  14
ATOM     14  C   UNL     1       5.413  -0.628  -1.801  0.00  0.00    -0.052 A 
ATOM     15  C   UNL     1       5.539   0.141  -2.942  0.00  0.00    +0.009 A 
ATOM     16  C   UNL     1       6.761   0.621  -3.280  0.00  0.00    +0.045 A 
ATOM     17  S   UNL     1       7.785  -0.018  -1.965  0.00  0.00    -0.105 S 
ATOM     18  C   UNL     1       6.514  -0.875  -1.050  0.00  0.00    +0.047 A 
ENDBRANCH   2  14
BRANCH   3  19
ATOM     19  C   UNL     1       5.223  -3.180  -2.128  0.00  0.00    -0.071 C 
BRANCH  19  20
ATOM     20  C   UNL     1       5.162  -4.709  -2.145  0.00  0.00    +0.023 C 
BRANCH  20  21
ATOM     21  C   UNL     1       6.286  -5.246  -2.994  0.00  0.00    +0.031 A 
ATOM     22  C   UNL     1       7.450  -5.627  -2.426  0.00  0.00    +0.096 A 
ATOM     23  N   UNL     1       8.460  -6.113  -3.211  0.00  0.00    -0.314 N 
ATOM     24  H   UNL     1       9.296  -6.387  -2.803  0.00  0.00    +0.170 HD
ATOM     25  C   UNL     1       8.304  -6.215  -4.543  0.00  0.00    +0.327 A 
ATOM     26  O   UNL     1       9.214  -6.649  -5.222  0.00  0.00    -0.247 OA
ATOM     27  N   UNL     1       7.154  -5.842  -5.136  0.00  0.00    -0.275 N 
ATOM     28  H   UNL     1       7.058  -5.922  -6.097  0.00  0.00    +0.173 HD
ATOM     29  C   UNL     1       6.133  -5.363  -4.396  0.00  0.00    +0.257 A 
ATOM     30  O   UNL     1       5.090  -5.031  -4.931  0.00  0.00    -0.267 OA
ENDBRANCH  20  21
ENDBRANCH  19  20
ENDBRANCH   3  19
TORSDOF 5
