REMARK  Name = ZINC22910334
REMARK  8 active torsions:
REMARK  status: ('A' for Active; 'I' for Inactive)
REMARK    1  A    between atoms: C_1  and  C_2
REMARK    2  A    between atoms: C_15  and  C_17
REMARK    3  A    between atoms: C_17  and  N_18
REMARK    4  A    between atoms: N_18  and  C_19
REMARK    5  A    between atoms: C_22  and  S_25
REMARK    6  A    between atoms: S_25  and  N_28
REMARK    7  A    between atoms: C_30  and  C_37
REMARK    8  A    between atoms: C_33  and  C_36
REMARK                            x       y       z     vdW  Elec       q    Type
REMARK                         _______ _______ _______ _____ _____    ______ ____
ROOT
ATOM      1  N   UNL     1       0.002  -0.004   0.002  0.00  0.00    -0.335 N 
ATOM      2  H   UNL     1      -0.459  -0.565   0.828  0.00  0.00    +0.147 HD
ENDROOT
BRANCH   1   3
ATOM      3  C   UNL     1       0.606  -0.689  -1.055  0.00  0.00    +0.028 A 
ATOM      4  C   UNL     1       1.184   0.018  -2.102  0.00  0.00    +0.025 A 
ATOM      5  C   UNL     1       1.784  -0.662  -3.144  0.00  0.00    +0.030 A 
ATOM      6  C   UNL     1       1.802  -2.044  -3.150  0.00  0.00    +0.106 A 
ATOM      7  C   UNL     1       1.224  -2.751  -2.111  0.00  0.00    +0.030 A 
ATOM      8  C   UNL     1       0.626  -2.077  -1.064  0.00  0.00    +0.025 A 
BRANCH   6   9
ATOM      9  S   UNL     1       2.564  -2.908  -4.483  0.00  0.00    +0.061 S 
ATOM     10  O   UNL     1       3.511  -2.016  -5.056  0.00  0.00    -0.153 OA
ATOM     11  O   UNL     1       2.929  -4.187  -3.983  0.00  0.00    -0.153 OA
BRANCH   9  12
ATOM     12  N   UNL     1       1.399  -3.163  -5.631  0.00  0.00    -0.172 NA
ATOM     13  C   UNL     1       0.575  -4.382  -5.617  0.00  0.00    +0.140 C 
ATOM     14  C   UNL     1      -0.901  -3.964  -5.714  0.00  0.00    +0.131 C 
ATOM     15  O   UNL     1      -1.070  -3.097  -6.838  0.00  0.00    -0.371 OA
ATOM     16  C   UNL     1      -0.341  -1.871  -6.747  0.00  0.00    +0.131 C 
ATOM     17  C   UNL     1       1.160  -2.180  -6.700  0.00  0.00    +0.140 C 
ATOM     18  C   UNL     1      -0.645  -1.003  -7.970  0.00  0.00    +0.039 C 
ATOM     19  C   UNL     1      -1.313  -3.229  -4.436  0.00  0.00    +0.039 C 
ENDBRANCH   9  12
ENDBRANCH   6   9
ENDBRANCH   1   3
BRANCH   1  20
ATOM     20  C   UNL     1      -0.018   1.461   0.010  0.00  0.00    +0.198 C 
BRANCH  20  34
ATOM     21  C   UNL     1      -0.506   4.231   3.689  0.00  0.00    +0.029 C 
ATOM     22  C   UNL     1      -1.544   3.757   2.671  0.00  0.00    +0.087 C 
ATOM     23  C   UNL     1      -2.465   4.923   2.305  0.00  0.00    +0.118 C 
ATOM     24  C   UNL     1      -3.224   4.609   1.043  0.00  0.00    +0.219 C 
ATOM     25  O   UNL     1      -4.396   4.304   1.106  0.00  0.00    -0.275 OA
ATOM     26  N   UNL     1      -2.608   4.664  -0.159  0.00  0.00    -0.284 N 
ATOM     27  C   UNL     1      -1.236   4.928  -0.245  0.00  0.00    +0.055 A 
ATOM     28  C   UNL     1      -0.748   5.886  -1.117  0.00  0.00    +0.025 A 
ATOM     29  C   UNL     1       0.615   6.104  -1.205  0.00  0.00    +0.002 A 
ATOM     30  C   UNL     1       1.490   5.368  -0.427  0.00  0.00    +0.002 A 
ATOM     31  C   UNL     1       1.009   4.419   0.456  0.00  0.00    +0.025 A 
ATOM     32  C   UNL     1      -0.351   4.204   0.562  0.00  0.00    +0.058 A 
ATOM     33  N   UNL     1      -0.862   3.269   1.472  0.00  0.00    -0.265 N 
ATOM     34  C   UNL     1      -0.723   1.947   1.250  0.00  0.00    +0.237 C 
ATOM     35  O   UNL     1      -1.166   1.148   2.048  0.00  0.00    -0.274 OA
ATOM     36  H   UNL     1      -3.186   4.501  -1.081  0.00  0.00    +0.155 HD
ENDBRANCH  20  34
ENDBRANCH   1  20
TORSDOF 5
