REMARK  Name = ZINC06685929
REMARK  7 active torsions:
REMARK  status: ('A' for Active; 'I' for Inactive)
REMARK    1  A    between atoms: C_1  and  C_2
REMARK    2  A    between atoms: C_2  and  C_3
REMARK    3  A    between atoms: C_2  and  C_4
REMARK    4  A    between atoms: C_7  and  C_10
REMARK    5  A    between atoms: N_11  and  N_12
REMARK    6  A    between atoms: C_13  and  C_15
REMARK    7  A    between atoms: N_24  and  C_26
REMARK                            x       y       z     vdW  Elec       q    Type
REMARK                         _______ _______ _______ _____ _____    ______ ____
ROOT
ATOM      1  N   UNL     1      -2.461   1.355   0.021  0.00  0.00    -0.202 N 
ATOM      2  C   UNL     1      -1.298   2.036   0.019  0.00  0.00    +0.284 C 
ATOM      3  O   UNL     1      -1.307   3.252   0.026  0.00  0.00    -0.267 OA
ATOM      4  H   UNL     1      -2.455   0.385   0.016  0.00  0.00    +0.178 HD
ENDROOT
BRANCH   2   5
ATOM      5  C   UNL     1      -0.016   1.307   0.009  0.00  0.00    +0.155 A 
ATOM      6  C   UNL     1       1.259   2.043   0.001  0.00  0.00    +0.020 A 
ATOM      7  C   UNL     1       1.327   3.432   0.007  0.00  0.00    +0.011 A 
ATOM      8  C   UNL     1       2.560   4.049  -0.002  0.00  0.00    +0.001 A 
ATOM      9  C   UNL     1       3.730   3.300  -0.018  0.00  0.00    +0.001 A 
ATOM     10  C   UNL     1       3.685   1.922  -0.024  0.00  0.00    +0.014 A 
ATOM     11  C   UNL     1       2.450   1.281  -0.015  0.00  0.00    +0.050 A 
ATOM     12  C   UNL     1       2.311  -0.182  -0.021  0.00  0.00    +0.275 A 
ATOM     13  O   UNL     1       3.293  -0.902  -0.035  0.00  0.00    -0.266 OA
ATOM     14  N   UNL     1       1.069  -0.710  -0.012  0.00  0.00    -0.231 N 
ATOM     15  N   UNL     1       0.002  -0.004   0.002  0.00  0.00    -0.163 NA
ATOM     16  C   UNL     1       0.936  -2.168  -0.018  0.00  0.00    +0.176 C 
ENDBRANCH   2   5
BRANCH   1  18
ATOM     17  C   UNL     1      -4.799   1.391   0.032  0.00  0.00    +0.138 C 
ATOM     18  N   UNL     1      -3.679   2.047   0.031  0.00  0.00    -0.187 NA
BRANCH  17  22
ATOM     19  C   UNL     1      -8.489   3.488   0.061  0.00  0.00    -0.045 A 
ATOM     20  C   UNL     1      -8.483   2.104   0.054  0.00  0.00    +0.004 A 
ATOM     21  C   UNL     1      -7.288   1.416   0.044  0.00  0.00    +0.010 A 
ATOM     22  C   UNL     1      -6.081   2.119   0.042  0.00  0.00    -0.005 A 
ATOM     23  C   UNL     1      -6.094   3.516   0.056  0.00  0.00    +0.010 A 
ATOM     24  C   UNL     1      -7.297   4.191   0.059  0.00  0.00    +0.004 A 
BRANCH  19  26
ATOM     25  C   UNL     1      -9.879   5.105   1.326  0.00  0.00    +0.012 C 
ATOM     26  C   UNL     1      -9.799   4.233   0.072  0.00  0.00    +0.013 C 
ATOM     27  C   UNL     1      -9.892   5.118  -1.172  0.00  0.00    +0.012 C 
ENDBRANCH  19  26
ENDBRANCH  17  22
ENDBRANCH   1  18
TORSDOF 4
