REMARK  Name = ZINC09483696
REMARK  5 active torsions:
REMARK  status: ('A' for Active; 'I' for Inactive)
REMARK    1  A    between atoms: C_1  and  C_2
REMARK    2  A    between atoms: C_2  and  C_3
REMARK    3  A    between atoms: C_11  and  O_12
REMARK    4  A    between atoms: C_24  and  C_26
REMARK    5  A    between atoms: C_30  and  N_32
REMARK                            x       y       z     vdW  Elec       q    Type
REMARK                         _______ _______ _______ _____ _____    ______ ____
ROOT
ATOM      1  C   UNL     1       0.743   6.941  -3.866  0.00  0.00    -0.047 A 
ATOM      2  C   UNL     1       0.116   7.578  -4.926  0.00  0.00    +0.007 A 
ATOM      3  C   UNL     1      -1.258   7.564  -5.042  0.00  0.00    +0.047 A 
ATOM      4  C   UNL     1      -2.027   6.907  -4.090  0.00  0.00    +0.140 A 
ATOM      5  C   UNL     1      -1.393   6.262  -3.018  0.00  0.00    +0.029 A 
ATOM      6  C   UNL     1      -0.003   6.284  -2.912  0.00  0.00    +0.016 A 
ATOM      7  C   UNL     1      -2.222   5.567  -2.013  0.00  0.00    +0.036 C 
ATOM      8  C   UNL     1      -3.602   5.584  -2.189  0.00  0.00    +0.099 C 
ATOM      9  C   UNL     1      -4.146   6.256  -3.289  0.00  0.00    +0.285 C 
ATOM     10  O   UNL     1      -3.374   6.883  -4.191  0.00  0.00    -0.425 OA
ATOM     11  C   UNL     1      -1.613   4.878  -0.874  0.00  0.00    +0.158 C 
ATOM     12  C   UNL     1      -2.299   4.309   0.165  0.00  0.00    +0.088 C 
ATOM     13  C   UNL     1      -1.281   3.743   1.057  0.00  0.00    +0.042 A 
ATOM     14  C   UNL     1      -1.328   3.040   2.262  0.00  0.00    +0.013 A 
ATOM     15  C   UNL     1      -0.165   2.643   2.861  0.00  0.00    +0.001 A 
ATOM     16  C   UNL     1       1.060   2.924   2.272  0.00  0.00    +0.004 A 
ATOM     17  C   UNL     1       1.127   3.613   1.080  0.00  0.00    +0.047 A 
ATOM     18  C   UNL     1      -0.043   4.031   0.456  0.00  0.00    +0.138 A 
ATOM     19  O   UNL     1      -0.286   4.705  -0.686  0.00  0.00    -0.453 OA
ATOM     20  N   UNL     1      -3.679   4.275   0.338  0.00  0.00    -0.278 N 
ATOM     21  C   UNL     1      -4.362   3.140   0.087  0.00  0.00    +0.248 C 
ATOM     22  O   UNL     1      -3.763   2.120  -0.194  0.00  0.00    -0.270 OA
ATOM     23  H   UNL     1      -4.213   5.173   0.681  0.00  0.00    +0.155 HD
ENDROOT
BRANCH  21  24
ATOM     24  C   UNL     1      -5.838   3.136   0.154  0.00  0.00    +0.039 A 
ATOM     25  C   UNL     1      -6.529   4.305   0.476  0.00  0.00    +0.013 A 
ATOM     26  C   UNL     1      -7.907   4.295   0.537  0.00  0.00    +0.003 A 
ATOM     27  C   UNL     1      -8.605   3.128   0.278  0.00  0.00    +0.033 A 
ATOM     28  C   UNL     1      -7.926   1.965  -0.042  0.00  0.00    +0.127 A 
ATOM     29  C   UNL     1      -6.548   1.964  -0.112  0.00  0.00    +0.045 A 
BRANCH  28  30
ATOM     30  N   UNL     1      -8.681   0.722  -0.318  0.00  0.00    +0.056 N 
ATOM     31  O   UNL     1      -9.898   0.724  -0.262  0.00  0.00    -0.126 OA
ATOM     32  O   UNL     1      -8.085  -0.302  -0.600  0.00  0.00    -0.126 OA
ENDBRANCH  28  30
ENDBRANCH  21  24
BRANCH   1  34
ATOM     33  C   UNL     1       2.833   5.763  -4.495  0.00  0.00    +0.009 C 
ATOM     34  C   UNL     1       2.246   6.968  -3.757  0.00  0.00    +0.032 C 
ENDBRANCH   1  34
BRANCH   9  35
ATOM     35  O   UNL     1      -5.357   6.270  -3.434  0.00  0.00    -0.480 OA
ATOM     36  H   UNL     1      -5.801   6.793  -4.294  0.00  0.00    +0.295 HD
ENDBRANCH   9  35
TORSDOF 4
