REMARK  Name = ZINC04756003
REMARK  9 active torsions:
REMARK  status: ('A' for Active; 'I' for Inactive)
REMARK    1  A    between atoms: C_1  and  C_2
REMARK    2  A    between atoms: C_2  and  C_3
REMARK    3  A    between atoms: C_3  and  C_4
REMARK    4  A    between atoms: C_7  and  O_10
REMARK    5  A    between atoms: O_10  and  C_11
REMARK    6  A    between atoms: C_12  and  C_25
REMARK    7  A    between atoms: C_16  and  C_17
REMARK    8  A    between atoms: C_20  and  O_24
REMARK    9  A    between atoms: C_22  and  O_23
REMARK                            x       y       z     vdW  Elec       q    Type
REMARK                         _______ _______ _______ _____ _____    ______ ____
ROOT
ATOM      1  C   UNL     1      -1.341  -6.811   1.181  0.00  0.00    +0.176 A 
ATOM      2  C   UNL     1      -0.238  -7.169   1.880  0.00  0.00    +0.076 A 
ATOM      3  N   UNL     1      -0.651  -7.789   3.018  0.00  0.00    -0.278 N 
ATOM      4  H   UNL     1      -0.076  -8.152   3.709  0.00  0.00    +0.189 HD
ATOM      5  N   UNL     1      -2.051  -7.812   3.017  0.00  0.00    -0.170 NA
ATOM      6  C   UNL     1      -2.472  -7.221   1.918  0.00  0.00    +0.138 A 
ATOM      7  C   UNL     1       1.191  -6.925   1.470  0.00  0.00    +0.069 C 
ENDROOT
BRANCH   6   8
ATOM      8  C   UNL     1      -3.888  -7.023   1.523  0.00  0.00    +0.047 A 
ATOM      9  C   UNL     1      -4.196  -6.387   0.323  0.00  0.00    +0.017 A 
ATOM     10  C   UNL     1      -5.514  -6.205  -0.043  0.00  0.00    +0.046 A 
ATOM     11  C   UNL     1      -6.536  -6.654   0.783  0.00  0.00    +0.120 A 
ATOM     12  C   UNL     1      -6.238  -7.289   1.980  0.00  0.00    +0.091 A 
ATOM     13  C   UNL     1      -4.918  -7.481   2.352  0.00  0.00    +0.130 A 
BRANCH  13  14
ATOM     14  O   UNL     1      -4.624  -8.107   3.521  0.00  0.00    -0.506 OA
ATOM     15  H   UNL     1      -4.547  -7.511   4.278  0.00  0.00    +0.292 HD
ENDBRANCH  13  14
BRANCH  11  16
ATOM     16  O   UNL     1      -7.832  -6.472   0.418  0.00  0.00    -0.507 OA
ATOM     17  H   UNL     1      -8.200  -7.199  -0.103  0.00  0.00    +0.292 HD
ENDBRANCH  11  16
ENDBRANCH   6   8
BRANCH   1  18
ATOM     18  O   UNL     1      -1.356  -6.165  -0.018  0.00  0.00    -0.452 OA
BRANCH  18  22
ATOM     19  C   UNL     1      -1.413  -2.041   0.005  0.00  0.00    -0.047 A 
ATOM     20  C   UNL     1      -1.409  -2.724  -1.197  0.00  0.00    +0.007 A 
ATOM     21  C   UNL     1      -1.390  -4.105  -1.208  0.00  0.00    +0.046 A 
ATOM     22  C   UNL     1      -1.374  -4.807  -0.011  0.00  0.00    +0.129 A 
ATOM     23  C   UNL     1      -1.378  -4.118   1.194  0.00  0.00    +0.046 A 
ATOM     24  C   UNL     1      -1.392  -2.737   1.199  0.00  0.00    +0.007 A 
BRANCH  19  25
ATOM     25  C   UNL     1      -1.433  -0.534   0.013  0.00  0.00    +0.035 C 
BRANCH  25  27
ATOM     26  C   UNL     1      -0.019   1.526   0.010  0.00  0.00    +0.004 C 
ATOM     27  C   UNL     1       0.002  -0.004   0.002  0.00  0.00    +0.001 C 
ENDBRANCH  25  27
ENDBRANCH  19  25
ENDBRANCH  18  22
ENDBRANCH   1  18
TORSDOF 7
