REMARK  Name = ZINC01440087
REMARK  5 active torsions:
REMARK  status: ('A' for Active; 'I' for Inactive)
REMARK    1  A    between atoms: C_1  and  C_2
REMARK    2  A    between atoms: C_5  and  S_8
REMARK    3  A    between atoms: S_8  and  N_11
REMARK    4  A    between atoms: N_11  and  N_12
REMARK    5  A    between atoms: C_13  and  C_24
REMARK                            x       y       z     vdW  Elec       q    Type
REMARK                         _______ _______ _______ _____ _____    ______ ____
ROOT
ATOM      1  N   UNL     1      -0.729   1.468  -1.012  0.00  0.00    -0.188 N 
ATOM      2  C   UNL     1      -0.219   1.001   0.277  0.00  0.00    +0.217 C 
ATOM      3  N   UNL     1       1.209   1.318   0.404  0.00  0.00    -0.320 N 
ATOM      4  C   UNL     1       1.646   2.580   0.019  0.00  0.00    +0.041 A 
ATOM      5  C   UNL     1       2.740   3.189   0.611  0.00  0.00    +0.024 A 
ATOM      6  C   UNL     1       3.130   4.447   0.193  0.00  0.00    +0.002 A 
ATOM      7  C   UNL     1       2.436   5.103  -0.812  0.00  0.00    +0.001 A 
ATOM      8  C   UNL     1       1.345   4.509  -1.413  0.00  0.00    +0.015 A 
ATOM      9  C   UNL     1       0.942   3.241  -1.002  0.00  0.00    +0.059 A 
ATOM     10  C   UNL     1      -0.211   2.558  -1.616  0.00  0.00    +0.265 C 
ATOM     11  O   UNL     1      -0.691   2.971  -2.654  0.00  0.00    -0.268 OA
ATOM     12  H   UNL     1       1.833   0.661   0.749  0.00  0.00    +0.148 HD
ENDROOT
BRANCH   2  13
ATOM     13  C   UNL     1      -0.981   1.680   1.386  0.00  0.00    +0.029 A 
ATOM     14  C   UNL     1      -0.603   1.905   2.668  0.00  0.00    +0.015 A 
ATOM     15  C   UNL     1      -1.474   2.557   3.520  0.00  0.00    +0.008 A 
ATOM     16  C   UNL     1      -2.686   2.943   3.050  0.00  0.00    +0.045 A 
ATOM     17  S   UNL     1      -2.619   2.388   1.355  0.00  0.00    -0.098 S 
ENDBRANCH   2  13
BRANCH   1  18
ATOM     18  N   UNL     1      -1.774   0.769  -1.632  0.00  0.00    -0.103 NA
ATOM     19  H   UNL     1      -2.695   0.980  -1.413  0.00  0.00    +0.172 HD
BRANCH  18  20
ATOM     20  S   UNL     1      -1.436  -0.416  -2.738  0.00  0.00    +0.074 S 
ATOM     21  O   UNL     1      -2.671  -1.048  -3.046  0.00  0.00    -0.152 OA
ATOM     22  O   UNL     1      -0.615   0.180  -3.733  0.00  0.00    -0.152 OA
BRANCH  20  27
ATOM     23  C   UNL     1       1.963  -4.546   0.054  0.00  0.00    +0.044 C 
ATOM     24  C   UNL     1       1.114  -3.514  -0.643  0.00  0.00    -0.050 A 
ATOM     25  C   UNL     1      -0.263  -3.575  -0.548  0.00  0.00    +0.005 A 
ATOM     26  C   UNL     1      -1.042  -2.628  -1.188  0.00  0.00    +0.029 A 
ATOM     27  C   UNL     1      -0.443  -1.622  -1.922  0.00  0.00    +0.107 A 
ATOM     28  C   UNL     1       0.934  -1.565  -2.021  0.00  0.00    +0.029 A 
ATOM     29  C   UNL     1       1.713  -2.508  -1.378  0.00  0.00    +0.005 A 
ENDBRANCH  20  27
ENDBRANCH  18  20
ENDBRANCH   1  18
TORSDOF 4
