REMARK  Name = ZINC43746565
REMARK  13 active torsions:
REMARK  status: ('A' for Active; 'I' for Inactive)
REMARK    1  A    between atoms: C_1  and  C_2
REMARK    2  A    between atoms: C_2  and  C_3
REMARK    3  A    between atoms: C_2  and  C_4
REMARK    4  A    between atoms: C_4  and  C_6
REMARK    5  A    between atoms: C_4  and  N_16
REMARK    6  A    between atoms: N_8  and  C_9
REMARK    7  A    between atoms: C_9  and  C_10
REMARK    8  A    between atoms: C_10  and  C_11
REMARK    9  A    between atoms: C_11  and  O_12
REMARK   10  A    between atoms: O_12  and  C_13
REMARK   11  A    between atoms: C_13  and  C_14
REMARK   12  A    between atoms: C_13  and  C_15
REMARK   13  A    between atoms: C_17  and  C_19
REMARK                            x       y       z     vdW  Elec       q    Type
REMARK                         _______ _______ _______ _____ _____    ______ ____
ROOT
ATOM      1  C   UNL     1      -2.413  -2.233  -3.529  0.00  0.00    +0.167 C 
ATOM      2  C   UNL     1      -2.475  -0.995  -4.435  0.00  0.00    +0.069 C 
ATOM      3  C   UNL     1      -1.172  -0.822  -5.171  0.00  0.00    -0.015 A 
ATOM      4  C   UNL     1      -0.703   0.367  -5.861  0.00  0.00    +0.003 A 
ATOM      5  C   UNL     1      -1.261   1.637  -6.037  0.00  0.00    +0.010 A 
ATOM      6  C   UNL     1      -0.526   2.541  -6.763  0.00  0.00    +0.001 A 
ATOM      7  C   UNL     1       0.709   2.222  -7.302  0.00  0.00    +0.002 A 
ATOM      8  C   UNL     1       1.284   0.973  -7.143  0.00  0.00    +0.026 A 
ATOM      9  C   UNL     1       0.562   0.035  -6.408  0.00  0.00    +0.047 A 
ATOM     10  N   UNL     1       0.827  -1.258  -6.062  0.00  0.00    -0.356 N 
ATOM     11  H   UNL     1       1.627  -1.749  -6.307  0.00  0.00    +0.166 HD
ATOM     12  C   UNL     1      -0.206  -1.758  -5.316  0.00  0.00    +0.046 A 
ATOM     13  C   UNL     1      -0.296  -3.133  -4.702  0.00  0.00    +0.155 C 
ATOM     14  N   UNL     1      -1.702  -3.289  -4.256  0.00  0.00    -0.273 N 
ATOM     15  C   UNL     1      -2.148  -4.484  -4.665  0.00  0.00    +0.248 C 
ATOM     16  O   UNL     1      -3.170  -5.019  -4.284  0.00  0.00    -0.270 OA
ATOM     17  C   UNL     1      -1.213  -5.048  -5.645  0.00  0.00    +0.042 A 
ATOM     18  C   UNL     1      -0.044  -4.221  -5.689  0.00  0.00    -0.009 A 
ATOM     19  C   UNL     1       1.020  -4.485  -6.521  0.00  0.00    +0.006 A 
ATOM     20  C   UNL     1       0.932  -5.621  -7.320  0.00  0.00    +0.000 A 
ATOM     21  C   UNL     1      -0.170  -6.452  -7.285  0.00  0.00    +0.001 A 
ATOM     22  C   UNL     1      -1.306  -6.191  -6.442  0.00  0.00    +0.013 A 
ENDROOT
BRANCH   1  24
ATOM     23  N   UNL     1      -2.140  -0.940  -1.438  0.00  0.00    -0.302 N 
ATOM     24  C   UNL     1      -1.672  -1.900  -2.260  0.00  0.00    +0.235 C 
ATOM     25  O   UNL     1      -0.654  -2.496  -1.978  0.00  0.00    -0.274 OA
ATOM     26  H   UNL     1      -2.954  -0.463  -1.663  0.00  0.00    +0.150 HD
BRANCH  23  27
ATOM     27  C   UNL     1      -1.419  -0.616  -0.204  0.00  0.00    +0.161 C 
BRANCH  27  28
ATOM     28  C   UNL     1      -2.377  -0.021   0.796  0.00  0.00    +0.234 C 
ATOM     29  O   UNL     1      -3.393   0.521   0.414  0.00  0.00    -0.274 OA
ATOM     30  N   UNL     1      -2.104  -0.091   2.114  0.00  0.00    -0.314 N 
ATOM     31  H   UNL     1      -1.327  -0.583   2.423  0.00  0.00    +0.149 HD
BRANCH  30  32
ATOM     32  C   UNL     1      -2.982   0.575   3.079  0.00  0.00    +0.106 C 
BRANCH  32  33
ATOM     33  C   UNL     1      -2.452   0.341   4.496  0.00  0.00    +0.047 C 
BRANCH  33  34
ATOM     34  C   UNL     1      -3.369   1.037   5.504  0.00  0.00    +0.161 C 
BRANCH  34  35
ATOM     35  O   UNL     1      -2.874   0.819   6.827  0.00  0.00    -0.377 OA
BRANCH  35  36
ATOM     36  C   UNL     1      -3.662   1.430   7.851  0.00  0.00    +0.112 C 
ATOM     37  C   UNL     1      -3.562   0.603   9.134  0.00  0.00    +0.037 C 
ATOM     38  C   UNL     1      -3.146   2.846   8.115  0.00  0.00    +0.037 C 
ENDBRANCH  35  36
ENDBRANCH  34  35
ENDBRANCH  33  34
ENDBRANCH  32  33
ENDBRANCH  30  32
ENDBRANCH  27  28
BRANCH  27  40
ATOM     39  C   UNL     1       0.738  -0.261  -1.414  0.00  0.00    +0.009 C 
ATOM     40  C   UNL     1      -0.310   0.392  -0.511  0.00  0.00    +0.012 C 
ATOM     41  C   UNL     1      -0.909   1.608  -1.222  0.00  0.00    +0.009 C 
ENDBRANCH  27  40
ENDBRANCH  23  27
ENDBRANCH   1  24
TORSDOF 9
