REMARK  Name = ZINC63237010
REMARK  9 active torsions:
REMARK  status: ('A' for Active; 'I' for Inactive)
REMARK    1  A    between atoms: C_1  and  C_2
REMARK    2  A    between atoms: C_2  and  C_3
REMARK    3  A    between atoms: C_2  and  C_4
REMARK    4  A    between atoms: C_4  and  O_5
REMARK    5  A    between atoms: O_5  and  C_6
REMARK    6  A    between atoms: C_9  and  C_14
REMARK    7  A    between atoms: C_11  and  O_12
REMARK    8  A    between atoms: O_12  and  C_13
REMARK    9  A    between atoms: C_26  and  C_30
REMARK                            x       y       z     vdW  Elec       q    Type
REMARK                         _______ _______ _______ _____ _____    ______ ____
ROOT
ATOM      1  C   UNL     1      -7.446  -1.797  -1.822  0.00  0.00    +0.111 C 
ATOM      2  C   UNL     1      -8.366  -0.859  -1.038  0.00  0.00    +0.128 C 
ATOM      3  C   UNL     1      -9.761  -1.468  -1.116  0.00  0.00    -0.028 C 
ATOM      4  C   UNL     1     -10.560  -0.519  -1.584  0.00  0.00    -0.000 A 
ATOM      5  C   UNL     1     -12.016  -0.477  -1.796  0.00  0.00    +0.010 A 
ATOM      6  C   UNL     1     -12.513   0.676  -2.317  0.00  0.00    +0.001 A 
ATOM      7  C   UNL     1     -11.717   1.778  -2.645  0.00  0.00    +0.002 A 
ATOM      8  C   UNL     1     -10.371   1.829  -2.478  0.00  0.00    +0.026 A 
ATOM      9  C   UNL     1      -9.734   0.678  -1.932  0.00  0.00    +0.043 A 
ATOM     10  N   UNL     1      -8.463   0.469  -1.643  0.00  0.00    -0.376 N 
ATOM     11  C   UNL     1     -10.011  -2.920  -0.786  0.00  0.00    +0.063 C 
ATOM     12  C   UNL     1      -8.939  -3.723  -1.545  0.00  0.00    +0.094 C 
ATOM     13  N   UNL     1      -7.610  -3.159  -1.290  0.00  0.00    -0.307 NA
ATOM     14  H   UNL     1      -6.885  -3.772  -1.633  0.00  0.00    +0.123 HD
ATOM     15  H   UNL     1      -7.724   1.075  -1.803  0.00  0.00    +0.160 HD
ENDROOT
BRANCH  11  16
ATOM     16  C   UNL     1      -9.876  -3.144   0.698  0.00  0.00    -0.021 A 
ATOM     17  C   UNL     1      -8.681  -2.863   1.334  0.00  0.00    +0.007 A 
ATOM     18  C   UNL     1      -8.556  -3.068   2.695  0.00  0.00    +0.020 A 
ATOM     19  C   UNL     1      -9.628  -3.556   3.422  0.00  0.00    +0.042 A 
ATOM     20  C   UNL     1     -10.824  -3.837   2.787  0.00  0.00    +0.040 A 
ATOM     21  C   UNL     1     -10.949  -3.627   1.425  0.00  0.00    +0.046 A 
ATOM     22 CL   UNL     1     -12.452  -3.974   0.628  0.00  0.00    -0.083 Cl
ATOM     23 CL   UNL     1      -9.471  -3.815   5.131  0.00  0.00    -0.083 Cl
ENDBRANCH  11  16
BRANCH   1  27
ATOM     24  C   UNL     1      -3.381  -0.553  -1.351  0.00  0.00    +0.162 A 
ATOM     25  C   UNL     1      -4.006  -1.281  -0.352  0.00  0.00    +0.050 A 
ATOM     26  C   UNL     1      -5.320  -1.682  -0.507  0.00  0.00    +0.009 A 
ATOM     27  C   UNL     1      -6.014  -1.358  -1.658  0.00  0.00    -0.024 A 
ATOM     28  C   UNL     1      -5.396  -0.632  -2.659  0.00  0.00    +0.054 A 
ATOM     29  C   UNL     1      -4.081  -0.222  -2.508  0.00  0.00    +0.162 A 
BRANCH  29  30
ATOM     30  O   UNL     1      -3.474   0.498  -3.489  0.00  0.00    -0.491 OA
ATOM     31  C   UNL     1      -4.253   0.801  -4.648  0.00  0.00    +0.277 C 
ENDBRANCH  29  30
BRANCH  24  32
ATOM     32  O   UNL     1      -2.089  -0.158  -1.200  0.00  0.00    -0.488 OA
BRANCH  32  33
ATOM     33  C   UNL     1      -1.433  -0.534   0.013  0.00  0.00    +0.232 C 
BRANCH  33  35
ATOM     34  C   UNL     1      -0.019   1.526   0.010  0.00  0.00    +0.010 C 
ATOM     35  C   UNL     1       0.002  -0.004   0.002  0.00  0.00    +0.020 C 
ATOM     36  C   UNL     1       0.742  -0.511   1.242  0.00  0.00    +0.010 C 
ENDBRANCH  33  35
ENDBRANCH  32  33
ENDBRANCH  24  32
ENDBRANCH   1  27
TORSDOF 6
