REMARK  Name = ZINC39664831
REMARK  13 active torsions:
REMARK  status: ('A' for Active; 'I' for Inactive)
REMARK    1  A    between atoms: C_1  and  C_2
REMARK    2  A    between atoms: C_2  and  C_3
REMARK    3  A    between atoms: C_3  and  C_4
REMARK    4  A    between atoms: C_4  and  C_5
REMARK    5  A    between atoms: C_5  and  C_7
REMARK    6  A    between atoms: C_5  and  C_8
REMARK    7  A    between atoms: C_12  and  C_21
REMARK    8  A    between atoms: N_23  and  C_24
REMARK    9  A    between atoms: C_24  and  C_26
REMARK   10  A    between atoms: C_24  and  C_30
REMARK   11  A    between atoms: C_26  and  N_27
REMARK   12  A    between atoms: N_27  and  C_28
REMARK   13  A    between atoms: N_27  and  C_29
REMARK                            x       y       z     vdW  Elec       q    Type
REMARK                         _______ _______ _______ _____ _____    ______ ____
ROOT
ATOM      1  C   UNL     1       1.924  -3.711  -2.155  0.00  0.00    +0.218 C 
ATOM      2  O   UNL     1       1.296  -4.291  -1.294  0.00  0.00    -0.275 OA
ATOM      3  N   UNL     1       2.429  -4.397  -3.199  0.00  0.00    -0.300 N 
ATOM      4  C   UNL     1       3.305  -3.890  -4.281  0.00  0.00    +0.121 C 
ATOM      5  C   UNL     1       4.319  -5.030  -4.529  0.00  0.00    +0.100 C 
ATOM      6  C   UNL     1       3.609  -6.301  -4.033  0.00  0.00    -0.004 C 
ATOM      7  C   UNL     1       2.239  -5.832  -3.521  0.00  0.00    +0.115 C 
ATOM      8  C   UNL     1       3.434  -7.292  -5.180  0.00  0.00    -0.010 C 
ATOM      9  C   UNL     1       2.779  -8.570  -4.649  0.00  0.00    -0.082 C 
ATOM     10  N   UNL     1       3.620  -9.152  -3.597  0.00  0.00    +0.379 N 
ATOM     11  C   UNL     1       3.707  -8.231  -2.458  0.00  0.00    -0.082 C 
ATOM     12  C   UNL     1       4.401  -6.938  -2.896  0.00  0.00    -0.010 C 
ATOM     13  H   UNL     1       3.218 -10.026  -3.292  0.00  0.00    -0.086 HD
ATOM     14  H   UNL     1       4.545  -9.321  -3.962  0.00  0.00    -0.086 HD
ENDROOT
BRANCH   5  15
ATOM     15  C   UNL     1       4.632  -5.142  -5.999  0.00  0.00    +0.219 C 
ATOM     16  O   UNL     1       3.773  -4.908  -6.822  0.00  0.00    -0.275 OA
ATOM     17  N   UNL     1       5.868  -5.502  -6.399  0.00  0.00    -0.310 N 
ATOM     18  H   UNL     1       6.535  -5.758  -5.743  0.00  0.00    +0.149 HD
BRANCH  17  19
ATOM     19  C   UNL     1       6.205  -5.504  -7.825  0.00  0.00    +0.087 C 
BRANCH  19  20
ATOM     20  C   UNL     1       7.266  -6.542  -8.088  0.00  0.00    -0.029 A 
ATOM     21  C   UNL     1       8.300  -6.717  -7.188  0.00  0.00    +0.005 A 
ATOM     22  C   UNL     1       9.273  -7.669  -7.430  0.00  0.00    +0.000 A 
ATOM     23  C   UNL     1       9.211  -8.446  -8.571  0.00  0.00    +0.000 A 
ATOM     24  C   UNL     1       8.176  -8.272  -9.471  0.00  0.00    +0.000 A 
ATOM     25  C   UNL     1       7.201  -7.323  -9.227  0.00  0.00    +0.005 A 
ENDBRANCH  19  20
BRANCH  19  26
ATOM     26  C   UNL     1       6.730  -4.125  -8.227  0.00  0.00    -0.052 C 
BRANCH  26  27
ATOM     27  N   UNL     1       6.960  -4.093  -9.678  0.00  0.00    +0.377 N 
ATOM     28  C   UNL     1       5.674  -4.204 -10.380  0.00  0.00    -0.097 C 
ATOM     29  C   UNL     1       7.610  -2.827 -10.043  0.00  0.00    -0.097 C 
ATOM     30  H   UNL     1       7.555  -4.864  -9.941  0.00  0.00    -0.083 HD
ENDBRANCH  26  27
ENDBRANCH  19  26
ENDBRANCH  17  19
ENDBRANCH   5  15
BRANCH   1  31
ATOM     31  C   UNL     1       2.138  -2.223  -2.057  0.00  0.00    +0.072 C 
ATOM     32  C   UNL     1       3.481  -1.944  -1.378  0.00  0.00    +0.017 C 
BRANCH  31  33
ATOM     33  C   UNL     1       1.010  -1.598  -1.233  0.00  0.00    +0.012 C 
BRANCH  33  34
ATOM     34  C   UNL     1       1.158  -0.075  -1.238  0.00  0.00    +0.000 C 
BRANCH  34  36
ATOM     35  C   UNL     1       0.179   2.072  -0.418  0.00  0.00    +0.004 C 
ATOM     36  C   UNL     1       0.031   0.549  -0.413  0.00  0.00    -0.003 C 
ENDBRANCH  34  36
ENDBRANCH  33  34
ENDBRANCH  31  33
ENDBRANCH   1  31
TORSDOF 9
