REMARK  Name = ZINC08740069
REMARK  10 active torsions:
REMARK  status: ('A' for Active; 'I' for Inactive)
REMARK    1  A    between atoms: C_1  and  C_2
REMARK    2  A    between atoms: C_2  and  O_3
REMARK    3  A    between atoms: O_3  and  C_4
REMARK    4  A    between atoms: C_4  and  C_6
REMARK    5  A    between atoms: C_7  and  C_32
REMARK    6  A    between atoms: C_9  and  N_31
REMARK    7  A    between atoms: C_10  and  C_21
REMARK    8  A    between atoms: C_21  and  O_23
REMARK    9  A    between atoms: O_23  and  C_24
REMARK   10  A    between atoms: C_24  and  C_25
REMARK                            x       y       z     vdW  Elec       q    Type
REMARK                         _______ _______ _______ _____ _____    ______ ____
ROOT
ATOM      1  C   UNL     1       3.084   2.088  -1.001  0.00  0.00    +0.103 C 
ATOM      2  C   UNL     1       3.220   3.434  -0.907  0.00  0.00    +0.149 C 
ATOM      3  O   UNL     1       2.576   4.144   0.038  0.00  0.00    -0.441 OA
ATOM      4  C   UNL     1       1.519   3.615   0.678  0.00  0.00    +0.196 C 
ATOM      5  C   UNL     1       1.282   2.277   0.677  0.00  0.00    +0.117 C 
ATOM      6  C   UNL     1       2.204   1.336  -0.043  0.00  0.00    +0.145 C 
ATOM      7  C   UNL     1       3.037   0.554   0.943  0.00  0.00    -0.002 A 
ATOM      8  C   UNL     1       3.959   0.924   1.897  0.00  0.00    +0.007 A 
ATOM      9  C   UNL     1       4.577  -0.042   2.671  0.00  0.00    +0.000 A 
ATOM     10  C   UNL     1       4.266  -1.376   2.485  0.00  0.00    +0.002 A 
ATOM     11  C   UNL     1       3.342  -1.750   1.531  0.00  0.00    +0.023 A 
ATOM     12  C   UNL     1       2.715  -0.783   0.747  0.00  0.00    +0.038 A 
ATOM     13  N   UNL     1       1.763  -0.907  -0.266  0.00  0.00    -0.284 N 
ATOM     14  C   UNL     1       1.409   0.284  -0.780  0.00  0.00    +0.237 C 
ATOM     15  O   UNL     1       0.605   0.477  -1.667  0.00  0.00    -0.274 OA
ATOM     16  H   UNL     1       1.397  -1.755  -0.564  0.00  0.00    +0.155 HD
ENDROOT
BRANCH   2  17
ATOM     17  C   UNL     1       4.095   4.138  -1.865  0.00  0.00    +0.018 A 
ATOM     18  C   UNL     1       5.473   3.913  -1.852  0.00  0.00    +0.011 A 
ATOM     19  C   UNL     1       6.284   4.570  -2.754  0.00  0.00    +0.001 A 
ATOM     20  C   UNL     1       5.737   5.458  -3.662  0.00  0.00    +0.000 A 
ATOM     21  C   UNL     1       4.372   5.690  -3.677  0.00  0.00    +0.001 A 
ATOM     22  C   UNL     1       3.549   5.036  -2.785  0.00  0.00    +0.011 A 
ENDBRANCH   2  17
BRANCH   4  23
ATOM     23  N   UNL     1       0.660   4.445   1.347  0.00  0.00    -0.329 N 
ATOM     24  H   UNL     1       1.008   5.114   1.958  0.00  0.00    +0.145 HD
ATOM     25  H   UNL     1      -0.297   4.364   1.211  0.00  0.00    +0.145 HD
ENDBRANCH   4  23
BRANCH   1  26
ATOM     26  C   UNL     1       3.780   1.386  -2.008  0.00  0.00    +0.340 C 
ATOM     27  O   UNL     1       4.387   1.997  -2.868  0.00  0.00    -0.245 OA
BRANCH  26  28
ATOM     28  O   UNL     1       3.774   0.036  -2.016  0.00  0.00    -0.462 OA
BRANCH  28  30
ATOM     29  C   UNL     1       4.378  -2.127  -2.910  0.00  0.00    +0.048 C 
ATOM     30  C   UNL     1       4.500  -0.610  -3.064  0.00  0.00    +0.229 C 
ENDBRANCH  28  30
ENDBRANCH  26  28
ENDBRANCH   1  26
BRANCH   5  31
ATOM     31  C   UNL     1       0.167   1.768   1.361  0.00  0.00    +0.342 C 
ATOM     32  O   UNL     1      -0.538   2.515   2.016  0.00  0.00    -0.245 OA
BRANCH  31  33
ATOM     33  O   UNL     1      -0.127   0.452   1.288  0.00  0.00    -0.456 OA
BRANCH  33  34
ATOM     34  C   UNL     1      -1.276   0.004   2.009  0.00  0.00    +0.268 C 
BRANCH  34  35
ATOM     35  C   UNL     1      -1.446  -1.480   1.811  0.00  0.00    -0.010 A 
ATOM     36  C   UNL     1      -2.212  -1.955   0.763  0.00  0.00    +0.007 A 
ATOM     37  C   UNL     1      -2.364  -3.317   0.579  0.00  0.00    +0.000 A 
ATOM     38  C   UNL     1      -1.758  -4.204   1.449  0.00  0.00    +0.000 A 
ATOM     39  C   UNL     1      -0.996  -3.729   2.500  0.00  0.00    +0.000 A 
ATOM     40  C   UNL     1      -0.840  -2.367   2.682  0.00  0.00    +0.007 A 
ENDBRANCH  34  35
ENDBRANCH  33  34
ENDBRANCH  31  33
ENDBRANCH   5  31
TORSDOF 9
