REMARK  Name = ZINC01819414
REMARK  8 active torsions:
REMARK  status: ('A' for Active; 'I' for Inactive)
REMARK    1  A    between atoms: C_3  and  N_35
REMARK    2  A    between atoms: C_6  and  C_7
REMARK    3  A    between atoms: N_13  and  C_14
REMARK    4  A    between atoms: C_17  and  S_20
REMARK    5  A    between atoms: S_20  and  N_23
REMARK    6  A    between atoms: N_24  and  C_25
REMARK    7  A    between atoms: C_28  and  S_31
REMARK    8  A    between atoms: S_31  and  N_34
REMARK                            x       y       z     vdW  Elec       q    Type
REMARK                         _______ _______ _______ _____ _____    ______ ____
ROOT
ATOM      1  C   UNL     1      -1.273  -0.776   0.014  0.00  0.00    +0.118 C 
ATOM      2  C   UNL     1      -1.565  -1.315   1.424  0.00  0.00    +0.088 C 
ATOM      3  C   UNL     1      -1.627  -2.817   1.242  0.00  0.00    +0.106 C 
ATOM      4  C   UNL     1      -1.383  -3.080  -0.186  0.00  0.00    +0.266 C 
ATOM      5  O   UNL     1      -1.363  -4.188  -0.685  0.00  0.00    -0.268 OA
ATOM      6  N   UNL     1      -1.187  -1.943  -0.867  0.00  0.00    -0.259 N 
ATOM      7  N   UNL     1      -1.852  -3.703   2.168  0.00  0.00    -0.247 NA
ENDROOT
BRANCH   1  13
ATOM      8  C   UNL     1       0.038   1.356   0.019  0.00  0.00    +0.008 A 
ATOM      9  C   UNL     1       1.237   2.044   0.012  0.00  0.00    +0.033 A 
ATOM     10  C   UNL     1       2.432   1.350  -0.006  0.00  0.00    +0.126 A 
ATOM     11  C   UNL     1       2.428  -0.033  -0.017  0.00  0.00    +0.033 A 
ATOM     12  C   UNL     1       1.229  -0.721  -0.010  0.00  0.00    +0.008 A 
ATOM     13  C   UNL     1       0.034  -0.026   0.007  0.00  0.00    -0.026 A 
BRANCH  10  14
ATOM     14  N   UNL     1       3.716   2.086  -0.014  0.00  0.00    +0.056 N 
ATOM     15  O   UNL     1       3.719   3.295  -0.004  0.00  0.00    -0.126 OA
ATOM     16  O   UNL     1       4.761   1.479  -0.029  0.00  0.00    -0.126 OA
ENDBRANCH  10  14
ENDBRANCH   1  13
BRANCH   6  17
ATOM     17  C   UNL     1      -0.933  -1.878  -2.240  0.00  0.00    +0.037 A 
ATOM     18  C   UNL     1      -0.754  -3.045  -2.970  0.00  0.00    +0.025 A 
ATOM     19  C   UNL     1      -0.503  -2.977  -4.327  0.00  0.00    +0.030 A 
ATOM     20  C   UNL     1      -0.431  -1.749  -4.957  0.00  0.00    +0.105 A 
ATOM     21  C   UNL     1      -0.609  -0.584  -4.233  0.00  0.00    +0.030 A 
ATOM     22  C   UNL     1      -0.866  -0.645  -2.877  0.00  0.00    +0.025 A 
BRANCH  20  23
ATOM     23  S   UNL     1      -0.110  -1.667  -6.688  0.00  0.00    +0.056 S 
ATOM     24  O   UNL     1       0.450  -0.385  -6.937  0.00  0.00    -0.153 OA
ATOM     25  O   UNL     1       0.560  -2.871  -7.035  0.00  0.00    -0.153 OA
BRANCH  23  26
ATOM     26  N   UNL     1      -1.575  -1.701  -7.460  0.00  0.00    -0.204 NA
ATOM     27  H   UNL     1      -1.685  -1.252  -8.312  0.00  0.00    +0.144 HD
ATOM     28  H   UNL     1      -2.323  -2.171  -7.059  0.00  0.00    +0.144 HD
ENDBRANCH  23  26
ENDBRANCH  20  23
ENDBRANCH   6  17
BRANCH   7  29
ATOM     29  C   UNL     1      -1.879  -5.029   1.850  0.00  0.00    +0.064 A 
ATOM     30  C   UNL     1      -2.566  -5.466   0.713  0.00  0.00    +0.029 A 
ATOM     31  C   UNL     1      -2.589  -6.809   0.399  0.00  0.00    +0.030 A 
ATOM     32  C   UNL     1      -1.933  -7.723   1.205  0.00  0.00    +0.105 A 
ATOM     33  C   UNL     1      -1.250  -7.299   2.332  0.00  0.00    +0.030 A 
ATOM     34  C   UNL     1      -1.214  -5.959   2.657  0.00  0.00    +0.029 A 
BRANCH  32  35
ATOM     35  S   UNL     1      -1.968  -9.436   0.795  0.00  0.00    +0.056 S 
ATOM     36  O   UNL     1      -1.739 -10.148   2.004  0.00  0.00    -0.153 OA
ATOM     37  O   UNL     1      -3.127  -9.640  -0.001  0.00  0.00    -0.153 OA
BRANCH  35  38
ATOM     38  N   UNL     1      -0.665  -9.733  -0.182  0.00  0.00    -0.204 NA
ATOM     39  H   UNL     1      -0.241 -10.605  -0.175  0.00  0.00    +0.144 HD
ATOM     40  H   UNL     1      -0.325  -9.033  -0.763  0.00  0.00    +0.144 HD
ENDBRANCH  35  38
ENDBRANCH  32  35
ENDBRANCH   7  29
TORSDOF 8
