REMARK  Name = ZINC18477103
REMARK  11 active torsions:
REMARK  status: ('A' for Active; 'I' for Inactive)
REMARK    1  A    between atoms: C_1  and  C_2
REMARK    2  A    between atoms: C_6  and  N_8
REMARK    3  A    between atoms: C_9  and  S_13
REMARK    4  A    between atoms: S_13  and  C_14
REMARK    5  A    between atoms: C_14  and  C_15
REMARK    6  A    between atoms: N_17  and  C_18
REMARK    7  A    between atoms: C_18  and  C_19
REMARK    8  A    between atoms: C_19  and  C_21
REMARK    9  A    between atoms: C_19  and  C_29
REMARK   10  A    between atoms: C_24  and  O_27
REMARK   11  A    between atoms: O_27  and  C_28
REMARK                            x       y       z     vdW  Elec       q    Type
REMARK                         _______ _______ _______ _____ _____    ______ ____
ROOT
ATOM      1  C   UNL     1      -7.793   4.772   4.297  0.00  0.00    +0.117 C 
ENDROOT
BRANCH   1   4
ATOM      2  C   UNL     1      -6.071   3.661   2.978  0.00  0.00    +0.223 C 
ATOM      3  O   UNL     1      -5.314   4.566   3.259  0.00  0.00    -0.275 OA
ATOM      4  N   UNL     1      -7.335   3.670   3.447  0.00  0.00    -0.314 N 
ATOM      5  H   UNL     1      -7.940   2.946   3.223  0.00  0.00    +0.149 HD
BRANCH   2   6
ATOM      6  C   UNL     1      -5.600   2.528   2.104  0.00  0.00    +0.173 C 
BRANCH   6   7
ATOM      7  S   UNL     1      -3.872   2.803   1.639  0.00  0.00    -0.075 S 
BRANCH   7   9
ATOM      8  N   UNL     1      -2.430   1.039   0.019  0.00  0.00    -0.187 N 
ATOM      9  C   UNL     1      -3.590   1.372   0.651  0.00  0.00    +0.214 A 
ATOM     10  N   UNL     1      -4.460   0.422   0.381  0.00  0.00    -0.101 NA
ATOM     11  N   UNL     1      -3.927  -0.478  -0.363  0.00  0.00    -0.022 NA
ATOM     12  N   UNL     1      -2.701  -0.180  -0.627  0.00  0.00    -0.038 NA
BRANCH   8  18
ATOM     13  C   UNL     1       2.489   1.048  -0.016  0.00  0.00    +0.044 C 
ATOM     14  C   UNL     1       1.173   1.783   0.000  0.00  0.00    -0.048 A 
ATOM     15  C   UNL     1       1.155   3.166   0.008  0.00  0.00    +0.003 A 
ATOM     16  C   UNL     1      -0.049   3.844   0.022  0.00  0.00    +0.002 A 
ATOM     17  C   UNL     1      -1.239   3.142   0.030  0.00  0.00    +0.028 A 
ATOM     18  C   UNL     1      -1.224   1.754   0.017  0.00  0.00    +0.070 A 
ATOM     19  C   UNL     1      -0.013   1.076   0.008  0.00  0.00    +0.031 A 
ENDBRANCH   8  18
ENDBRANCH   7   9
ENDBRANCH   6   7
ENDBRANCH   2   6
ENDBRANCH   1   4
BRANCH   1  20
ATOM     20  C   UNL     1      -9.254   4.539   4.690  0.00  0.00    +0.068 C 
BRANCH  20  21
ATOM     21  C   UNL     1     -10.120   4.598   3.459  0.00  0.00    -0.013 A 
ATOM     22  C   UNL     1     -10.261   5.644   2.630  0.00  0.00    +0.088 A 
ATOM     23  N   UNL     1     -11.128   5.327   1.620  0.00  0.00    -0.360 N 
ATOM     24  H   UNL     1     -11.385   5.922   0.899  0.00  0.00    +0.165 HD
ATOM     25  C   UNL     1     -11.585   4.039   1.784  0.00  0.00    +0.047 A 
ATOM     26  C   UNL     1     -10.975   3.525   2.943  0.00  0.00    +0.003 A 
ATOM     27  C   UNL     1     -11.255   2.223   3.359  0.00  0.00    +0.010 A 
ATOM     28  C   UNL     1     -12.123   1.452   2.638  0.00  0.00    +0.001 A 
ATOM     29  C   UNL     1     -12.729   1.954   1.495  0.00  0.00    +0.002 A 
ATOM     30  C   UNL     1     -12.466   3.237   1.066  0.00  0.00    +0.026 A 
ENDBRANCH  20  21
BRANCH  20  31
ATOM     31  C   UNL     1      -9.688   5.606   5.662  0.00  0.00    -0.038 A 
ATOM     32  C   UNL     1      -9.645   6.937   5.290  0.00  0.00    +0.008 A 
ATOM     33  C   UNL     1     -10.048   7.916   6.177  0.00  0.00    +0.046 A 
ATOM     34  C   UNL     1     -10.486   7.564   7.446  0.00  0.00    +0.120 A 
ATOM     35  C   UNL     1     -10.523   6.228   7.818  0.00  0.00    +0.046 A 
ATOM     36  C   UNL     1     -10.125   5.252   6.925  0.00  0.00    +0.008 A 
BRANCH  34  37
ATOM     37  O   UNL     1     -10.877   8.526   8.322  0.00  0.00    -0.495 OA
ATOM     38  C   UNL     1     -10.812   9.880   7.870  0.00  0.00    +0.277 C 
ENDBRANCH  34  37
ENDBRANCH  20  31
ENDBRANCH   1  20
TORSDOF 9
