REMARK  Name = ZINC33331992
REMARK  14 active torsions:
REMARK  status: ('A' for Active; 'I' for Inactive)
REMARK    1  A    between atoms: C_1  and  C_2
REMARK    2  A    between atoms: C_2  and  N_3
REMARK    3  A    between atoms: N_3  and  C_4
REMARK    4  A    between atoms: N_3  and  C_6
REMARK    5  A    between atoms: C_4  and  C_5
REMARK    6  A    between atoms: C_6  and  C_7
REMARK    7  A    between atoms: C_7  and  N_8
REMARK    8  A    between atoms: C_13  and  C_28
REMARK    9  A    between atoms: C_17  and  C_18
REMARK   10  A    between atoms: C_17  and  C_19
REMARK   11  A    between atoms: N_21  and  C_22
REMARK   12  A    between atoms: C_31  and  C_34
REMARK   13  A    between atoms: C_34  and  C_35
REMARK   14  A    between atoms: C_34  and  C_36
REMARK                            x       y       z     vdW  Elec       q    Type
REMARK                         _______ _______ _______ _____ _____    ______ ____
ROOT
ATOM      1  N   UNL     1       7.301  -3.686  -8.298  0.00  0.00    -0.282 N 
ATOM      2  C   UNL     1       7.437  -3.616  -6.952  0.00  0.00    +0.265 C 
ATOM      3  O   UNL     1       8.524  -3.687  -6.412  0.00  0.00    -0.268 OA
ATOM      4  C   UNL     1       6.196  -3.449  -6.178  0.00  0.00    +0.124 A 
ATOM      5  C   UNL     1       5.983  -3.166  -4.861  0.00  0.00    +0.062 A 
ATOM      6  C   UNL     1       4.580  -3.129  -4.717  0.00  0.00    +0.093 A 
ATOM      7  N   UNL     1       4.049  -3.399  -5.896  0.00  0.00    -0.170 NA
ATOM      8  N   UNL     1       4.959  -3.597  -6.768  0.00  0.00    -0.256 N 
ATOM      9  C   UNL     1       4.833  -3.946  -8.189  0.00  0.00    +0.179 C 
ATOM     10  C   UNL     1       6.032  -3.387  -8.953  0.00  0.00    +0.130 C 
ATOM     11  C   UNL     1       5.881  -1.869  -9.070  0.00  0.00    +0.044 C 
ENDROOT
BRANCH   6  12
ATOM     12  C   UNL     1       3.834  -2.845  -3.466  0.00  0.00    +0.002 A 
ATOM     13  C   UNL     1       2.441  -2.841  -3.467  0.00  0.00    +0.010 A 
ATOM     14  C   UNL     1       1.753  -2.578  -2.300  0.00  0.00    +0.004 A 
ATOM     15  C   UNL     1       2.444  -2.317  -1.131  0.00  0.00    -0.045 A 
ATOM     16  C   UNL     1       3.827  -2.314  -1.125  0.00  0.00    +0.004 A 
ATOM     17  C   UNL     1       4.525  -2.582  -2.285  0.00  0.00    +0.010 A 
BRANCH  15  18
ATOM     18  C   UNL     1       1.687  -2.030   0.141  0.00  0.00    +0.013 C 
ATOM     19  C   UNL     1       2.058  -0.637   0.651  0.00  0.00    +0.012 C 
ATOM     20  C   UNL     1       2.051  -3.075   1.198  0.00  0.00    +0.012 C 
ENDBRANCH  15  18
ENDBRANCH   6  12
BRANCH  10  21
ATOM     21  C   UNL     1       6.047  -3.981 -10.338  0.00  0.00    +0.238 C 
ATOM     22  O   UNL     1       6.881  -3.622 -11.142  0.00  0.00    -0.273 OA
ATOM     23  N   UNL     1       5.134  -4.910 -10.683  0.00  0.00    -0.311 N 
ATOM     24  H   UNL     1       4.345  -5.195  -9.972  0.00  0.00    +0.149 HD
BRANCH  23  25
ATOM     25  C   UNL     1       5.192  -5.539 -12.005  0.00  0.00    +0.073 C 
ATOM     26  C   UNL     1       4.354  -4.726 -12.994  0.00  0.00    +0.022 C 
ATOM     27  C   UNL     1       4.415  -5.383 -14.374  0.00  0.00    +0.002 C 
ATOM     28  C   UNL     1       3.861  -6.807 -14.286  0.00  0.00    +0.000 C 
ATOM     29  C   UNL     1       4.699  -7.620 -13.297  0.00  0.00    +0.002 C 
ATOM     30  C   UNL     1       4.639  -6.962 -11.917  0.00  0.00    +0.022 C 
ENDBRANCH  23  25
ENDBRANCH  10  21
BRANCH   1  31
ATOM     31  C   UNL     1       8.456  -4.070  -9.115  0.00  0.00    +0.091 C 
BRANCH  31  32
ATOM     32  C   UNL     1       8.527  -5.595  -9.211  0.00  0.00    -0.060 C 
BRANCH  32  33
ATOM     33  N   UNL     1       9.758  -5.984  -9.912  0.00  0.00    +0.380 N 
ATOM     34  H   UNL     1      10.606  -5.508  -9.397  0.00  0.00    -0.082 HD
BRANCH  33  36
ATOM     35  C   UNL     1      11.401  -7.770 -10.240  0.00  0.00    -0.017 C 
ATOM     36  C   UNL     1       9.957  -7.439  -9.860  0.00  0.00    -0.082 C 
ENDBRANCH  33  36
BRANCH  33  37
ATOM     37  C   UNL     1       9.748  -5.504 -11.301  0.00  0.00    -0.082 C 
ATOM     38  C   UNL     1       8.541  -6.092 -12.035  0.00  0.00    -0.017 C 
ENDBRANCH  33  37
ENDBRANCH  32  33
ENDBRANCH  31  32
ENDBRANCH   1  31
TORSDOF 9
