REMARK  Name = ZINC02136551
REMARK  4 active torsions:
REMARK  status: ('A' for Active; 'I' for Inactive)
REMARK    1  A    between atoms: C_12  and  C_14
REMARK    2  A    between atoms: C_14  and  C_15
REMARK    3  A    between atoms: C_18  and  O_21
REMARK    4  A    between atoms: N_24  and  C_27
REMARK                            x       y       z     vdW  Elec       q    Type
REMARK                         _______ _______ _______ _____ _____    ______ ____
ROOT
ATOM      1  C   UNL     1       6.524   4.683  -3.825  0.00  0.00    +0.000 A 
ATOM      2  C   UNL     1       6.215   4.858  -5.162  0.00  0.00    +0.002 A 
ATOM      3  C   UNL     1       5.293   4.037  -5.777  0.00  0.00    +0.023 A 
ATOM      4  C   UNL     1       4.666   3.023  -5.056  0.00  0.00    +0.036 A 
ATOM      5  C   UNL     1       4.986   2.855  -3.712  0.00  0.00    -0.028 A 
ATOM      6  C   UNL     1       5.907   3.678  -3.102  0.00  0.00    +0.004 A 
ATOM      7  C   UNL     1       4.155   1.699  -3.234  0.00  0.00    +0.050 C 
ATOM      8  C   UNL     1       5.031   0.562  -2.694  0.00  0.00    +0.088 C 
ATOM      9  C   UNL     1       4.221  -0.027  -1.506  0.00  0.00    +0.073 C 
ATOM     10  C   UNL     1       2.921   0.803  -1.464  0.00  0.00    -0.053 C 
ATOM     11  C   UNL     1       3.900  -1.431  -1.967  0.00  0.00    +0.224 C 
ATOM     12  O   UNL     1       3.273  -2.250  -1.331  0.00  0.00    -0.275 OA
ATOM     13  N   UNL     1       4.414  -1.627  -3.186  0.00  0.00    -0.239 N 
ATOM     14  C   UNL     1       5.068  -0.574  -3.690  0.00  0.00    +0.225 C 
ATOM     15  O   UNL     1       5.605  -0.537  -4.776  0.00  0.00    -0.275 OA
ATOM     16  C   UNL     1       3.365   1.261  -4.437  0.00  0.00    +0.211 C 
ATOM     17  O   UNL     1       2.566   0.349  -4.486  0.00  0.00    -0.277 OA
ATOM     18  N   UNL     1       3.716   2.078  -5.449  0.00  0.00    -0.286 N 
ATOM     19  H   UNL     1       3.351   2.017  -6.345  0.00  0.00    +0.155 HD
ATOM     20  N   UNL     1       3.278   2.057  -2.132  0.00  0.00    +0.394 N 
ATOM     21  H   UNL     1       2.434   2.523  -2.487  0.00  0.00    -0.083 HD
ATOM     22  H   UNL     1       3.765   2.681  -1.479  0.00  0.00    -0.083 HD
ENDROOT
BRANCH  13  23
ATOM     23  C   UNL     1       4.273  -2.893  -3.911  0.00  0.00    +0.084 C 
ATOM     24  C   UNL     1       2.780  -3.246  -4.072  0.00  0.00    +0.023 C 
ATOM     25  C   UNL     1       2.734  -4.786  -3.911  0.00  0.00    +0.002 C 
ATOM     26  C   UNL     1       3.782  -5.045  -2.801  0.00  0.00    +0.002 C 
ATOM     27  C   UNL     1       4.910  -4.037  -3.103  0.00  0.00    +0.023 C 
ENDBRANCH  13  23
BRANCH  10  28
ATOM     28  C   UNL     1       2.490   1.045  -0.016  0.00  0.00    +0.020 C 
BRANCH  28  29
ATOM     29  C   UNL     1       1.176   1.783   0.000  0.00  0.00    -0.049 A 
ATOM     30  C   UNL     1      -0.013   1.076   0.008  0.00  0.00    +0.007 A 
ATOM     31  C   UNL     1      -1.218   1.750   0.017  0.00  0.00    +0.045 A 
ATOM     32  C   UNL     1      -1.237   3.137   0.031  0.00  0.00    +0.117 A 
ATOM     33  C   UNL     1      -0.043   3.844   0.024  0.00  0.00    +0.045 A 
ATOM     34  C   UNL     1       1.160   3.165   0.008  0.00  0.00    +0.007 A 
BRANCH  32  35
ATOM     35  O   UNL     1      -2.422   3.802   0.046  0.00  0.00    -0.507 OA
ATOM     36  H   UNL     1      -2.773   4.000  -0.833  0.00  0.00    +0.292 HD
ENDBRANCH  32  35
ENDBRANCH  28  29
ENDBRANCH  10  28
TORSDOF 4
