REMARK  Name = ZINC15056618
REMARK  6 active torsions:
REMARK  status: ('A' for Active; 'I' for Inactive)
REMARK    1  A    between atoms: C_3  and  O_15
REMARK    2  A    between atoms: C_6  and  C_7
REMARK    3  A    between atoms: O_15  and  C_16
REMARK    4  A    between atoms: C_16  and  C_17
REMARK    5  A    between atoms: N_19  and  C_20
REMARK    6  A    between atoms: C_23  and  O_26
REMARK                            x       y       z     vdW  Elec       q    Type
REMARK                         _______ _______ _______ _____ _____    ______ ____
ROOT
ATOM      1  C   UNL     1       0.709   0.654  -0.358  0.00  0.00    +0.011 A 
ATOM      2  C   UNL     1       1.989   1.106  -0.124  0.00  0.00    +0.046 A 
ATOM      3  C   UNL     1       2.956   0.237   0.368  0.00  0.00    +0.121 A 
ATOM      4  C   UNL     1       2.637  -1.091   0.628  0.00  0.00    +0.046 A 
ATOM      5  C   UNL     1       1.360  -1.553   0.399  0.00  0.00    +0.011 A 
ATOM      6  C   UNL     1       0.383  -0.682  -0.098  0.00  0.00    -0.024 A 
ENDROOT
BRANCH   6   7
ATOM      7  C   UNL     1      -0.981  -1.169  -0.345  0.00  0.00    +0.028 C 
ATOM      8  C   UNL     1      -1.873  -0.385  -1.000  0.00  0.00    +0.078 C 
ATOM      9  C   UNL     1      -3.321  -0.582  -1.202  0.00  0.00    +0.256 C 
ATOM     10  O   UNL     1      -3.899  -1.556  -0.756  0.00  0.00    -0.269 OA
ATOM     11  N   UNL     1      -3.964   0.347  -1.889  0.00  0.00    -0.261 N 
ATOM     12  C   UNL     1      -3.290   1.444  -2.386  0.00  0.00    +0.158 C 
ATOM     13  N   UNL     1      -3.765   2.443  -3.077  0.00  0.00    -0.279 NA
ATOM     14  S   UNL     1      -1.611   1.167  -1.845  0.00  0.00    -0.049 S 
ATOM     15  H   UNL     1      -4.917   0.257  -2.045  0.00  0.00    +0.157 HD
ATOM     16  H   UNL     1      -3.175   3.157  -3.367  0.00  0.00    +0.189 HD
ENDBRANCH   6   7
BRANCH   3  17
ATOM     17  O   UNL     1       4.216   0.687   0.596  0.00  0.00    -0.483 OA
BRANCH  17  18
ATOM     18  C   UNL     1       5.161  -0.258   1.103  0.00  0.00    +0.324 C 
BRANCH  18  19
ATOM     19  C   UNL     1       6.495   0.417   1.292  0.00  0.00    +0.255 C 
ATOM     20  O   UNL     1       6.624   1.592   1.019  0.00  0.00    -0.272 OA
ATOM     21  N   UNL     1       7.545  -0.284   1.763  0.00  0.00    -0.283 N 
ATOM     22  H   UNL     1       7.465  -1.241   1.903  0.00  0.00    +0.155 HD
BRANCH  21  23
ATOM     23  C   UNL     1       8.751   0.368   2.050  0.00  0.00    +0.034 A 
ATOM     24  C   UNL     1       9.954  -0.318   1.945  0.00  0.00    +0.027 A 
ATOM     25  C   UNL     1      11.142   0.326   2.228  0.00  0.00    +0.047 A 
ATOM     26  C   UNL     1      11.135   1.657   2.618  0.00  0.00    +0.117 A 
ATOM     27  C   UNL     1       9.933   2.343   2.724  0.00  0.00    +0.047 A 
ATOM     28  C   UNL     1       8.745   1.702   2.436  0.00  0.00    +0.027 A 
BRANCH  26  29
ATOM     29  O   UNL     1      12.305   2.290   2.897  0.00  0.00    -0.507 OA
ATOM     30  H   UNL     1      12.711   2.721   2.132  0.00  0.00    +0.292 HD
ENDBRANCH  26  29
ENDBRANCH  21  23
ENDBRANCH  18  19
ENDBRANCH  17  18
ENDBRANCH   3  17
TORSDOF 6
