REMARK  Name = ZINC67142158
REMARK  7 active torsions:
REMARK  status: ('A' for Active; 'I' for Inactive)
REMARK    1  A    between atoms: C_3  and  N_4
REMARK    2  A    between atoms: C_7  and  N_10
REMARK    3  A    between atoms: C_11  and  C_13
REMARK    4  A    between atoms: C_13  and  C_14
REMARK    5  A    between atoms: C_14  and  C_15
REMARK    6  A    between atoms: C_15  and  C_16
REMARK    7  A    between atoms: C_16  and  C_17
REMARK                            x       y       z     vdW  Elec       q    Type
REMARK                         _______ _______ _______ _____ _____    ______ ____
ROOT
ATOM      1  C   UNL     1      -3.931  -3.968  -5.781  0.00  0.00    +0.096 C 
ENDROOT
BRANCH   1   3
ATOM      2  N   UNL     1      -2.350  -3.084  -4.097  0.00  0.00    -0.313 N 
ATOM      3  C   UNL     1      -3.627  -3.337  -4.447  0.00  0.00    +0.213 C 
ATOM      4  O   UNL     1      -4.530  -3.056  -3.688  0.00  0.00    -0.276 OA
ATOM      5  H   UNL     1      -1.627  -3.308  -4.704  0.00  0.00    +0.149 HD
BRANCH   2   9
ATOM      6  N   UNL     1      -0.392  -0.681  -1.241  0.00  0.00    +0.382 N 
ATOM      7  C   UNL     1      -0.300  -2.134  -1.055  0.00  0.00    -0.077 C 
ATOM      8  C   UNL     1      -0.631  -2.842  -2.371  0.00  0.00    +0.003 C 
ATOM      9  C   UNL     1      -2.053  -2.470  -2.800  0.00  0.00    +0.069 C 
ATOM     10  C   UNL     1      -2.158  -0.947  -2.918  0.00  0.00    +0.003 C 
ATOM     11  C   UNL     1      -1.770  -0.309  -1.583  0.00  0.00    -0.077 C 
ATOM     12  H   UNL     1       0.226  -0.399  -1.987  0.00  0.00    -0.081 HD
BRANCH   6  15
ATOM     13  C   UNL     1      -0.019   1.526   0.010  0.00  0.00    -0.017 C 
ATOM     14  C   UNL     1       1.317   0.779  -0.006  0.00  0.00    -0.017 C 
ATOM     15  C   UNL     1       0.002  -0.004   0.002  0.00  0.00    -0.069 C 
ENDBRANCH   6  15
ENDBRANCH   2   9
ENDBRANCH   1   3
BRANCH   1  16
ATOM     16  C   UNL     1      -5.444  -4.145  -5.927  0.00  0.00    +0.009 C 
BRANCH  16  17
ATOM     17  C   UNL     1      -5.754  -4.786  -7.282  0.00  0.00    +0.002 C 
BRANCH  17  18
ATOM     18  C   UNL     1      -7.266  -4.963  -7.428  0.00  0.00    +0.016 C 
BRANCH  18  19
ATOM     19  C   UNL     1      -7.576  -5.604  -8.783  0.00  0.00    +0.069 C 
ATOM     20  C   UNL     1      -9.061  -5.767  -8.981  0.00  0.00    +0.108 C 
ATOM     21  C   UNL     1      -9.304  -6.957  -9.961  0.00  0.00    +0.105 C 
ATOM     22  C   UNL     1      -8.658  -8.169  -9.294  0.00  0.00    +0.093 C 
ATOM     23  S   UNL     1      -7.028  -7.374  -8.827  0.00  0.00    -0.154 S 
ATOM     24  N   UNL     1     -10.738  -6.850 -10.106  0.00  0.00    -0.294 N 
ATOM     25  C   UNL     1     -11.015  -5.515 -10.010  0.00  0.00    +0.300 C 
ATOM     26  O   UNL     1     -12.081  -5.024 -10.330  0.00  0.00    -0.253 OA
ATOM     27  N   UNL     1      -9.962  -4.798  -9.533  0.00  0.00    -0.294 N 
ATOM     28  H   UNL     1     -11.370  -7.573 -10.244  0.00  0.00    +0.151 HD
ATOM     29  H   UNL     1      -9.851  -3.835  -9.556  0.00  0.00    +0.151 HD
ENDBRANCH  18  19
ENDBRANCH  17  18
ENDBRANCH  16  17
ENDBRANCH   1  16
TORSDOF 7
