REMARK  Name = ZINC39872727
REMARK  3 active torsions:
REMARK  status: ('A' for Active; 'I' for Inactive)
REMARK    1  A    between atoms: N_14  and  C_24
REMARK    2  A    between atoms: C_15  and  C_17
REMARK    3  A    between atoms: C_21  and  O_23
REMARK                            x       y       z     vdW  Elec       q    Type
REMARK                         _______ _______ _______ _____ _____    ______ ____
ROOT
ATOM      1  C   UNL     1      -0.017   1.363   0.009  0.00  0.00    +0.001 A 
ATOM      2  C   UNL     1       1.173   2.078   0.002  0.00  0.00    +0.004 A 
ATOM      3  C   UNL     1       2.387   1.428  -0.016  0.00  0.00    +0.047 A 
ATOM      4  C   UNL     1       2.432   0.034  -0.026  0.00  0.00    +0.139 A 
ATOM      5  C   UNL     1       1.222  -0.679  -0.013  0.00  0.00    +0.064 A 
ATOM      6  C   UNL     1       0.002  -0.004   0.002  0.00  0.00    +0.015 A 
ATOM      7  C   UNL     1       1.261  -2.163  -0.007  0.00  0.00    +0.199 A 
ATOM      8  O   UNL     1       0.272  -2.857  -0.164  0.00  0.00    -0.287 OA
ATOM      9  C   UNL     1       2.603  -2.715   0.204  0.00  0.00    +0.072 A 
ATOM     10  C   UNL     1       3.708  -1.911   0.177  0.00  0.00    +0.199 A 
ATOM     11  O   UNL     1       3.635  -0.584  -0.051  0.00  0.00    -0.450 OA
ATOM     12  C   UNL     1       4.894  -2.746   0.429  0.00  0.00    +0.287 C 
ATOM     13  O   UNL     1       6.037  -2.336   0.475  0.00  0.00    -0.266 OA
ATOM     14  N   UNL     1       4.527  -4.032   0.603  0.00  0.00    -0.253 N 
ATOM     15  C   UNL     1       3.063  -4.110   0.473  0.00  0.00    +0.150 C 
ENDROOT
BRANCH  14  16
ATOM     16  C   UNL     1       5.388  -5.104   0.861  0.00  0.00    +0.038 A 
ATOM     17  C   UNL     1       4.875  -6.386   1.014  0.00  0.00    +0.026 A 
ATOM     18  C   UNL     1       5.727  -7.443   1.268  0.00  0.00    +0.040 A 
ATOM     19  C   UNL     1       7.090  -7.226   1.371  0.00  0.00    +0.124 A 
ATOM     20  C   UNL     1       7.604  -5.948   1.220  0.00  0.00    +0.040 A 
ATOM     21  C   UNL     1       6.756  -4.889   0.960  0.00  0.00    +0.026 A 
ATOM     22  F   UNL     1       7.921  -8.261   1.621  0.00  0.00    -0.205 F 
ENDBRANCH  14  16
BRANCH  15  23
ATOM     23  C   UNL     1       2.454  -4.621   1.754  0.00  0.00    -0.019 A 
ATOM     24  C   UNL     1       2.975  -4.225   2.972  0.00  0.00    +0.006 A 
ATOM     25  C   UNL     1       2.418  -4.691   4.148  0.00  0.00    +0.004 A 
ATOM     26  C   UNL     1       1.341  -5.555   4.109  0.00  0.00    +0.045 A 
ATOM     27  C   UNL     1       0.816  -5.954   2.889  0.00  0.00    +0.117 A 
ATOM     28  C   UNL     1       1.373  -5.479   1.709  0.00  0.00    +0.051 A 
BRANCH  27  29
ATOM     29  O   UNL     1      -0.244  -6.803   2.847  0.00  0.00    -0.507 OA
ATOM     30  H   UNL     1      -1.103  -6.359   2.848  0.00  0.00    +0.292 HD
ENDBRANCH  27  29
ENDBRANCH  15  23
TORSDOF 3
