REMARK  Name = ZINC00706802
REMARK  5 active torsions:
REMARK  status: ('A' for Active; 'I' for Inactive)
REMARK    1  A    between atoms: C_12  and  C_20
REMARK    2  A    between atoms: C_14  and  C_18
REMARK    3  A    between atoms: C_15  and  N_17
REMARK    4  A    between atoms: C_25  and  O_26
REMARK    5  A    between atoms: O_26  and  C_27
REMARK                            x       y       z     vdW  Elec       q    Type
REMARK                         _______ _______ _______ _____ _____    ______ ____
ROOT
ATOM      1  C   UNL     1      -6.814   1.957   3.676  0.00  0.00    +0.001 A 
ATOM      2  C   UNL     1      -6.387   2.544   4.859  0.00  0.00    +0.004 A 
ATOM      3  C   UNL     1      -5.318   3.415   4.866  0.00  0.00    +0.047 A 
ATOM      4  C   UNL     1      -4.657   3.711   3.681  0.00  0.00    +0.143 A 
ATOM      5  C   UNL     1      -5.088   3.116   2.484  0.00  0.00    +0.060 A 
ATOM      6  C   UNL     1      -6.172   2.236   2.490  0.00  0.00    +0.015 A 
ATOM      7  C   UNL     1      -4.379   3.439   1.235  0.00  0.00    +0.152 A 
ATOM      8  C   UNL     1      -3.330   4.308   1.296  0.00  0.00    +0.092 A 
ATOM      9  C   UNL     1      -2.958   4.862   2.533  0.00  0.00    +0.345 A 
ATOM     10  O   UNL     1      -2.018   5.637   2.576  0.00  0.00    -0.245 OA
ATOM     11  O   UNL     1      -3.608   4.561   3.668  0.00  0.00    -0.422 OA
ATOM     12  C   UNL     1      -2.568   4.676   0.051  0.00  0.00    +0.109 C 
ATOM     13  C   UNL     1      -3.360   4.306  -1.171  0.00  0.00    +0.098 C 
ATOM     14  C   UNL     1      -4.401   3.442  -1.095  0.00  0.00    +0.199 C 
ATOM     15  O   UNL     1      -4.768   2.883   0.072  0.00  0.00    -0.440 OA
ENDROOT
BRANCH  12  16
ATOM     16  C   UNL     1      -1.252   3.942   0.035  0.00  0.00    +0.008 A 
ATOM     17  C   UNL     1      -1.231   2.561   0.022  0.00  0.00    +0.023 A 
ATOM     18  C   UNL     1      -0.024   1.887   0.012  0.00  0.00    +0.018 A 
ATOM     19  C   UNL     1       1.166   2.594   0.005  0.00  0.00    +0.019 A 
ATOM     20  C   UNL     1       1.149   3.975   0.012  0.00  0.00    +0.047 A 
ATOM     21  C   UNL     1      -0.061   4.653   0.027  0.00  0.00    +0.131 A 
ATOM     22 BR   UNL     1       0.002  -0.004   0.002  0.00  0.00    -0.050 Br
BRANCH  21  23
ATOM     23  O   UNL     1      -0.080   6.012   0.035  0.00  0.00    -0.434 OA
BRANCH  23  24
ATOM     24  C   UNL     1       1.185   6.678   0.026  0.00  0.00    +0.541 C 
ATOM     25  F   UNL     1       1.916   6.306   1.159  0.00  0.00    -0.166 F 
ATOM     26  F   UNL     1       1.894   6.318  -1.125  0.00  0.00    -0.166 F 
ENDBRANCH  23  24
ENDBRANCH  21  23
ENDBRANCH  12  16
BRANCH  14  27
ATOM     27  N   UNL     1      -5.098   3.129  -2.236  0.00  0.00    -0.328 N 
ATOM     28  H   UNL     1      -4.843   3.526  -3.083  0.00  0.00    +0.145 HD
ATOM     29  H   UNL     1      -5.845   2.512  -2.194  0.00  0.00    +0.145 HD
ENDBRANCH  14  27
BRANCH  13  30
ATOM     30  C   UNL     1      -3.010   4.875  -2.438  0.00  0.00    +0.101 C 
ATOM     31  N   UNL     1      -2.731   5.327  -3.442  0.00  0.00    -0.191 NA
ENDBRANCH  13  30
TORSDOF 5
