REMARK  Name = ZINC12498336
REMARK  14 active torsions:
REMARK  status: ('A' for Active; 'I' for Inactive)
REMARK    1  A    between atoms: C_1  and  C_2
REMARK    2  A    between atoms: C_2  and  C_4
REMARK    3  A    between atoms: C_8  and  N_10
REMARK    4  A    between atoms: C_15  and  C_30
REMARK    5  A    between atoms: C_17  and  C_22
REMARK    6  A    between atoms: C_17  and  C_26
REMARK    7  A    between atoms: C_22  and  C_23
REMARK    8  A    between atoms: C_23  and  S_24
REMARK    9  A    between atoms: S_24  and  C_25
REMARK   10  A    between atoms: C_26  and  O_28
REMARK   11  A    between atoms: O_28  and  C_29
REMARK   12  A    between atoms: C_33  and  N_36
REMARK   13  A    between atoms: N_36  and  C_37
REMARK   14  A    between atoms: N_36  and  C_38
REMARK                            x       y       z     vdW  Elec       q    Type
REMARK                         _______ _______ _______ _____ _____    ______ ____
ROOT
ATOM      1  N   UNL     1       2.378   3.879  -0.000  0.00  0.00    -0.210 N 
ATOM      2  C   UNL     1       2.457   5.250   0.000  0.00  0.00    +0.229 C 
ATOM      3  O   UNL     1       1.557   6.038  -0.196  0.00  0.00    -0.275 OA
ATOM      4  C   UNL     1       3.835   5.549   0.287  0.00  0.00    +0.077 C 
ATOM      5  C   UNL     1       4.836   6.627   0.226  0.00  0.00    -0.027 C 
ATOM      6  C   UNL     1       5.929   4.467   0.309  0.00  0.00    +0.044 C 
ATOM      7  C   UNL     1       4.587   4.345  -0.390  0.00  0.00    +0.086 C 
ATOM      8  C   UNL     1       3.606   3.280  -0.016  0.00  0.00    +0.229 C 
ATOM      9  O   UNL     1       3.851   2.117   0.225  0.00  0.00    -0.275 OA
ATOM     10  N   UNL     1       6.106   5.918   0.580  0.00  0.00    +0.395 N 
ATOM     11  H   UNL     1       6.316   6.061   1.575  0.00  0.00    -0.083 HD
ATOM     12  H   UNL     1       6.877   6.285   0.011  0.00  0.00    -0.083 HD
ENDROOT
BRANCH   1  17
ATOM     13  C   UNL     1      -1.238   3.145   0.031  0.00  0.00    +0.019 A 
ATOM     14  C   UNL     1      -1.218   1.746   0.017  0.00  0.00    +0.011 A 
ATOM     15  C   UNL     1      -0.013   1.076   0.008  0.00  0.00    +0.003 A 
ATOM     16  C   UNL     1       1.177   1.781   0.000  0.00  0.00    +0.024 A 
ATOM     17  C   UNL     1       1.168   3.171   0.008  0.00  0.00    +0.045 A 
ATOM     18  C   UNL     1      -0.035   3.856   0.023  0.00  0.00    +0.035 A 
BRANCH  13  20
ATOM     19  C   UNL     1      -3.818   3.095   0.055  0.00  0.00    +0.091 C 
ATOM     20  C   UNL     1      -2.522   3.865   0.047  0.00  0.00    +0.160 C 
ATOM     21  O   UNL     1      -2.537   5.077   0.054  0.00  0.00    -0.292 OA
ENDBRANCH  13  20
ENDBRANCH   1  17
BRANCH   5  22
ATOM     22  C   UNL     1       4.524   7.710   1.225  0.00  0.00    -0.060 A 
ATOM     23  C   UNL     1       4.770   7.501   2.570  0.00  0.00    +0.004 A 
ATOM     24  C   UNL     1       4.490   8.494   3.487  0.00  0.00    +0.023 A 
ATOM     25  C   UNL     1       3.950   9.701   3.060  0.00  0.00    +0.029 A 
ATOM     26  C   UNL     1       3.699   9.906   1.709  0.00  0.00    +0.023 A 
ATOM     27  C   UNL     1       3.986   8.910   0.796  0.00  0.00    +0.004 A 
BRANCH  25  28
ATOM     28  N   UNL     1       3.661  10.706   3.986  0.00  0.00    -0.336 N 
ATOM     29  C   UNL     1       3.092  11.977   3.534  0.00  0.00    +0.129 C 
ATOM     30  C   UNL     1       3.927  10.488   5.410  0.00  0.00    +0.129 C 
ENDBRANCH  25  28
ENDBRANCH   5  22
BRANCH   6  31
ATOM     31  C   UNL     1       7.030   3.961  -0.588  0.00  0.00    +0.297 C 
ATOM     32  O   UNL     1       6.782   3.154  -1.452  0.00  0.00    -0.252 OA
BRANCH  31  33
ATOM     33  O   UNL     1       8.286   4.407  -0.426  0.00  0.00    -0.469 OA
ATOM     34  C   UNL     1       9.294   3.877  -1.325  0.00  0.00    +0.280 C 
ENDBRANCH  31  33
ENDBRANCH   6  31
BRANCH   6  35
ATOM     35  C   UNL     1       5.915   3.679   1.621  0.00  0.00    +0.010 C 
BRANCH  35  36
ATOM     36  C   UNL     1       7.228   3.914   2.371  0.00  0.00    +0.068 C 
BRANCH  36  37
ATOM     37  S   UNL     1       7.211   2.980   3.926  0.00  0.00    -0.164 S 
ATOM     38  C   UNL     1       8.814   3.361   4.684  0.00  0.00    +0.084 C 
ENDBRANCH  36  37
ENDBRANCH  35  36
ENDBRANCH   6  35
TORSDOF 9
