REMARK  Name = ZINC08826589
REMARK  6 active torsions:
REMARK  status: ('A' for Active; 'I' for Inactive)
REMARK    1  A    between atoms: C_4  and  O_34
REMARK    2  A    between atoms: C_5  and  C_7
REMARK    3  A    between atoms: N_8  and  C_9
REMARK    4  A    between atoms: C_18  and  N_25
REMARK    5  A    between atoms: C_26  and  C_27
REMARK    6  A    between atoms: C_32  and  O_33
REMARK                            x       y       z     vdW  Elec       q    Type
REMARK                         _______ _______ _______ _____ _____    ______ ____
ROOT
ATOM      1  C   UNL     1       2.434   3.975   0.009  0.00  0.00    +0.147 C 
ATOM      2  C   UNL     1       1.161   3.169   0.008  0.00  0.00    +0.019 A 
ATOM      3  C   UNL     1      -0.052   3.837   0.020  0.00  0.00    +0.009 A 
ATOM      4  C   UNL     1      -1.238   3.130   0.028  0.00  0.00    +0.001 A 
ATOM      5  C   UNL     1      -1.218   1.747   0.017  0.00  0.00    +0.004 A 
ATOM      6  C   UNL     1      -0.013   1.076   0.008  0.00  0.00    +0.046 A 
ATOM      7  C   UNL     1       1.184   1.786   0.000  0.00  0.00    +0.129 A 
ATOM      8  O   UNL     1       2.350   1.092  -0.019  0.00  0.00    -0.464 OA
ATOM      9  C   UNL     1       3.551   1.780   0.344  0.00  0.00    +0.207 C 
ATOM     10  C   UNL     1       3.608   3.098  -0.439  0.00  0.00    +0.085 C 
ATOM     11  C   UNL     1       4.916   3.826  -0.118  0.00  0.00    +0.012 C 
ATOM     12  C   UNL     1       6.106   2.947  -0.502  0.00  0.00    +0.001 C 
ATOM     13  C   UNL     1       6.050   1.643   0.296  0.00  0.00    +0.006 C 
ATOM     14  C   UNL     1       4.750   0.907  -0.034  0.00  0.00    +0.073 C 
ENDROOT
BRANCH   1  16
ATOM     15  C   UNL     1       2.397   6.318  -0.468  0.00  0.00    +0.117 C 
ATOM     16  N   UNL     1       2.294   5.106  -0.911  0.00  0.00    -0.282 NA
BRANCH  15  21
ATOM     17  C   UNL     1       2.234   9.825  -1.790  0.00  0.00    +0.001 A 
ATOM     18  C   UNL     1       1.990   9.598  -3.134  0.00  0.00    +0.004 A 
ATOM     19  C   UNL     1       1.878   8.309  -3.616  0.00  0.00    +0.046 A 
ATOM     20  C   UNL     1       2.015   7.231  -2.756  0.00  0.00    +0.125 A 
ATOM     21  C   UNL     1       2.256   7.456  -1.393  0.00  0.00    +0.034 A 
ATOM     22  C   UNL     1       2.367   8.765  -0.919  0.00  0.00    +0.013 A 
BRANCH  20  23
ATOM     23  O   UNL     1       1.912   5.963  -3.229  0.00  0.00    -0.506 OA
ATOM     24  H   UNL     1       1.011   5.611  -3.215  0.00  0.00    +0.292 HD
ENDBRANCH  20  23
ENDBRANCH  15  21
ENDBRANCH   1  16
BRANCH   9  25
ATOM     25  N   UNL     1       3.553   2.054   1.783  0.00  0.00    -0.246 NA
ATOM     26  C   UNL     1       3.493   1.075   2.628  0.00  0.00    +0.120 C 
BRANCH  26  27
ATOM     27  C   UNL     1       3.495   1.351   4.076  0.00  0.00    +0.034 A 
ATOM     28  C   UNL     1       3.429   0.297   4.992  0.00  0.00    +0.013 A 
ATOM     29  C   UNL     1       3.432   0.562   6.344  0.00  0.00    +0.001 A 
ATOM     30  C   UNL     1       3.499   1.868   6.801  0.00  0.00    +0.004 A 
ATOM     31  C   UNL     1       3.564   2.918   5.906  0.00  0.00    +0.046 A 
ATOM     32  C   UNL     1       3.568   2.670   4.542  0.00  0.00    +0.125 A 
BRANCH  32  33
ATOM     33  O   UNL     1       3.638   3.701   3.662  0.00  0.00    -0.506 OA
ATOM     34  H   UNL     1       2.776   4.052   3.398  0.00  0.00    +0.292 HD
ENDBRANCH  32  33
ENDBRANCH  26  27
ENDBRANCH   9  25
TORSDOF 6
