REMARK  Name = ZINC39599057
REMARK  10 active torsions:
REMARK  status: ('A' for Active; 'I' for Inactive)
REMARK    1  A    between atoms: C_1  and  C_2
REMARK    2  A    between atoms: C_2  and  C_3
REMARK    3  A    between atoms: C_3  and  C_5
REMARK    4  A    between atoms: C_3  and  C_6
REMARK    5  A    between atoms: C_10  and  C_19
REMARK    6  A    between atoms: N_21  and  C_22
REMARK    7  A    between atoms: C_22  and  C_23
REMARK    8  A    between atoms: C_23  and  C_24
REMARK    9  A    between atoms: C_27  and  O_33
REMARK   10  A    between atoms: O_33  and  C_34
REMARK                            x       y       z     vdW  Elec       q    Type
REMARK                         _______ _______ _______ _____ _____    ______ ____
ROOT
ATOM      1  C   UNL     1      -1.374  -1.931   0.441  0.00  0.00    +0.218 C 
ATOM      2  O   UNL     1      -0.371  -2.567   0.688  0.00  0.00    -0.275 OA
ATOM      3  N   UNL     1      -2.549  -2.568   0.263  0.00  0.00    -0.300 N 
ATOM      4  C   UNL     1      -3.845  -1.983  -0.155  0.00  0.00    +0.121 C 
ATOM      5  C   UNL     1      -4.455  -3.030  -1.112  0.00  0.00    +0.100 C 
ATOM      6  C   UNL     1      -3.791  -4.359  -0.715  0.00  0.00    -0.004 C 
ATOM      7  C   UNL     1      -2.834  -4.012   0.435  0.00  0.00    +0.115 C 
ATOM      8  C   UNL     1      -3.006  -4.930  -1.892  0.00  0.00    -0.010 C 
ATOM      9  C   UNL     1      -2.402  -6.279  -1.491  0.00  0.00    -0.082 C 
ATOM     10  N   UNL     1      -3.475  -7.200  -1.100  0.00  0.00    +0.379 N 
ATOM     11  C   UNL     1      -4.166  -6.689   0.090  0.00  0.00    -0.082 C 
ATOM     12  C   UNL     1      -4.844  -5.357  -0.244  0.00  0.00    -0.010 C 
ATOM     13  H   UNL     1      -4.134  -7.288  -1.859  0.00  0.00    -0.086 HD
ATOM     14  H   UNL     1      -3.080  -8.106  -0.894  0.00  0.00    -0.086 HD
ENDROOT
BRANCH   5  15
ATOM     15  C   UNL     1      -4.131  -2.686  -2.543  0.00  0.00    +0.218 C 
ATOM     16  O   UNL     1      -3.144  -2.029  -2.800  0.00  0.00    -0.275 OA
ATOM     17  N   UNL     1      -4.937  -3.108  -3.537  0.00  0.00    -0.315 N 
ATOM     18  H   UNL     1      -5.726  -3.633  -3.332  0.00  0.00    +0.149 HD
BRANCH  17  19
ATOM     19  C   UNL     1      -4.621  -2.773  -4.928  0.00  0.00    +0.109 C 
BRANCH  19  20
ATOM     20  C   UNL     1      -5.687  -3.368  -5.851  0.00  0.00    +0.056 C 
BRANCH  20  21
ATOM     21  C   UNL     1      -5.362  -3.024  -7.281  0.00  0.00    -0.021 A 
ATOM     22  C   UNL     1      -4.459  -3.758  -8.171  0.00  0.00    +0.006 A 
ATOM     23  C   UNL     1      -3.674  -4.903  -8.024  0.00  0.00    +0.056 A 
ATOM     24  C   UNL     1      -2.914  -5.350  -9.087  0.00  0.00    +0.121 A 
ATOM     25  C   UNL     1      -2.930  -4.664 -10.299  0.00  0.00    +0.047 A 
ATOM     26  C   UNL     1      -3.701  -3.534 -10.454  0.00  0.00    +0.030 A 
ATOM     27  C   UNL     1      -4.473  -3.068  -9.396  0.00  0.00    +0.047 A 
ATOM     28  N   UNL     1      -5.326  -1.994  -9.248  0.00  0.00    -0.360 N 
ATOM     29  C   UNL     1      -5.850  -1.989  -7.984  0.00  0.00    +0.087 A 
ATOM     30  H   UNL     1      -5.528  -1.343  -9.937  0.00  0.00    +0.165 HD
BRANCH  24  31
ATOM     31  O   UNL     1      -2.147  -6.464  -8.950  0.00  0.00    -0.495 OA
ATOM     32  C   UNL     1      -1.385  -6.872 -10.088  0.00  0.00    +0.277 C 
ENDBRANCH  24  31
ENDBRANCH  20  21
ENDBRANCH  19  20
ENDBRANCH  17  19
ENDBRANCH   5  15
BRANCH   1  33
ATOM     33  C   UNL     1      -1.307  -0.429   0.332  0.00  0.00    +0.072 C 
ATOM     34  C   UNL     1       0.038  -0.022  -0.274  0.00  0.00    +0.017 C 
BRANCH  33  36
ATOM     35  C   UNL     1      -1.504   1.714   1.601  0.00  0.00    +0.004 C 
ATOM     36  C   UNL     1      -1.448   0.190   1.724  0.00  0.00    +0.009 C 
ENDBRANCH  33  36
ENDBRANCH   1  33
TORSDOF 7
