REMARK  Name = ZINC66907706
REMARK  7 active torsions:
REMARK  status: ('A' for Active; 'I' for Inactive)
REMARK    1  A    between atoms: C_1  and  C_2
REMARK    2  A    between atoms: N_8  and  C_9
REMARK    3  A    between atoms: C_9  and  C_10
REMARK    4  A    between atoms: C_10  and  N_11
REMARK    5  A    between atoms: C_17  and  N_20
REMARK    6  A    between atoms: C_21  and  C_23
REMARK    7  A    between atoms: C_23  and  C_24
REMARK                            x       y       z     vdW  Elec       q    Type
REMARK                         _______ _______ _______ _____ _____    ______ ____
ROOT
ATOM      1  N   UNL     1       4.114   0.249   2.545  0.00  0.00    -0.301 N 
ATOM      2  C   UNL     1       4.919   0.025   3.602  0.00  0.00    +0.302 C 
ATOM      3  O   UNL     1       4.497  -0.575   4.572  0.00  0.00    -0.253 OA
ATOM      4  N   UNL     1       6.193   0.465   3.584  0.00  0.00    -0.286 N 
ATOM      5  C   UNL     1       6.684   1.290   2.472  0.00  0.00    +0.111 C 
ATOM      6  C   UNL     1       7.949   0.643   1.899  0.00  0.00    +0.041 C 
ATOM      7  C   UNL     1       8.965   0.435   3.024  0.00  0.00    +0.076 C 
ATOM      8  C   UNL     1       8.377  -0.506   4.078  0.00  0.00    +0.041 C 
ATOM      9  C   UNL     1       7.115   0.133   4.679  0.00  0.00    +0.111 C 
ATOM     10  H   UNL     1       4.426   0.790   1.803  0.00  0.00    +0.150 HD
ENDROOT
BRANCH   7  11
ATOM     11  N   UNL     1      10.189  -0.153   2.474  0.00  0.00    -0.312 N 
ATOM     12  C   UNL     1      11.366   0.025   3.106  0.00  0.00    +0.214 C 
ATOM     13  O   UNL     1      11.412   0.673   4.130  0.00  0.00    -0.276 OA
ATOM     14  H   UNL     1      10.152  -0.672   1.655  0.00  0.00    +0.149 HD
BRANCH  12  15
ATOM     15  C   UNL     1      12.625  -0.580   2.540  0.00  0.00    +0.099 C 
BRANCH  15  16
ATOM     16  C   UNL     1      13.809  -0.229   3.442  0.00  0.00    -0.002 C 
ATOM     17  C   UNL     1      14.040   1.283   3.417  0.00  0.00    +0.004 C 
ATOM     18  C   UNL     1      15.225   1.634   4.319  0.00  0.00    +0.000 C 
ATOM     19  C   UNL     1      16.480   0.918   3.815  0.00  0.00    +0.000 C 
ATOM     20  C   UNL     1      16.249  -0.595   3.841  0.00  0.00    +0.000 C 
ATOM     21  C   UNL     1      15.064  -0.945   2.938  0.00  0.00    +0.004 C 
ENDBRANCH  15  16
ENDBRANCH  12  15
ENDBRANCH   7  11
BRANCH   1  22
ATOM     22  C   UNL     1       2.765  -0.323   2.517  0.00  0.00    +0.087 C 
BRANCH  22  23
ATOM     23  C   UNL     1       2.067   0.080   1.217  0.00  0.00    -0.059 C 
BRANCH  23  30
ATOM     24  C   UNL     1      -0.018   1.521   0.008  0.00  0.00    -0.013 C 
ATOM     25  C   UNL     1       0.004  -0.009  -0.000  0.00  0.00    -0.072 C 
ATOM     26  C   UNL     1      -1.431  -0.539   0.008  0.00  0.00    -0.016 C 
ATOM     27  C   UNL     1      -1.404  -2.071  -0.000  0.00  0.00    -0.003 C 
ATOM     28  C   UNL     1      -0.596  -2.564   1.203  0.00  0.00    -0.019 C 
ATOM     29  C   UNL     1       0.808  -1.958   1.150  0.00  0.00    -0.078 C 
ATOM     30  N   UNL     1       0.715  -0.494   1.189  0.00  0.00    +0.382 N 
ATOM     31  H   UNL     1       0.214  -0.211   2.018  0.00  0.00    -0.081 HD
ENDBRANCH  23  30
ENDBRANCH  22  23
ENDBRANCH   1  22
TORSDOF 6
