REMARK  Name = ZINC00818024
REMARK  6 active torsions:
REMARK  status: ('A' for Active; 'I' for Inactive)
REMARK    1  A    between atoms: C_1  and  C_2
REMARK    2  A    between atoms: C_10  and  C_25
REMARK    3  A    between atoms: C_13  and  C_16
REMARK    4  A    between atoms: C_20  and  O_23
REMARK    5  A    between atoms: C_21  and  O_22
REMARK    6  A    between atoms: O_23  and  C_24
REMARK                            x       y       z     vdW  Elec       q    Type
REMARK                         _______ _______ _______ _____ _____    ______ ____
ROOT
ATOM      1  C   UNL     1      -0.018   1.503   0.010  0.00  0.00    +0.044 C 
ATOM      2  C   UNL     1       0.002  -0.004   0.002  0.00  0.00    -0.050 A 
ATOM      3  C   UNL     1       0.006  -0.687  -1.202  0.00  0.00    +0.005 A 
ATOM      4  C   UNL     1       0.019  -2.070  -1.230  0.00  0.00    +0.024 A 
ATOM      5  C   UNL     1       0.032  -2.783  -0.044  0.00  0.00    +0.038 A 
ATOM      6  C   UNL     1       0.037  -2.084   1.180  0.00  0.00    +0.021 A 
ATOM      7  C   UNL     1       0.023  -0.700   1.197  0.00  0.00    +0.015 A 
ATOM      8  C   UNL     1       0.081  -2.906   2.404  0.00  0.00    +0.073 A 
ATOM      9  C   UNL     1      -0.119  -2.596   3.703  0.00  0.00    +0.052 A 
ATOM     10  C   UNL     1       0.036  -3.770   4.449  0.00  0.00    +0.061 A 
ATOM     11  N   UNL     1       0.323  -4.755   3.629  0.00  0.00    -0.174 NA
ATOM     12  N   UNL     1       0.366  -4.251   2.334  0.00  0.00    -0.238 N 
ATOM     13  C   UNL     1       0.657  -4.925   1.067  0.00  0.00    +0.226 C 
ATOM     14  N   UNL     1       0.030  -4.177  -0.031  0.00  0.00    -0.318 N 
ATOM     15  C   UNL     1      -0.102  -3.885   5.945  0.00  0.00    +0.067 C 
ATOM     16  H   UNL     1      -0.392  -4.661  -0.758  0.00  0.00    +0.148 HD
ENDROOT
BRANCH  13  17
ATOM     17  C   UNL     1       2.149  -4.978   0.856  0.00  0.00    +0.040 A 
ATOM     18  C   UNL     1       2.775  -4.000   0.105  0.00  0.00    +0.011 A 
ATOM     19  C   UNL     1       4.143  -4.045  -0.091  0.00  0.00    +0.004 A 
ATOM     20  C   UNL     1       4.890  -5.069   0.463  0.00  0.00    +0.049 A 
ATOM     21  C   UNL     1       4.269  -6.051   1.216  0.00  0.00    +0.162 A 
ATOM     22  C   UNL     1       2.892  -6.002   1.419  0.00  0.00    +0.165 A 
BRANCH  22  23
ATOM     23  O   UNL     1       2.278  -6.961   2.162  0.00  0.00    -0.503 OA
ATOM     24  H   UNL     1       1.980  -7.726   1.649  0.00  0.00    +0.292 HD
ENDBRANCH  22  23
BRANCH  21  25
ATOM     25  O   UNL     1       5.002  -7.058   1.761  0.00  0.00    -0.491 OA
ATOM     26  C   UNL     1       6.410  -7.041   1.517  0.00  0.00    +0.277 C 
ENDBRANCH  21  25
ENDBRANCH  13  17
TORSDOF 3
