REMARK  Name = ZINC32116981
REMARK  10 active torsions:
REMARK  status: ('A' for Active; 'I' for Inactive)
REMARK    1  A    between atoms: C_1  and  C_2
REMARK    2  A    between atoms: C_2  and  O_3
REMARK    3  A    between atoms: O_3  and  C_4
REMARK    4  A    between atoms: C_6  and  C_20
REMARK    5  A    between atoms: C_9  and  O_10
REMARK    6  A    between atoms: O_10  and  C_11
REMARK    7  A    between atoms: C_11  and  C_12
REMARK    8  A    between atoms: N_21  and  N_22
REMARK    9  A    between atoms: C_23  and  C_25
REMARK   10  A    between atoms: C_30  and  N_31
REMARK                            x       y       z     vdW  Elec       q    Type
REMARK                         _______ _______ _______ _____ _____    ______ ____
ROOT
ATOM      1  C   UNL     1       1.120   2.090  -0.800  0.00  0.00    +0.164 A 
ATOM      2  C   UNL     1       0.032   1.374  -0.334  0.00  0.00    +0.059 A 
ATOM      3  C   UNL     1      -0.100   0.021  -0.657  0.00  0.00    -0.001 A 
ATOM      4  C   UNL     1       0.867  -0.602  -1.450  0.00  0.00    +0.028 A 
ATOM      5  C   UNL     1       1.949   0.118  -1.911  0.00  0.00    +0.064 A 
ATOM      6  C   UNL     1       2.080   1.462  -1.590  0.00  0.00    +0.176 A 
ATOM      7 BR   UNL     1       3.258  -0.728  -2.983  0.00  0.00    -0.046 Br
ENDROOT
BRANCH   3   8
ATOM      8  C   UNL     1      -1.258  -0.746  -0.163  0.00  0.00    +0.138 C 
ATOM      9  N   UNL     1      -1.244  -2.043  -0.209  0.00  0.00    -0.187 NA
BRANCH   9  10
ATOM     10  N   UNL     1      -0.023  -2.732  -0.198  0.00  0.00    -0.203 N 
ATOM     11  C   UNL     1      -0.001  -4.067  -0.377  0.00  0.00    +0.265 C 
ATOM     12  O   UNL     1      -1.041  -4.675  -0.549  0.00  0.00    -0.268 OA
ATOM     13  H   UNL     1       0.917  -2.182  -0.042  0.00  0.00    +0.178 HD
BRANCH  11  14
ATOM     14  C   UNL     1       1.282  -4.791  -0.365  0.00  0.00    +0.059 A 
ATOM     15  C   UNL     1       2.486  -4.087  -0.274  0.00  0.00    +0.015 A 
ATOM     16  C   UNL     1       3.682  -4.770  -0.258  0.00  0.00    +0.001 A 
ATOM     17  C   UNL     1       3.700  -6.153  -0.343  0.00  0.00    +0.002 A 
ATOM     18  C   UNL     1       2.521  -6.863  -0.439  0.00  0.00    +0.023 A 
ATOM     19  C   UNL     1       1.304  -6.192  -0.451  0.00  0.00    +0.037 A 
BRANCH  19  20
ATOM     20  N   UNL     1       0.116  -6.904  -0.548  0.00  0.00    -0.357 N 
ATOM     21  H   UNL     1       0.136  -8.002  -0.615  0.00  0.00    +0.142 HD
ATOM     22  H   UNL     1      -0.846  -6.370  -0.558  0.00  0.00    +0.142 HD
ENDBRANCH  19  20
ENDBRANCH  11  14
ENDBRANCH   9  10
ENDBRANCH   3   8
BRANCH   1  23
ATOM     23  O   UNL     1       1.252   3.407  -0.487  0.00  0.00    -0.489 OA
BRANCH  23  25
ATOM     24  C   UNL     1       0.547   5.462   0.570  0.00  0.00    +0.048 C 
ATOM     25  C   UNL     1       0.229   3.986   0.326  0.00  0.00    +0.226 C 
ENDBRANCH  23  25
ENDBRANCH   1  23
BRANCH   6  26
ATOM     26  O   UNL     1       3.149   2.168  -2.047  0.00  0.00    -0.483 OA
BRANCH  26  27
ATOM     27  C   UNL     1       3.004   2.818  -3.311  0.00  0.00    +0.266 C 
BRANCH  27  28
ATOM     28  C   UNL     1       4.280   3.545  -3.651  0.00  0.00    +0.008 A 
ATOM     29  C   UNL     1       5.350   3.509  -2.776  0.00  0.00    +0.008 A 
ATOM     30  C   UNL     1       6.522   4.172  -3.090  0.00  0.00    +0.000 A 
ATOM     31  C   UNL     1       6.621   4.879  -4.274  0.00  0.00    +0.001 A 
ATOM     32  C   UNL     1       5.550   4.920  -5.146  0.00  0.00    +0.020 A 
ATOM     33  C   UNL     1       4.378   4.253  -4.835  0.00  0.00    +0.047 A 
ATOM     34 CL   UNL     1       3.032   4.304  -5.930  0.00  0.00    -0.083 Cl
ENDBRANCH  27  28
ENDBRANCH  26  27
ENDBRANCH   6  26
TORSDOF 9
