REMARK  Name = ZINC52634645
REMARK  13 active torsions:
REMARK  status: ('A' for Active; 'I' for Inactive)
REMARK    1  A    between atoms: C_1  and  C_2
REMARK    2  A    between atoms: C_2  and  C_3
REMARK    3  A    between atoms: C_2  and  C_4
REMARK    4  A    between atoms: C_2  and  N_39
REMARK    5  A    between atoms: N_6  and  C_7
REMARK    6  A    between atoms: C_7  and  C_9
REMARK    7  A    between atoms: C_7  and  C_19
REMARK    8  A    between atoms: C_9  and  C_10
REMARK    9  A    between atoms: C_22  and  C_31
REMARK   10  A    between atoms: N_23  and  C_24
REMARK   11  A    between atoms: C_24  and  C_25
REMARK   12  A    between atoms: C_31  and  C_32
REMARK   13  A    between atoms: C_32  and  C_33
REMARK                            x       y       z     vdW  Elec       q    Type
REMARK                         _______ _______ _______ _____ _____    ______ ____
ROOT
ATOM      1  C   UNL     1      -3.465  -1.164  -1.134  0.00  0.00    +0.145 C 
ENDROOT
BRANCH   1   2
ATOM      2  C   UNL     1      -3.485  -2.550  -0.541  0.00  0.00    +0.155 A 
ATOM      3  N   UNL     1      -2.865  -2.937   0.541  0.00  0.00    -0.132 NA
ATOM      4  N   UNL     1      -3.103  -4.182   0.754  0.00  0.00    -0.134 NA
ATOM      5  C   UNL     1      -3.885  -4.647  -0.183  0.00  0.00    +0.134 A 
ATOM      6  N   UNL     1      -4.153  -3.622  -1.028  0.00  0.00    -0.307 N 
BRANCH   6   7
ATOM      7  C   UNL     1      -4.993  -3.667  -2.228  0.00  0.00    +0.180 C 
BRANCH   7   8
ATOM      8  C   UNL     1      -4.148  -4.034  -3.420  0.00  0.00    +0.061 A 
ATOM      9  C   UNL     1      -4.507  -5.112  -4.206  0.00  0.00    +0.025 A 
ATOM     10  C   UNL     1      -3.722  -5.441  -5.300  0.00  0.00    +0.003 A 
ATOM     11  C   UNL     1      -2.601  -4.670  -5.565  0.00  0.00    +0.020 A 
ATOM     12  C   UNL     1      -2.305  -3.606  -4.734  0.00  0.00    +0.111 A 
ATOM     13  N   UNL     1      -3.077  -3.318  -3.704  0.00  0.00    -0.258 NA
ENDBRANCH   7   8
ENDBRANCH   6   7
BRANCH   5  14
ATOM     14  C   UNL     1      -4.398  -6.059  -0.299  0.00  0.00    +0.081 C 
BRANCH  14  15
ATOM     15  C   UNL     1      -5.727  -6.181   0.449  0.00  0.00    +0.043 C 
BRANCH  15  16
ATOM     16  C   UNL     1      -6.240  -7.594   0.333  0.00  0.00    -0.047 A 
ATOM     17  C   UNL     1      -7.061  -7.946  -0.723  0.00  0.00    +0.003 A 
ATOM     18  C   UNL     1      -7.532  -9.241  -0.830  0.00  0.00    +0.000 A 
ATOM     19  C   UNL     1      -7.182 -10.184   0.119  0.00  0.00    +0.000 A 
ATOM     20  C   UNL     1      -6.361  -9.832   1.173  0.00  0.00    +0.000 A 
ATOM     21  C   UNL     1      -5.886  -8.538   1.278  0.00  0.00    +0.003 A 
ENDBRANCH  15  16
ENDBRANCH  14  15
ENDBRANCH   5  14
ENDBRANCH   1   2
BRANCH   1  24
ATOM     22  C   UNL     1      -1.412  -0.526   0.013  0.00  0.00    +0.202 C 
ATOM     23  O   UNL     1      -1.939  -0.827   1.062  0.00  0.00    -0.277 OA
ATOM     24  N   UNL     1      -2.090  -0.657  -1.144  0.00  0.00    -0.306 N 
ATOM     25  H   UNL     1      -1.669  -0.416  -1.984  0.00  0.00    +0.149 HD
BRANCH  22  27
ATOM     26  C   UNL     1      -0.019   1.526   0.010  0.00  0.00    -0.001 C 
ATOM     27  C   UNL     1       0.002  -0.004   0.002  0.00  0.00    +0.001 C 
ATOM     28  C   UNL     1       0.742  -0.511   1.242  0.00  0.00    -0.001 C 
BRANCH  27  29
ATOM     29  N   UNL     1       0.690  -0.478  -1.207  0.00  0.00    +0.387 N 
ATOM     30  H   UNL     1       1.636  -0.129  -1.214  0.00  0.00    -0.089 HD
ATOM     31  H   UNL     1       0.703  -1.487  -1.212  0.00  0.00    -0.089 HD
ATOM     32  H   UNL     1       0.202  -0.144  -2.024  0.00  0.00    -0.089 HD
ENDBRANCH  27  29
ENDBRANCH  22  27
ENDBRANCH   1  24
BRANCH   1  33
ATOM     33  C   UNL     1      -4.344  -0.237  -0.293  0.00  0.00    +0.063 C 
BRANCH  33  34
ATOM     34  C   UNL     1      -4.423   1.115  -0.954  0.00  0.00    -0.039 C 
ATOM     35  C   UNL     1      -5.391   1.557  -1.789  0.00  0.00    -0.001 A 
ATOM     36  C   UNL     1      -6.612   0.934  -2.313  0.00  0.00    +0.010 A 
ATOM     37  C   UNL     1      -7.402   1.643  -3.152  0.00  0.00    +0.001 A 
ATOM     38  C   UNL     1      -7.083   2.954  -3.533  0.00  0.00    +0.002 A 
ATOM     39  C   UNL     1      -5.979   3.593  -3.092  0.00  0.00    +0.026 A 
ATOM     40  C   UNL     1      -5.077   2.943  -2.205  0.00  0.00    +0.043 A 
ATOM     41  N   UNL     1      -3.959   3.342  -1.649  0.00  0.00    -0.380 N 
ATOM     42  C   UNL     1      -3.440   2.256  -0.811  0.00  0.00    +0.144 C 
ATOM     43  H   UNL     1      -3.547   4.212  -1.769  0.00  0.00    +0.160 HD
ENDBRANCH  33  34
ENDBRANCH   1  33
TORSDOF 11
