REMARK  Name = ZINC09113231
REMARK  11 active torsions:
REMARK  status: ('A' for Active; 'I' for Inactive)
REMARK    1  A    between atoms: C_1  and  C_2
REMARK    2  A    between atoms: C_6  and  N_9
REMARK    3  A    between atoms: C_7  and  C_8
REMARK    4  A    between atoms: N_9  and  C_10
REMARK    5  A    between atoms: N_9  and  S_24
REMARK    6  A    between atoms: C_10  and  C_11
REMARK    7  A    between atoms: N_13  and  N_14
REMARK    8  A    between atoms: C_15  and  C_16
REMARK    9  A    between atoms: C_15  and  C_17
REMARK   10  A    between atoms: C_22  and  O_23
REMARK   11  A    between atoms: S_24  and  C_27
REMARK                            x       y       z     vdW  Elec       q    Type
REMARK                         _______ _______ _______ _____ _____    ______ ____
ROOT
ATOM      1  N   UNL     1      -0.684  -2.928   3.446  0.00  0.00    -0.194 N 
ENDROOT
BRANCH   1   7
ATOM      2  C   UNL     1       0.424  -2.862  -1.342  0.00  0.00    +0.044 C 
ATOM      3  C   UNL     1       0.291  -2.162  -0.014  0.00  0.00    -0.046 A 
ATOM      4  C   UNL     1       0.594  -0.817   0.092  0.00  0.00    +0.004 A 
ATOM      5  C   UNL     1       0.473  -0.171   1.308  0.00  0.00    +0.002 A 
ATOM      6  C   UNL     1       0.050  -0.868   2.423  0.00  0.00    +0.025 A 
ATOM      7  C   UNL     1      -0.256  -2.220   2.320  0.00  0.00    +0.055 A 
ATOM      8  C   UNL     1      -0.138  -2.864   1.095  0.00  0.00    -0.025 A 
ATOM      9  C   UNL     1      -0.474  -4.329   0.978  0.00  0.00    +0.046 C 
ENDBRANCH   1   7
BRANCH   1  10
ATOM     10  S   UNL     1      -2.303  -3.078   3.762  0.00  0.00    +0.075 S 
ATOM     11  O   UNL     1      -2.419  -3.391   5.144  0.00  0.00    -0.150 OA
ATOM     12  O   UNL     1      -2.937  -1.946   3.181  0.00  0.00    -0.150 OA
BRANCH  10  13
ATOM     13  C   UNL     1      -2.878  -4.488   2.876  0.00  0.00    +0.109 A 
ATOM     14  C   UNL     1      -3.483  -4.330   1.643  0.00  0.00    +0.029 A 
ATOM     15  C   UNL     1      -3.935  -5.436   0.948  0.00  0.00    +0.002 A 
ATOM     16  C   UNL     1      -3.781  -6.701   1.486  0.00  0.00    +0.000 A 
ATOM     17  C   UNL     1      -3.175  -6.859   2.719  0.00  0.00    +0.002 A 
ATOM     18  C   UNL     1      -2.720  -5.753   3.412  0.00  0.00    +0.029 A 
ENDBRANCH  10  13
ENDBRANCH   1  10
BRANCH   1  19
ATOM     19  C   UNL     1       0.298  -3.537   4.346  0.00  0.00    +0.228 C 
BRANCH  19  20
ATOM     20  C   UNL     1       0.785  -2.506   5.331  0.00  0.00    +0.251 C 
ATOM     21  O   UNL     1       0.274  -1.406   5.360  0.00  0.00    -0.272 OA
ATOM     22  N   UNL     1       1.788  -2.805   6.179  0.00  0.00    -0.205 N 
ATOM     23  H   UNL     1       2.197  -3.685   6.156  0.00  0.00    +0.177 HD
BRANCH  22  24
ATOM     24  N   UNL     1       2.241  -1.847   7.095  0.00  0.00    -0.184 NA
ATOM     25  C   UNL     1       3.207  -2.135   7.912  0.00  0.00    +0.067 C 
ATOM     26  C   UNL     1       3.842  -3.501   7.876  0.00  0.00    +0.068 C 
BRANCH  25  27
ATOM     27  C   UNL     1       3.683  -1.127   8.876  0.00  0.00    +0.039 A 
ATOM     28  C   UNL     1       4.726  -1.431   9.753  0.00  0.00    +0.013 A 
ATOM     29  C   UNL     1       5.167  -0.482  10.652  0.00  0.00    +0.001 A 
ATOM     30  C   UNL     1       4.580   0.771  10.688  0.00  0.00    +0.004 A 
ATOM     31  C   UNL     1       3.547   1.084   9.826  0.00  0.00    +0.046 A 
ATOM     32  C   UNL     1       3.095   0.145   8.913  0.00  0.00    +0.126 A 
BRANCH  32  33
ATOM     33  O   UNL     1       2.084   0.454   8.061  0.00  0.00    -0.506 OA
ATOM     34  H   UNL     1       1.203   0.255   8.407  0.00  0.00    +0.292 HD
ENDBRANCH  32  33
ENDBRANCH  25  27
ENDBRANCH  22  24
ENDBRANCH  19  20
ENDBRANCH   1  19
TORSDOF 8
