REMARK  Name = ZINC39710564
REMARK  13 active torsions:
REMARK  status: ('A' for Active; 'I' for Inactive)
REMARK    1  A    between atoms: C_1  and  C_2
REMARK    2  A    between atoms: C_2  and  C_3
REMARK    3  A    between atoms: C_10  and  C_15
REMARK    4  A    between atoms: C_15  and  C_17
REMARK    5  A    between atoms: C_15  and  N_27
REMARK    6  A    between atoms: N_22  and  C_23
REMARK    7  A    between atoms: C_23  and  C_24
REMARK    8  A    between atoms: C_23  and  C_25
REMARK    9  A    between atoms: C_23  and  C_26
REMARK   10  A    between atoms: N_27  and  C_28
REMARK   11  A    between atoms: N_27  and  C_35
REMARK   12  A    between atoms: C_28  and  C_29
REMARK   13  A    between atoms: C_35  and  C_36
REMARK                            x       y       z     vdW  Elec       q    Type
REMARK                         _______ _______ _______ _____ _____    ______ ____
ROOT
ATOM      1  C   UNL     1      -6.005  -3.369  -2.761  0.00  0.00    -0.009 C 
ENDROOT
BRANCH   1   9
ATOM      2  C   UNL     1      -1.496  -2.364   0.804  0.00  0.00    -0.047 A 
ATOM      3  C   UNL     1      -2.330  -2.302   1.921  0.00  0.00    +0.005 A 
ATOM      4  C   UNL     1      -3.683  -2.222   1.821  0.00  0.00    +0.024 A 
ATOM      5  C   UNL     1      -4.306  -2.198   0.560  0.00  0.00    +0.040 A 
ATOM      6  N   UNL     1      -5.634  -2.119   0.474  0.00  0.00    -0.285 N 
ATOM      7  C   UNL     1      -6.283  -2.093  -0.678  0.00  0.00    +0.223 C 
ATOM      8  O   UNL     1      -7.497  -2.020  -0.693  0.00  0.00    -0.275 OA
ATOM      9  C   UNL     1      -5.510  -2.153  -1.976  0.00  0.00    +0.088 C 
ATOM     10  C   UNL     1      -3.999  -2.242  -1.884  0.00  0.00    -0.006 C 
ATOM     11  C   UNL     1      -3.449  -2.262  -0.637  0.00  0.00    -0.007 A 
ATOM     12  C   UNL     1      -1.999  -2.341  -0.457  0.00  0.00    +0.013 A 
ATOM     13  H   UNL     1      -6.148  -2.079   1.296  0.00  0.00    +0.155 HD
BRANCH   2  15
ATOM     14  C   UNL     1       0.585  -1.039   1.061  0.00  0.00    +0.009 C 
ATOM     15  C   UNL     1      -0.004  -2.450   1.002  0.00  0.00    +0.032 C 
ENDBRANCH   2  15
ENDBRANCH   1   9
BRANCH   1  16
ATOM     16  C   UNL     1      -5.496  -3.288  -4.201  0.00  0.00    +0.205 C 
ATOM     17  N   UNL     1      -5.718  -4.563  -4.896  0.00  0.00    -0.152 NA
ATOM     18  N   UNL     1      -4.628  -5.023  -5.244  0.00  0.00    -0.070 NA
ATOM     19  N   UNL     1      -3.556  -4.211  -4.879  0.00  0.00    -0.179 N 
ATOM     20  N   UNL     1      -4.030  -3.103  -4.221  0.00  0.00    -0.183 NA
ATOM     21  H   UNL     1      -2.622  -4.398  -5.061  0.00  0.00    +0.191 HD
BRANCH  20  22
ATOM     22  C   UNL     1      -3.665  -1.870  -4.932  0.00  0.00    +0.035 C 
ATOM     23  C   UNL     1      -4.435  -0.690  -4.334  0.00  0.00    +0.029 C 
ATOM     24  C   UNL     1      -2.162  -1.624  -4.787  0.00  0.00    +0.029 C 
ATOM     25  C   UNL     1      -4.018  -2.011  -6.414  0.00  0.00    +0.029 C 
ENDBRANCH  20  22
ENDBRANCH   1  16
BRANCH   1  26
ATOM     26  N   UNL     1      -7.473  -3.389  -2.760  0.00  0.00    +0.390 N 
ATOM     27  H   UNL     1      -7.809  -3.401  -1.809  0.00  0.00    -0.080 HD
BRANCH  26  28
ATOM     28  C   UNL     1      -7.979  -2.190  -3.442  0.00  0.00    -0.042 C 
BRANCH  28  29
ATOM     29  C   UNL     1      -9.480  -2.135  -3.315  0.00  0.00    -0.064 A 
ATOM     30  C   UNL     1     -10.276  -2.738  -4.270  0.00  0.00    +0.002 A 
ATOM     31  C   UNL     1     -11.653  -2.688  -4.154  0.00  0.00    +0.000 A 
ATOM     32  C   UNL     1     -12.233  -2.035  -3.082  0.00  0.00    +0.000 A 
ATOM     33  C   UNL     1     -11.436  -1.432  -2.127  0.00  0.00    +0.000 A 
ATOM     34  C   UNL     1     -10.059  -1.486  -2.241  0.00  0.00    +0.002 A 
ENDBRANCH  28  29
ENDBRANCH  26  28
BRANCH  26  35
ATOM     35  C   UNL     1      -7.948  -4.588  -3.463  0.00  0.00    -0.035 C 
BRANCH  35  36
ATOM     36  C   UNL     1      -7.494  -5.818  -2.720  0.00  0.00    -0.027 A 
ATOM     37  C   UNL     1      -8.157  -6.545  -1.787  0.00  0.00    +0.009 A 
ATOM     38  C   UNL     1      -7.538  -7.649  -1.233  0.00  0.00    +0.008 A 
ATOM     39  C   UNL     1      -6.286  -7.973  -1.639  0.00  0.00    +0.045 A 
ATOM     40  S   UNL     1      -5.948  -6.701  -2.845  0.00  0.00    -0.103 S 
ENDBRANCH  35  36
ENDBRANCH  26  35
ENDBRANCH   1  26
TORSDOF 9
