REMARK  Name = ZINC35704848
REMARK  16 active torsions:
REMARK  status: ('A' for Active; 'I' for Inactive)
REMARK    1  A    between atoms: C_1  and  C_2
REMARK    2  A    between atoms: C_2  and  O_3
REMARK    3  A    between atoms: O_3  and  C_4
REMARK    4  A    between atoms: C_4  and  C_6
REMARK    5  A    between atoms: C_12  and  C_14
REMARK    6  A    between atoms: C_17  and  C_19
REMARK    7  A    between atoms: C_19  and  N_20
REMARK    8  A    between atoms: N_20  and  C_21
REMARK    9  A    between atoms: N_20  and  C_32
REMARK   10  A    between atoms: C_21  and  C_22
REMARK   11  A    between atoms: C_25  and  C_28
REMARK   12  A    between atoms: C_28  and  C_29
REMARK   13  A    between atoms: C_28  and  C_30
REMARK   14  A    between atoms: C_28  and  C_31
REMARK   15  A    between atoms: C_32  and  C_34
REMARK   16  A    between atoms: C_32  and  C_35
REMARK                            x       y       z     vdW  Elec       q    Type
REMARK                         _______ _______ _______ _____ _____    ______ ____
ROOT
ATOM      1  N   UNL     1       1.762  -9.123   2.901  0.00  0.00    +0.393 N 
ATOM      2  H   UNL     1       1.681  -8.149   2.651  0.00  0.00    -0.080 HD
ENDROOT
BRANCH   1   3
ATOM      3  C   UNL     1       3.115  -9.386   3.412  0.00  0.00    -0.040 C 
ATOM      4  C   UNL     1       4.078  -9.561   2.236  0.00  0.00    -0.008 C 
BRANCH   3   5
ATOM      5  C   UNL     1       3.565  -8.227   4.263  0.00  0.00    -0.061 A 
ATOM      6  C   UNL     1       3.498  -6.939   3.767  0.00  0.00    +0.002 A 
ATOM      7  C   UNL     1       3.911  -5.875   4.547  0.00  0.00    +0.000 A 
ATOM      8  C   UNL     1       4.391  -6.100   5.824  0.00  0.00    +0.000 A 
ATOM      9  C   UNL     1       4.457  -7.389   6.320  0.00  0.00    +0.000 A 
ATOM     10  C   UNL     1       4.040  -8.452   5.541  0.00  0.00    +0.002 A 
ENDBRANCH   3   5
ENDBRANCH   1   3
BRANCH   1  11
ATOM     11  C   UNL     1       0.775  -9.445   3.941  0.00  0.00    +0.020 C 
BRANCH  11  15
ATOM     12  C   UNL     1       0.680  -6.569   6.141  0.00  0.00    +0.164 A 
ATOM     13  C   UNL     1       1.249  -7.490   6.966  0.00  0.00    +0.230 A 
ATOM     14  O   UNL     1       1.348  -8.632   6.269  0.00  0.00    -0.449 OA
ATOM     15  C   UNL     1       0.852  -8.419   5.042  0.00  0.00    +0.179 A 
ATOM     16  N   UNL     1       0.444  -7.189   4.953  0.00  0.00    -0.210 NA
BRANCH  12  23
ATOM     17  C   UNL     1      -2.578  -3.298   4.312  0.00  0.00    +0.101 C 
ATOM     18  C   UNL     1      -2.190  -4.761   4.081  0.00  0.00    +0.033 C 
ATOM     19  C   UNL     1      -0.679  -4.921   4.277  0.00  0.00    +0.109 C 
ATOM     20  N   UNL     1      -0.317  -4.403   5.603  0.00  0.00    -0.296 N 
ATOM     21  C   UNL     1      -0.722  -3.037   5.963  0.00  0.00    +0.109 C 
ATOM     22  C   UNL     1      -2.233  -2.898   5.748  0.00  0.00    +0.033 C 
ATOM     23  C   UNL     1       0.373  -5.166   6.474  0.00  0.00    +0.268 C 
ATOM     24  O   UNL     1       0.742  -4.697   7.533  0.00  0.00    -0.268 OA
BRANCH  17  25
ATOM     25  C   UNL     1      -4.059  -3.130   4.086  0.00  0.00    +0.310 C 
ATOM     26  O   UNL     1      -4.765  -2.731   4.982  0.00  0.00    -0.251 OA
BRANCH  25  27
ATOM     27  O   UNL     1      -4.593  -3.424   2.890  0.00  0.00    -0.465 OA
BRANCH  27  29
ATOM     28  C   UNL     1      -6.425  -3.624   1.327  0.00  0.00    +0.048 C 
ATOM     29  C   UNL     1      -6.003  -3.241   2.747  0.00  0.00    +0.229 C 
ENDBRANCH  27  29
ENDBRANCH  25  27
ENDBRANCH  17  25
ENDBRANCH  12  23
ENDBRANCH  11  15
ENDBRANCH   1  11
BRANCH   1  30
ATOM     30  C   UNL     1       1.515  -9.956   1.717  0.00  0.00    -0.041 C 
BRANCH  30  31
ATOM     31  C   UNL     1       2.144  -9.310   0.509  0.00  0.00    -0.064 A 
ATOM     32  C   UNL     1       2.015  -7.949   0.307  0.00  0.00    +0.002 A 
ATOM     33  C   UNL     1       2.592  -7.356  -0.801  0.00  0.00    +0.004 A 
ATOM     34  C   UNL     1       3.299  -8.125  -1.706  0.00  0.00    -0.042 A 
ATOM     35  C   UNL     1       3.428  -9.487  -1.504  0.00  0.00    +0.004 A 
ATOM     36  C   UNL     1       2.855 -10.078  -0.394  0.00  0.00    +0.002 A 
BRANCH  34  37
ATOM     37  C   UNL     1       3.927  -7.480  -2.915  0.00  0.00    -0.013 C 
ATOM     38  C   UNL     1       4.936  -6.423  -2.462  0.00  0.00    +0.015 C 
ATOM     39  C   UNL     1       4.643  -8.545  -3.747  0.00  0.00    +0.015 C 
ATOM     40  C   UNL     1       2.839  -6.817  -3.762  0.00  0.00    +0.015 C 
ENDBRANCH  34  37
ENDBRANCH  30  31
ENDBRANCH   1  30
TORSDOF 11
