REMARK  Name = ZINC06974363
REMARK  4 active torsions:
REMARK  status: ('A' for Active; 'I' for Inactive)
REMARK    1  A    between atoms: C_3  and  C_9
REMARK    2  A    between atoms: C_12  and  C_14
REMARK    3  A    between atoms: N_15  and  N_16
REMARK    4  A    between atoms: C_17  and  C_18
REMARK                            x       y       z     vdW  Elec       q    Type
REMARK                         _______ _______ _______ _____ _____    ______ ____
ROOT
ATOM      1  C   UNL     1       5.713   4.372  -2.027  0.00  0.00    +0.178 C 
ATOM      2  N   UNL     1       5.166   5.244  -2.841  0.00  0.00    -0.177 NA
ENDROOT
BRANCH   2   3
ATOM      3  N   UNL     1       5.856   6.247  -3.269  0.00  0.00    -0.262 N 
ATOM      4  C   UNL     1       5.308   7.122  -4.086  0.00  0.00    +0.143 C 
ATOM      5  N   UNL     1       3.995   6.966  -4.484  0.00  0.00    -0.342 N 
ATOM      6  H   UNL     1       3.438   6.289  -4.068  0.00  0.00    +0.144 HD
ATOM      7  H   UNL     1       3.629   7.534  -5.180  0.00  0.00    +0.144 HD
ATOM      8  H   UNL     1       6.778   6.356  -2.990  0.00  0.00    +0.190 HD
BRANCH   4   9
ATOM      9  C   UNL     1       6.097   8.268  -4.575  0.00  0.00    +0.187 A 
ATOM     10  C   UNL     1       5.552   9.521  -5.116  0.00  0.00    +0.191 A 
ATOM     11  N   UNL     1       6.550  10.294  -5.444  0.00  0.00    -0.033 NA
ATOM     12  O   UNL     1       7.752   9.608  -5.144  0.00  0.00    -0.240 OA
ATOM     13  N   UNL     1       7.405   8.348  -4.599  0.00  0.00    -0.044 NA
ATOM     14  N   UNL     1       4.205   9.829  -5.253  0.00  0.00    -0.339 N 
ATOM     15  H   UNL     1       3.532   9.241  -4.878  0.00  0.00    +0.144 HD
ATOM     16  H   UNL     1       3.938  10.633  -5.726  0.00  0.00    +0.144 HD
ENDBRANCH   4   9
ENDBRANCH   2   3
BRANCH   1  20
ATOM     17  C   UNL     1       3.286   1.880  -1.237  0.00  0.00    +0.137 A 
ATOM     18  C   UNL     1       4.336   1.406  -0.505  0.00  0.00    +0.050 A 
ATOM     19  C   UNL     1       5.406   2.285  -0.701  0.00  0.00    +0.051 A 
ATOM     20  C   UNL     1       4.957   3.273  -1.558  0.00  0.00    +0.148 A 
ATOM     21  O   UNL     1       3.672   3.002  -1.871  0.00  0.00    -0.454 OA
BRANCH  17  24
ATOM     22  C   UNL     1      -0.443   1.448  -1.209  0.00  0.00    +0.021 A 
ATOM     23  C   UNL     1       0.803   2.034  -1.126  0.00  0.00    +0.014 A 
ATOM     24  C   UNL     1       1.950   1.260  -1.324  0.00  0.00    +0.036 A 
ATOM     25  C   UNL     1       1.825  -0.104  -1.606  0.00  0.00    +0.053 A 
ATOM     26  C   UNL     1       0.572  -0.676  -1.687  0.00  0.00    +0.040 A 
ATOM     27  C   UNL     1      -0.560   0.097  -1.488  0.00  0.00    +0.042 A 
ATOM     28 CL   UNL     1      -2.133  -0.631  -1.591  0.00  0.00    -0.083 Cl
ATOM     29 CL   UNL     1       3.243  -1.074  -1.855  0.00  0.00    -0.083 Cl
ENDBRANCH  17  24
ENDBRANCH   1  20
TORSDOF 4
