REMARK  Name = ZINC39275338
REMARK  3 active torsions:
REMARK  status: ('A' for Active; 'I' for Inactive)
REMARK    1  A    between atoms: C_4  and  N_7
REMARK    2  A    between atoms: C_8  and  N_10
REMARK    3  A    between atoms: C_14  and  C_17
REMARK                            x       y       z     vdW  Elec       q    Type
REMARK                         _______ _______ _______ _____ _____    ______ ____
ROOT
ATOM      1  N   UNL     1       4.819  -2.642   0.144  0.00  0.00    -0.136 NA
ATOM      2  C   UNL     1       4.841  -3.959   0.236  0.00  0.00    +0.203 C 
ATOM      3  N   UNL     1       5.924  -4.805   0.339  0.00  0.00    -0.153 NA
ATOM      4  N   UNL     1       5.849  -6.011   0.420  0.00  0.00    -0.289 N 
ATOM      5  C   UNL     1       4.505  -6.636   0.408  0.00  0.00    +0.193 C 
ATOM      6  S   UNL     1       3.472  -5.114   0.269  0.00  0.00    -0.056 S 
ATOM      7  H   UNL     1       6.649  -6.554   0.490  0.00  0.00    +0.184 HD
ENDROOT
BRANCH   5   8
ATOM      8  C   UNL     1       4.329  -7.541  -0.784  0.00  0.00    -0.013 A 
ATOM      9  C   UNL     1       5.003  -7.273  -1.960  0.00  0.00    +0.007 A 
ATOM     10  C   UNL     1       4.842  -8.103  -3.054  0.00  0.00    +0.015 A 
ATOM     11  C   UNL     1       4.006  -9.202  -2.970  0.00  0.00    +0.018 A 
ATOM     12  C   UNL     1       3.332  -9.470  -1.792  0.00  0.00    +0.015 A 
ATOM     13  C   UNL     1       3.498  -8.642  -0.698  0.00  0.00    +0.007 A 
ATOM     14 BR   UNL     1       3.784 -10.338  -4.466  0.00  0.00    -0.050 Br
ENDBRANCH   5   8
BRANCH   1  16
ATOM     15  N   UNL     1       3.621  -0.650  -0.036  0.00  0.00    -0.268 N 
ATOM     16  C   UNL     1       3.644  -1.994   0.058  0.00  0.00    +0.330 C 
ATOM     17  O   UNL     1       2.601  -2.622   0.065  0.00  0.00    -0.250 OA
ATOM     18  H   UNL     1       4.451  -0.155  -0.120  0.00  0.00    +0.156 HD
BRANCH  15  22
ATOM     19  C   UNL     1      -0.015   1.381   0.031  0.00  0.00    +0.000 A 
ATOM     20  C   UNL     1       0.140   0.219   0.765  0.00  0.00    +0.002 A 
ATOM     21  C   UNL     1       1.344  -0.457   0.745  0.00  0.00    +0.023 A 
ATOM     22  C   UNL     1       2.400   0.032  -0.014  0.00  0.00    +0.035 A 
ATOM     23  C   UNL     1       2.241   1.198  -0.750  0.00  0.00    +0.023 A 
ATOM     24  C   UNL     1       1.034   1.869  -0.725  0.00  0.00    +0.002 A 
ENDBRANCH  15  22
ENDBRANCH   1  16
TORSDOF 3
