REMARK  Name = ZINC16610307
REMARK  14 active torsions:
REMARK  status: ('A' for Active; 'I' for Inactive)
REMARK    1  A    between atoms: C_1  and  C_2
REMARK    2  A    between atoms: C_3  and  C_33
REMARK    3  A    between atoms: C_4  and  C_11
REMARK    4  A    between atoms: N_9  and  C_10
REMARK    5  A    between atoms: C_14  and  N_17
REMARK    6  A    between atoms: N_20  and  C_21
REMARK    7  A    between atoms: C_22  and  C_30
REMARK    8  A    between atoms: C_26  and  C_27
REMARK    9  A    between atoms: C_27  and  C_28
REMARK   10  A    between atoms: C_27  and  C_29
REMARK   11  A    between atoms: C_30  and  C_31
REMARK   12  A    between atoms: C_30  and  C_32
REMARK   13  A    between atoms: C_33  and  O_35
REMARK   14  A    between atoms: O_35  and  C_36
REMARK                            x       y       z     vdW  Elec       q    Type
REMARK                         _______ _______ _______ _____ _____    ______ ____
ROOT
ATOM      1  C   UNL     1       3.180   1.686  -2.752  0.00  0.00    -0.022 A 
ATOM      2  C   UNL     1       3.338   1.130  -1.496  0.00  0.00    +0.007 A 
ATOM      3  C   UNL     1       2.231   0.752  -0.762  0.00  0.00    +0.024 A 
ATOM      4  C   UNL     1       0.958   0.932  -1.286  0.00  0.00    +0.035 A 
ATOM      5  C   UNL     1       0.803   1.487  -2.550  0.00  0.00    +0.024 A 
ATOM      6  C   UNL     1       1.914   1.867  -3.277  0.00  0.00    +0.007 A 
ENDROOT
BRANCH   1  10
ATOM      7  C   UNL     1       4.952   5.877  -4.060  0.00  0.00    +0.061 C 
ATOM      8  C   UNL     1       4.679   4.415  -4.304  0.00  0.00    +0.021 C 
ATOM      9  C   UNL     1       4.669   3.558  -3.260  0.00  0.00    +0.078 C 
ATOM     10  C   UNL     1       4.391   2.097  -3.550  0.00  0.00    +0.141 C 
ATOM     11  N   UNL     1       4.154   1.729  -4.956  0.00  0.00    -0.315 N 
ATOM     12  C   UNL     1       4.197   2.701  -5.889  0.00  0.00    +0.137 C 
ATOM     13  S   UNL     1       3.922   2.288  -7.527  0.00  0.00    -0.018 S 
ATOM     14  N   UNL     1       4.447   3.978  -5.576  0.00  0.00    -0.289 N 
ATOM     15  C   UNL     1       4.473   4.963  -6.660  0.00  0.00    +0.137 C 
ATOM     16  H   UNL     1       3.970   0.810  -5.205  0.00  0.00    +0.149 HD
BRANCH   9  17
ATOM     17  C   UNL     1       4.908   4.009  -1.941  0.00  0.00    +0.339 C 
ATOM     18  O   UNL     1       5.129   5.187  -1.732  0.00  0.00    -0.245 OA
BRANCH  17  19
ATOM     19  O   UNL     1       4.892   3.132  -0.915  0.00  0.00    -0.465 OA
ATOM     20  C   UNL     1       5.143   3.657   0.391  0.00  0.00    +0.280 C 
ENDBRANCH  17  19
ENDBRANCH   9  17
ENDBRANCH   1  10
BRANCH   4  21
ATOM     21  N   UNL     1      -0.166   0.551  -0.546  0.00  0.00    -0.269 N 
ATOM     22  C   UNL     1      -1.301   1.274  -0.622  0.00  0.00    +0.308 C 
ATOM     23  O   UNL     1      -1.375   2.209  -1.395  0.00  0.00    -0.252 OA
ATOM     24  N   UNL     1      -2.354   0.959   0.158  0.00  0.00    -0.269 N 
ATOM     25  H   UNL     1      -0.130  -0.237   0.020  0.00  0.00    +0.156 HD
ATOM     26  H   UNL     1      -2.276   0.251   0.816  0.00  0.00    +0.156 HD
BRANCH  24  27
ATOM     27  C   UNL     1      -3.560   1.655   0.019  0.00  0.00    +0.042 A 
ATOM     28  C   UNL     1      -3.595   3.031   0.202  0.00  0.00    -0.023 A 
ATOM     29  C   UNL     1      -4.786   3.716   0.059  0.00  0.00    +0.006 A 
ATOM     30  C   UNL     1      -5.945   3.031  -0.256  0.00  0.00    +0.001 A 
ATOM     31  C   UNL     1      -5.915   1.660  -0.433  0.00  0.00    +0.006 A 
ATOM     32  C   UNL     1      -4.726   0.970  -0.297  0.00  0.00    -0.023 A 
BRANCH  32  33
ATOM     33  C   UNL     1      -4.695  -0.524  -0.490  0.00  0.00    +0.015 C 
ATOM     34  C   UNL     1      -5.627  -1.189   0.525  0.00  0.00    +0.012 C 
ATOM     35  C   UNL     1      -5.158  -0.865  -1.908  0.00  0.00    +0.012 C 
ENDBRANCH  32  33
BRANCH  28  36
ATOM     36  C   UNL     1      -2.333   3.778   0.552  0.00  0.00    +0.015 C 
ATOM     37  C   UNL     1      -2.126   4.923  -0.442  0.00  0.00    +0.012 C 
ATOM     38  C   UNL     1      -2.453   4.346   1.968  0.00  0.00    +0.012 C 
ENDBRANCH  28  36
ENDBRANCH  24  27
ENDBRANCH   4  21
TORSDOF 7
