REMARK  Name = ZINC25716305
REMARK  5 active torsions:
REMARK  status: ('A' for Active; 'I' for Inactive)
REMARK    1  A    between atoms: C_1  and  C_2
REMARK    2  A    between atoms: C_7  and  C_8
REMARK    3  A    between atoms: C_14  and  C_16
REMARK    4  A    between atoms: C_19  and  O_22
REMARK    5  A    between atoms: O_22  and  C_23
REMARK                            x       y       z     vdW  Elec       q    Type
REMARK                         _______ _______ _______ _____ _____    ______ ____
ROOT
ATOM      1  C   UNL     1      -1.225   2.509  -4.691  0.00  0.00    +0.264 C 
ATOM      2  O   UNL     1      -2.215   2.853  -5.309  0.00  0.00    -0.268 OA
ATOM      3  N   UNL     1      -0.044   2.381  -5.328  0.00  0.00    -0.289 N 
ATOM      4  C   UNL     1       1.203   1.869  -4.732  0.00  0.00    +0.109 C 
ATOM      5  C   UNL     1       2.028   1.341  -5.935  0.00  0.00    +0.021 C 
ATOM      6  C   UNL     1       1.691   2.393  -7.025  0.00  0.00    +0.029 C 
ATOM      7  C   UNL     1       0.215   2.734  -6.732  0.00  0.00    +0.107 C 
ENDROOT
BRANCH   1  14
ATOM      8  C   UNL     1      -3.867   2.442  -3.022  0.00  0.00    +0.047 C 
ATOM      9  C   UNL     1      -2.467   2.204  -2.515  0.00  0.00    -0.010 A 
ATOM     10  C   UNL     1      -2.094   1.908  -1.199  0.00  0.00    +0.042 A 
ATOM     11  C   UNL     1      -0.706   1.767  -1.174  0.00  0.00    +0.027 A 
ATOM     12  N   UNL     1      -0.252   1.964  -2.412  0.00  0.00    -0.354 N 
ATOM     13  H   UNL     1       0.826   1.897  -2.620  0.00  0.00    +0.166 HD
ATOM     14  C   UNL     1      -1.316   2.235  -3.251  0.00  0.00    +0.106 A 
ATOM     15  C   UNL     1       0.062   1.448   0.083  0.00  0.00    +0.054 C 
ATOM     16  C   UNL     1      -0.791   1.810   1.302  0.00  0.00    +0.014 C 
ATOM     17  C   UNL     1      -2.173   1.154   1.210  0.00  0.00    +0.080 C 
ATOM     18  C   UNL     1      -2.908   1.744   0.015  0.00  0.00    +0.165 C 
ATOM     19  O   UNL     1      -4.079   2.057   0.061  0.00  0.00    -0.292 OA
ENDBRANCH   1  14
BRANCH   7  20
ATOM     20  C   UNL     1      -0.022   4.207  -6.942  0.00  0.00    -0.027 A 
ATOM     21  C   UNL     1       0.377   5.115  -5.978  0.00  0.00    +0.009 A 
ATOM     22  C   UNL     1       0.166   6.466  -6.171  0.00  0.00    +0.046 A 
ATOM     23  C   UNL     1      -0.457   6.912  -7.328  0.00  0.00    +0.120 A 
ATOM     24  C   UNL     1      -0.861   5.999  -8.291  0.00  0.00    +0.046 A 
ATOM     25  C   UNL     1      -0.643   4.649  -8.095  0.00  0.00    +0.009 A 
BRANCH  23  26
ATOM     26  O   UNL     1      -0.670   8.241  -7.517  0.00  0.00    -0.495 OA
ATOM     27  C   UNL     1      -0.228   9.123  -6.484  0.00  0.00    +0.277 C 
ENDBRANCH  23  26
ENDBRANCH   7  20
TORSDOF 3
