REMARK  Name = ZINC39412653
REMARK  7 active torsions:
REMARK  status: ('A' for Active; 'I' for Inactive)
REMARK    1  A    between atoms: C_4  and  C_7
REMARK    2  A    between atoms: C_10  and  C_14
REMARK    3  A    between atoms: C_14  and  C_15
REMARK    4  A    between atoms: C_15  and  O_33
REMARK    5  A    between atoms: N_18  and  C_21
REMARK    6  A    between atoms: C_21  and  C_22
REMARK    7  A    between atoms: C_25  and  C_27
REMARK                            x       y       z     vdW  Elec       q    Type
REMARK                         _______ _______ _______ _____ _____    ______ ____
ROOT
ATOM      1  C   UNL     1       5.141  -4.858  -2.175  0.00  0.00    +0.065 C 
ATOM      2  C   UNL     1       6.612  -4.604  -1.832  0.00  0.00    +0.016 C 
ATOM      3  C   UNL     1       7.330  -5.945  -1.666  0.00  0.00    -0.075 C 
ATOM      4  N   UNL     1       7.243  -6.709  -2.917  0.00  0.00    +0.385 N 
ATOM      5  C   UNL     1       5.839  -7.018  -3.214  0.00  0.00    -0.075 C 
ATOM      6  C   UNL     1       5.063  -5.718  -3.439  0.00  0.00    +0.016 C 
ATOM      7  H   UNL     1       7.633  -6.163  -3.671  0.00  0.00    -0.081 HD
ENDROOT
BRANCH   1   8
ATOM      8  O   UNL     1       4.508  -5.542  -1.092  0.00  0.00    -0.389 OA
ATOM      9  H   UNL     1       4.905  -6.398  -0.881  0.00  0.00    +0.210 HD
ENDBRANCH   1   8
BRANCH   1  10
ATOM     10  C   UNL     1       4.435  -3.523  -2.419  0.00  0.00    +0.068 C 
BRANCH  10  13
ATOM     11  C   UNL     1       3.711  -0.707  -0.038  0.00  0.00    +0.113 C 
ATOM     12  C   UNL     1       4.025  -1.210  -1.465  0.00  0.00    +0.059 C 
ATOM     13  C   UNL     1       4.621  -2.617  -1.201  0.00  0.00    +0.146 C 
ATOM     14  O   UNL     1       3.836  -3.088  -0.082  0.00  0.00    -0.296 OA
ATOM     15  N   UNL     1       3.629  -1.924   0.797  0.00  0.00    -0.193 NA
ATOM     16  H   UNL     1       4.313  -1.902   1.538  0.00  0.00    +0.154 HD
BRANCH  11  20
ATOM     17  C   UNL     1      -0.017   1.378   0.010  0.00  0.00    +0.000 A 
ATOM     18  C   UNL     1       1.171   2.086   0.002  0.00  0.00    +0.000 A 
ATOM     19  C   UNL     1       2.377   1.411  -0.013  0.00  0.00    +0.005 A 
ATOM     20  C   UNL     1       2.396   0.029  -0.020  0.00  0.00    -0.028 A 
ATOM     21  C   UNL     1       1.208  -0.679  -0.012  0.00  0.00    +0.005 A 
ATOM     22  C   UNL     1       0.002  -0.004   0.002  0.00  0.00    +0.000 A 
ENDBRANCH  11  20
ENDBRANCH  10  13
ENDBRANCH   1  10
BRANCH   4  23
ATOM     23  C   UNL     1       8.000  -7.960  -2.779  0.00  0.00    -0.003 C 
BRANCH  23  24
ATOM     24  C   UNL     1       8.013  -8.687  -4.099  0.00  0.00    +0.089 A 
ATOM     25  C   UNL     1       8.940  -8.547  -5.064  0.00  0.00    +0.043 A 
ATOM     26  C   UNL     1       8.565  -9.411  -6.119  0.00  0.00    +0.047 A 
ATOM     27  C   UNL     1       7.433 -10.027  -5.736  0.00  0.00    +0.135 A 
ATOM     28  O   UNL     1       7.106  -9.589  -4.508  0.00  0.00    -0.464 OA
BRANCH  27  29
ATOM     29  C   UNL     1       6.663 -11.040  -6.543  0.00  0.00    +0.218 C 
ATOM     30  C   UNL     1       5.437 -10.405  -7.174  0.00  0.00    +0.030 C 
ATOM     31  C   UNL     1       4.416 -11.080  -6.642  0.00  0.00    +0.133 C 
ATOM     32  N   UNL     1       4.860 -12.025  -5.784  0.00  0.00    -0.162 NA
ATOM     33  N   UNL     1       6.091 -12.077  -5.668  0.00  0.00    -0.172 NA
ENDBRANCH  27  29
ENDBRANCH  23  24
ENDBRANCH   4  23
TORSDOF 7
