REMARK  Name = ZINC38676759
REMARK  9 active torsions:
REMARK  status: ('A' for Active; 'I' for Inactive)
REMARK    1  A    between atoms: C_1  and  C_2
REMARK    2  A    between atoms: C_2  and  C_3
REMARK    3  A    between atoms: C_6  and  C_9
REMARK    4  A    between atoms: C_14  and  O_23
REMARK    5  A    between atoms: C_18  and  N_22
REMARK    6  A    between atoms: C_19  and  C_20
REMARK    7  A    between atoms: O_23  and  C_24
REMARK    8  A    between atoms: C_24  and  C_26
REMARK    9  A    between atoms: C_29  and  C_32
REMARK                            x       y       z     vdW  Elec       q    Type
REMARK                         _______ _______ _______ _____ _____    ______ ____
ROOT
ATOM      1  C   UNL     1      -5.369  -2.026   0.079  0.00  0.00    +0.098 C 
ATOM      2  C   UNL     1      -5.429  -3.349  -0.635  0.00  0.00    +0.008 A 
ATOM      3  C   UNL     1      -4.883  -4.471  -0.037  0.00  0.00    +0.012 A 
ATOM      4  C   UNL     1      -4.929  -5.694  -0.677  0.00  0.00    +0.047 A 
ATOM      5  C   UNL     1      -5.524  -5.800  -1.927  0.00  0.00    +0.135 A 
ATOM      6  C   UNL     1      -6.072  -4.679  -2.529  0.00  0.00    +0.093 A 
ATOM      7  C   UNL     1      -6.024  -3.450  -1.883  0.00  0.00    +0.138 A 
ATOM      8  O   UNL     1      -6.564  -2.362  -2.486  0.00  0.00    -0.441 OA
ATOM      9  C   UNL     1      -6.880  -1.280  -1.755  0.00  0.00    +0.199 C 
ATOM     10  C   UNL     1      -6.346  -1.063  -0.533  0.00  0.00    +0.098 C 
ENDROOT
BRANCH   1  14
ATOM     11  C   UNL     1      -1.420  -0.427  -0.237  0.00  0.00    -0.048 A 
ATOM     12  C   UNL     1      -1.959  -0.697   1.007  0.00  0.00    +0.004 A 
ATOM     13  C   UNL     1      -3.236  -1.214   1.109  0.00  0.00    +0.005 A 
ATOM     14  C   UNL     1      -3.976  -1.461  -0.032  0.00  0.00    -0.035 A 
ATOM     15  C   UNL     1      -3.437  -1.190  -1.276  0.00  0.00    +0.005 A 
ATOM     16  C   UNL     1      -2.161  -0.669  -1.378  0.00  0.00    +0.004 A 
BRANCH  11  18
ATOM     17  C   UNL     1      -0.091   1.665  -0.321  0.00  0.00    +0.009 C 
ATOM     18  C   UNL     1      -0.027   0.137  -0.348  0.00  0.00    +0.032 C 
ENDBRANCH  11  18
ENDBRANCH   1  14
BRANCH   9  19
ATOM     19  N   UNL     1      -7.769  -0.368  -2.267  0.00  0.00    -0.328 N 
ATOM     20  H   UNL     1      -8.160  -0.510  -3.143  0.00  0.00    +0.145 HD
ATOM     21  H   UNL     1      -8.008   0.419  -1.752  0.00  0.00    +0.145 HD
ENDBRANCH   9  19
BRANCH  10  22
ATOM     22  C   UNL     1      -6.724   0.112   0.193  0.00  0.00    +0.101 C 
ATOM     23  N   UNL     1      -7.024   1.043   0.770  0.00  0.00    -0.191 NA
ENDBRANCH  10  22
BRANCH   5  24
ATOM     24  O   UNL     1      -5.570  -7.003  -2.559  0.00  0.00    -0.422 OA
BRANCH  24  25
ATOM     25  C   UNL     1      -6.368  -7.958  -2.044  0.00  0.00    +0.344 C 
ATOM     26  O   UNL     1      -7.098  -7.700  -1.107  0.00  0.00    -0.245 OA
BRANCH  25  27
ATOM     27  C   UNL     1      -6.356  -9.319  -2.618  0.00  0.00    +0.059 A 
ATOM     28  C   UNL     1      -5.515  -9.620  -3.690  0.00  0.00    +0.015 A 
ATOM     29  C   UNL     1      -5.508 -10.893  -4.221  0.00  0.00    +0.004 A 
ATOM     30  C   UNL     1      -6.333 -11.871  -3.693  0.00  0.00    -0.050 A 
ATOM     31  C   UNL     1      -7.170 -11.579  -2.631  0.00  0.00    +0.004 A 
ATOM     32  C   UNL     1      -7.183 -10.311  -2.087  0.00  0.00    +0.015 A 
ATOM     33  C   UNL     1      -6.321 -13.259  -4.279  0.00  0.00    +0.044 C 
ENDBRANCH  25  27
ENDBRANCH  24  25
ENDBRANCH   5  24
TORSDOF 7
