REMARK  Name = ZINC12050689
REMARK  11 active torsions:
REMARK  status: ('A' for Active; 'I' for Inactive)
REMARK    1  A    between atoms: C_1  and  C_2
REMARK    2  A    between atoms: C_2  and  O_3
REMARK    3  A    between atoms: O_3  and  C_4
REMARK    4  A    between atoms: C_4  and  C_6
REMARK    5  A    between atoms: C_12  and  N_76
REMARK    6  A    between atoms: C_18  and  C_20
REMARK    7  A    between atoms: C_20  and  C_21
REMARK    8  A    between atoms: C_21  and  C_22
REMARK    9  A    between atoms: C_22  and  C_28
REMARK   10  A    between atoms: C_28  and  C_29
REMARK   11  A    between atoms: C_32  and  C_35
REMARK                            x       y       z     vdW  Elec       q    Type
REMARK                         _______ _______ _______ _____ _____    ______ ____
ROOT
ATOM      1  C   UNL     1      -1.940   1.118   6.109  0.00  0.00    -0.066 C 
ATOM      2  C   UNL     1      -0.759   0.189   5.818  0.00  0.00    +0.004 C 
ATOM      3  C   UNL     1       0.247   0.913   4.918  0.00  0.00    +0.106 C 
ATOM      4  N   UNL     1      -0.453   1.393   3.718  0.00  0.00    -0.302 N 
ATOM      5  C   UNL     1      -1.653   2.224   3.885  0.00  0.00    +0.106 C 
ATOM      6  C   UNL     1      -2.640   1.481   4.797  0.00  0.00    +0.004 C 
ATOM      7  C   UNL     1       0.000   1.080   2.488  0.00  0.00    +0.216 C 
ATOM      8  O   UNL     1       0.994   0.397   2.363  0.00  0.00    -0.276 OA
ENDROOT
BRANCH   1  14
ATOM      9  C   UNL     1      -5.075   0.511   8.103  0.00  0.00    +0.081 C 
ATOM     10  C   UNL     1      -4.434   0.020   9.403  0.00  0.00    +0.011 C 
ATOM     11  C   UNL     1      -3.208  -0.834   9.068  0.00  0.00    -0.018 C 
ATOM     12  C   UNL     1      -2.229  -0.007   8.232  0.00  0.00    -0.078 C 
ATOM     13  C   UNL     1      -4.042   1.300   7.295  0.00  0.00    -0.064 C 
ATOM     14  N   UNL     1      -2.899   0.414   6.984  0.00  0.00    +0.382 N 
ATOM     15  H   UNL     1      -3.247  -0.419   6.495  0.00  0.00    -0.081 HD
BRANCH   9  16
ATOM     16  C   UNL     1      -6.248   1.402   8.425  0.00  0.00    +0.308 C 
ATOM     17  O   UNL     1      -6.258   2.549   8.045  0.00  0.00    -0.251 OA
BRANCH  16  18
ATOM     18  O   UNL     1      -7.281   0.921   9.134  0.00  0.00    -0.465 OA
BRANCH  18  20
ATOM     19  C   UNL     1      -9.452   1.113  10.221  0.00  0.00    +0.048 C 
ATOM     20  C   UNL     1      -8.375   1.835   9.408  0.00  0.00    +0.229 C 
ENDBRANCH  18  20
ENDBRANCH  16  18
ENDBRANCH   9  16
ENDBRANCH   1  14
BRANCH   7  21
ATOM     21  C   UNL     1      -0.729   1.579   1.267  0.00  0.00    +0.098 C 
BRANCH  21  22
ATOM     22  C   UNL     1      -0.013   1.086   0.008  0.00  0.00    +0.035 C 
BRANCH  22  23
ATOM     23  C   UNL     1      -0.753   1.593  -1.232  0.00  0.00    +0.039 C 
ATOM     24  C   UNL     1      -0.139   0.979  -2.509  0.00  0.00    +0.035 C 
ATOM     25  C   UNL     1      -1.390   0.790  -3.400  0.00  0.00    +0.098 C 
ATOM     26  C   UNL     1      -2.535   0.690  -2.416  0.00  0.00    +0.214 C 
ATOM     27  O   UNL     1      -3.641   0.265  -2.677  0.00  0.00    -0.276 OA
ATOM     28  N   UNL     1      -2.149   1.141  -1.210  0.00  0.00    -0.309 N 
ATOM     29  H   UNL     1      -2.720   1.165  -0.426  0.00  0.00    +0.149 HD
BRANCH  23  30
ATOM     30  C   UNL     1      -0.692   3.120  -1.296  0.00  0.00    +0.061 C 
BRANCH  30  31
ATOM     31  C   UNL     1      -1.527   3.608  -2.452  0.00  0.00    -0.045 A 
ATOM     32  C   UNL     1      -0.954   3.768  -3.700  0.00  0.00    +0.004 A 
ATOM     33  C   UNL     1      -1.721   4.211  -4.761  0.00  0.00    +0.003 A 
ATOM     34  C   UNL     1      -3.059   4.503  -4.572  0.00  0.00    -0.050 A 
ATOM     35  C   UNL     1      -3.630   4.348  -3.323  0.00  0.00    +0.003 A 
ATOM     36  C   UNL     1      -2.865   3.900  -2.263  0.00  0.00    +0.004 A 
ATOM     37  C   UNL     1      -3.893   4.992  -5.727  0.00  0.00    +0.044 C 
ENDBRANCH  30  31
ENDBRANCH  23  30
ENDBRANCH  22  23
ENDBRANCH  21  22
ENDBRANCH   7  21
TORSDOF 9
