REMARK  Name = ZINC45560558
REMARK  7 active torsions:
REMARK  status: ('A' for Active; 'I' for Inactive)
REMARK    1  A    between atoms: C_1  and  C_2
REMARK    2  A    between atoms: C_9  and  N_14
REMARK    3  A    between atoms: N_14  and  C_15
REMARK    4  A    between atoms: C_15  and  C_17
REMARK    5  A    between atoms: C_15  and  C_18
REMARK    6  A    between atoms: N_20  and  C_21
REMARK    7  A    between atoms: C_24  and  C_27
REMARK                            x       y       z     vdW  Elec       q    Type
REMARK                         _______ _______ _______ _____ _____    ______ ____
ROOT
ATOM      1  C   UNL     1       6.908   0.340   2.396  0.00  0.00    +0.154 C 
ATOM      2  C   UNL     1       7.188  -0.991   3.097  0.00  0.00    +0.038 C 
ENDROOT
BRANCH   1   3
ATOM      3  C   UNL     1       8.212   1.036   2.102  0.00  0.00    +0.237 C 
ATOM      4  O   UNL     1       8.514   1.298   0.957  0.00  0.00    -0.273 OA
ATOM      5  N   UNL     1       9.041   1.368   3.111  0.00  0.00    -0.284 N 
ATOM      6  H   UNL     1       8.770   1.220   4.030  0.00  0.00    +0.155 HD
BRANCH   5   7
ATOM      7  C   UNL     1      10.293   1.927   2.832  0.00  0.00    +0.033 A 
ATOM      8  C   UNL     1      11.385   1.621   3.634  0.00  0.00    +0.024 A 
ATOM      9  C   UNL     1      12.620   2.174   3.356  0.00  0.00    +0.014 A 
ATOM     10  C   UNL     1      12.770   3.031   2.282  0.00  0.00    +0.055 A 
ATOM     11  C   UNL     1      11.684   3.338   1.482  0.00  0.00    +0.014 A 
ATOM     12  C   UNL     1      10.448   2.784   1.751  0.00  0.00    +0.024 A 
BRANCH  10  13
ATOM     13  C   UNL     1      14.119   3.633   1.982  0.00  0.00    +0.417 C 
ATOM     14  F   UNL     1      14.820   2.793   1.110  0.00  0.00    -0.166 F 
ATOM     15  F   UNL     1      13.948   4.886   1.385  0.00  0.00    -0.166 F 
ATOM     16  F   UNL     1      14.840   3.777   3.172  0.00  0.00    -0.166 F 
ENDBRANCH  10  13
ENDBRANCH   5   7
ENDBRANCH   1   3
BRANCH   1  17
ATOM     17  N   UNL     1       6.194   0.090   1.141  0.00  0.00    -0.333 N 
ATOM     18  H   UNL     1       6.687   0.020   0.308  0.00  0.00    +0.147 HD
BRANCH  17  26
ATOM     19  C   UNL     1      -0.011   1.550  -0.010  0.00  0.00    +0.062 C 
ATOM     20  C   UNL     1       0.003   0.020  -0.011  0.00  0.00    +0.256 C 
ATOM     21  C   UNL     1       0.708  -0.475  -1.248  0.00  0.00    +0.258 C 
ATOM     22  O   UNL     1       0.076  -0.706  -2.257  0.00  0.00    -0.271 OA
ATOM     23  N   UNL     1       2.045  -0.661  -1.227  0.00  0.00    -0.279 N 
ATOM     24  C   UNL     1       2.747  -0.420  -0.038  0.00  0.00    +0.077 A 
ATOM     25  C   UNL     1       4.125  -0.284  -0.046  0.00  0.00    +0.050 A 
ATOM     26  C   UNL     1       4.802  -0.048   1.144  0.00  0.00    +0.030 A 
ATOM     27  C   UNL     1       4.097   0.052   2.336  0.00  0.00    +0.026 A 
ATOM     28  C   UNL     1       2.721  -0.083   2.344  0.00  0.00    +0.049 A 
ATOM     29  C   UNL     1       2.043  -0.318   1.161  0.00  0.00    +0.143 A 
ATOM     30  O   UNL     1       0.689  -0.450   1.153  0.00  0.00    -0.478 OA
ATOM     31  H   UNL     1       2.514  -0.956  -2.024  0.00  0.00    +0.155 HD
ENDBRANCH  17  26
ENDBRANCH   1  17
TORSDOF 5
