REMARK  Name = ZINC39573940
REMARK  3 active torsions:
REMARK  status: ('A' for Active; 'I' for Inactive)
REMARK    1  A    between atoms: C_3  and  C_8
REMARK    2  A    between atoms: N_9  and  N_10
REMARK    3  A    between atoms: C_11  and  C_13
REMARK                            x       y       z     vdW  Elec       q    Type
REMARK                         _______ _______ _______ _____ _____    ______ ____
ROOT
ATOM      1  N   UNL     1       5.990   2.239  -0.044  0.00  0.00    -0.205 N 
ATOM      2  C   UNL     1       7.165   1.579  -0.059  0.00  0.00    +0.263 C 
ATOM      3  O   UNL     1       7.179   0.366  -0.065  0.00  0.00    -0.271 OA
ATOM      4  H   UNL     1       5.979   3.209  -0.039  0.00  0.00    +0.177 HD
ENDROOT
BRANCH   2   5
ATOM      5  C   UNL     1       8.462   2.347  -0.067  0.00  0.00    +0.243 C 
ATOM      6  C   UNL     1       8.815   2.787  -1.473  0.00  0.00    -0.012 C 
ATOM      7  C   UNL     1       9.975   2.186  -1.735  0.00  0.00    +0.065 C 
ATOM      8  C   UNL     1      10.441   2.553  -3.132  0.00  0.00    +0.057 C 
ATOM      9  C   UNL     1       9.189   3.118  -3.839  0.00  0.00    +0.011 C 
ATOM     10  C   UNL     1       8.354   3.621  -2.640  0.00  0.00    +0.035 C 
ATOM     11  N   UNL     1      10.362   1.440  -0.664  0.00  0.00    -0.158 NA
ATOM     12  N   UNL     1       9.589   1.473   0.299  0.00  0.00    -0.170 NA
ENDBRANCH   2   5
BRANCH   1  14
ATOM     13  C   UNL     1       3.654   2.160  -0.022  0.00  0.00    +0.138 C 
ATOM     14  N   UNL     1       4.785   1.524  -0.036  0.00  0.00    -0.188 NA
BRANCH  13  17
ATOM     15  C   UNL     1      -0.017   1.379   0.010  0.00  0.00    +0.002 A 
ATOM     16  C   UNL     1       1.167   2.089   0.002  0.00  0.00    +0.009 A 
ATOM     17  C   UNL     1       2.386   1.408  -0.013  0.00  0.00    -0.004 A 
ATOM     18  C   UNL     1       2.398   0.011  -0.021  0.00  0.00    +0.029 A 
ATOM     19  C   UNL     1       1.207  -0.687  -0.013  0.00  0.00    +0.042 A 
ATOM     20  C   UNL     1       0.002  -0.004   0.002  0.00  0.00    +0.020 A 
ATOM     21 CL   UNL     1       1.220  -2.422  -0.023  0.00  0.00    -0.084 Cl
ENDBRANCH  13  17
ENDBRANCH   1  14
TORSDOF 3
