REMARK  Name = ZINC63221887
REMARK  10 active torsions:
REMARK  status: ('A' for Active; 'I' for Inactive)
REMARK    1  A    between atoms: C_1  and  N_2
REMARK    2  A    between atoms: N_2  and  C_3
REMARK    3  A    between atoms: N_2  and  C_4
REMARK    4  A    between atoms: C_7  and  C_10
REMARK    5  A    between atoms: C_10  and  C_12
REMARK    6  A    between atoms: C_10  and  C_29
REMARK    7  A    between atoms: C_12  and  N_13
REMARK    8  A    between atoms: N_13  and  C_14
REMARK    9  A    between atoms: N_17  and  C_22
REMARK   10  A    between atoms: C_22  and  C_23
REMARK                            x       y       z     vdW  Elec       q    Type
REMARK                         _______ _______ _______ _____ _____    ______ ____
ROOT
ATOM      1  C   UNL     1      -4.870  -2.906   0.033  0.00  0.00    +0.064 C 
ENDROOT
BRANCH   1   2
ATOM      2  C   UNL     1      -5.673  -2.551  -1.191  0.00  0.00    -0.033 C 
ATOM      3  C   UNL     1      -6.091  -3.394  -2.163  0.00  0.00    -0.000 A 
ATOM      4  C   UNL     1      -5.926  -4.839  -2.364  0.00  0.00    +0.010 A 
ATOM      5  C   UNL     1      -6.470  -5.415  -3.460  0.00  0.00    +0.001 A 
ATOM      6  C   UNL     1      -7.184  -4.668  -4.407  0.00  0.00    +0.002 A 
ATOM      7  C   UNL     1      -7.377  -3.337  -4.292  0.00  0.00    +0.026 A 
ATOM      8  C   UNL     1      -6.849  -2.628  -3.178  0.00  0.00    +0.043 A 
ATOM      9  N   UNL     1      -6.899  -1.361  -2.846  0.00  0.00    -0.380 N 
ATOM     10  C   UNL     1      -6.182  -1.180  -1.579  0.00  0.00    +0.145 C 
ATOM     11  H   UNL     1      -7.340  -0.661  -3.352  0.00  0.00    +0.160 HD
ENDBRANCH   1   2
BRANCH   1  15
ATOM     12  C   UNL     1      -1.198  -0.719   0.010  0.00  0.00    +0.029 A 
ATOM     13  C   UNL     1      -1.181  -2.108   0.008  0.00  0.00    +0.023 A 
ATOM     14  C   UNL     1      -2.369  -2.812   0.016  0.00  0.00    +0.006 A 
ATOM     15  C   UNL     1      -3.575  -2.135   0.025  0.00  0.00    -0.039 A 
ATOM     16  C   UNL     1      -3.596  -0.752   0.027  0.00  0.00    +0.006 A 
ATOM     17  C   UNL     1      -2.411  -0.042   0.025  0.00  0.00    +0.023 A 
BRANCH  12  19
ATOM     18  C   UNL     1      -0.018   1.461   0.010  0.00  0.00    +0.129 C 
ATOM     19  N   UNL     1       0.002  -0.004   0.002  0.00  0.00    -0.336 N 
ATOM     20  C   UNL     1       1.281  -0.719  -0.014  0.00  0.00    +0.129 C 
ENDBRANCH  12  19
ENDBRANCH   1  15
BRANCH   1  21
ATOM     21  C   UNL     1      -5.668  -2.549   1.288  0.00  0.00    +0.114 C 
BRANCH  21  22
ATOM     22  N   UNL     1      -6.869  -3.385   1.357  0.00  0.00    -0.340 N 
ATOM     23  H   UNL     1      -7.045  -4.039   0.663  0.00  0.00    +0.146 HD
BRANCH  22  24
ATOM     24  C   UNL     1      -7.753  -3.242   2.413  0.00  0.00    +0.071 A 
ATOM     25  C   UNL     1      -7.506  -2.288   3.424  0.00  0.00    +0.157 A 
ATOM     26  N   UNL     1      -8.337  -2.152   4.419  0.00  0.00    -0.174 NA
ATOM     27  N   UNL     1      -9.488  -2.941   4.512  0.00  0.00    -0.224 N 
ATOM     28  C   UNL     1      -9.763  -3.864   3.569  0.00  0.00    +0.288 A 
ATOM     29  O   UNL     1     -10.770  -4.550   3.656  0.00  0.00    -0.265 OA
ATOM     30  C   UNL     1      -8.889  -4.028   2.484  0.00  0.00    +0.129 A 
ATOM     31 CL   UNL     1      -9.224  -5.205   1.253  0.00  0.00    -0.076 Cl
BRANCH  27  32
ATOM     32  C   UNL     1     -10.402  -2.764   5.643  0.00  0.00    +0.182 C 
BRANCH  32  33
ATOM     33  C   UNL     1      -9.989  -3.675   6.770  0.00  0.00    -0.026 A 
ATOM     34  C   UNL     1     -10.503  -4.956   6.847  0.00  0.00    +0.005 A 
ATOM     35  C   UNL     1     -10.124  -5.792   7.881  0.00  0.00    +0.000 A 
ATOM     36  C   UNL     1      -9.231  -5.347   8.837  0.00  0.00    +0.000 A 
ATOM     37  C   UNL     1      -8.716  -4.066   8.760  0.00  0.00    +0.000 A 
ATOM     38  C   UNL     1      -9.091  -3.232   7.723  0.00  0.00    +0.005 A 
ENDBRANCH  32  33
ENDBRANCH  27  32
ENDBRANCH  22  24
ENDBRANCH  21  22
ENDBRANCH   1  21
TORSDOF 8
