REMARK  Name = ZINC09731724
REMARK  8 active torsions:
REMARK  status: ('A' for Active; 'I' for Inactive)
REMARK    1  A    between atoms: C_1  and  C_2
REMARK    2  A    between atoms: C_3  and  C_14
REMARK    3  A    between atoms: C_5  and  C_7
REMARK    4  A    between atoms: C_14  and  N_63
REMARK    5  A    between atoms: C_17  and  C_20
REMARK    6  A    between atoms: N_22  and  C_23
REMARK    7  A    between atoms: C_23  and  C_24
REMARK    8  A    between atoms: C_24  and  C_25
REMARK                            x       y       z     vdW  Elec       q    Type
REMARK                         _______ _______ _______ _____ _____    ______ ____
ROOT
ATOM      1  C   UNL     1      -2.068   1.255   2.088  0.00  0.00    -0.078 C 
ATOM      2  C   UNL     1      -2.329   1.553   3.566  0.00  0.00    -0.006 C 
ATOM      3  C   UNL     1      -3.413   2.628   3.682  0.00  0.00    +0.071 C 
ATOM      4  C   UNL     1      -2.962   3.880   2.925  0.00  0.00    -0.006 C 
ATOM      5  C   UNL     1      -2.683   3.515   1.465  0.00  0.00    -0.078 C 
ATOM      6  N   UNL     1      -1.614   2.494   1.422  0.00  0.00    +0.383 N 
ATOM      7  H   UNL     1      -0.789   2.855   1.916  0.00  0.00    -0.081 HD
ENDROOT
BRANCH   3   8
ATOM      8  C   UNL     1      -3.633   2.969   5.133  0.00  0.00    +0.216 C 
ATOM      9  O   UNL     1      -3.446   4.101   5.526  0.00  0.00    -0.276 OA
ATOM     10  N   UNL     1      -4.035   2.014   5.996  0.00  0.00    -0.315 N 
ATOM     11  H   UNL     1      -4.184   1.109   5.683  0.00  0.00    +0.149 HD
BRANCH  10  12
ATOM     12  C   UNL     1      -4.248   2.345   7.407  0.00  0.00    +0.108 C 
BRANCH  12  13
ATOM     13  C   UNL     1      -4.699   1.093   8.162  0.00  0.00    +0.049 C 
BRANCH  13  14
ATOM     14  C   UNL     1      -4.918   1.434   9.614  0.00  0.00    -0.072 C 
ATOM     15  C   UNL     1      -6.120   1.733   9.992  0.00  0.00    -0.028 C 
ATOM     16  C   UNL     1      -6.490   2.102  11.399  0.00  0.00    +0.027 C 
ATOM     17  C   UNL     1      -5.386   1.670  12.366  0.00  0.00    +0.004 C 
ATOM     18  C   UNL     1      -4.042   2.167  11.820  0.00  0.00    +0.005 C 
ATOM     19  C   UNL     1      -3.732   1.399  10.531  0.00  0.00    +0.030 C 
ENDBRANCH  13  14
ENDBRANCH  12  13
ENDBRANCH  10  12
ENDBRANCH   3   8
BRANCH   6  20
ATOM     20  C   UNL     1      -1.246   2.208   0.020  0.00  0.00    -0.019 C 
BRANCH  20  23
ATOM     21  C   UNL     1       1.718   3.202   0.002  0.00  0.00    +0.088 C 
ATOM     22  C   UNL     1       1.259   1.767  -0.001  0.00  0.00    +0.124 A 
ATOM     23  C   UNL     1      -0.016   1.337   0.009  0.00  0.00    +0.066 A 
ATOM     24  N   UNL     1       0.002  -0.004   0.002  0.00  0.00    -0.216 NA
ATOM     25  C   UNL     1       1.251  -0.407  -0.012  0.00  0.00    +0.228 A 
ATOM     26  O   UNL     1       2.049   0.675  -0.014  0.00  0.00    -0.440 OA
BRANCH  25  27
ATOM     27  C   UNL     1       1.704  -1.813  -0.023  0.00  0.00    +0.037 A 
ATOM     28  C   UNL     1       0.770  -2.851  -0.013  0.00  0.00    +0.014 A 
ATOM     29  C   UNL     1       1.199  -4.161  -0.030  0.00  0.00    +0.021 A 
ATOM     30  C   UNL     1       2.554  -4.449  -0.044  0.00  0.00    +0.041 A 
ATOM     31  C   UNL     1       3.485  -3.425  -0.048  0.00  0.00    +0.021 A 
ATOM     32  C   UNL     1       3.068  -2.110  -0.038  0.00  0.00    +0.014 A 
ATOM     33 CL   UNL     1       3.086  -6.102  -0.058  0.00  0.00    -0.084 Cl
ENDBRANCH  25  27
ENDBRANCH  20  23
ENDBRANCH   6  20
TORSDOF 7
