REMARK  Name = ZINC63374223
REMARK  12 active torsions:
REMARK  status: ('A' for Active; 'I' for Inactive)
REMARK    1  A    between atoms: C_1  and  C_2
REMARK    2  A    between atoms: C_2  and  C_3
REMARK    3  A    between atoms: C_3  and  C_4
REMARK    4  A    between atoms: C_4  and  N_5
REMARK    5  A    between atoms: C_11  and  C_27
REMARK    6  A    between atoms: C_23  and  C_26
REMARK    7  A    between atoms: C_30  and  O_35
REMARK    8  A    between atoms: C_31  and  O_33
REMARK    9  A    between atoms: O_33  and  C_34
REMARK   10  A    between atoms: O_35  and  C_36
REMARK   11  A    between atoms: C_36  and  C_37
REMARK   12  A    between atoms: C_37  and  C_38
REMARK                            x       y       z     vdW  Elec       q    Type
REMARK                         _______ _______ _______ _____ _____    ______ ____
ROOT
ATOM      1  N   UNL     1       1.425  -2.500  -2.470  0.00  0.00    -0.291 N 
ATOM      2  C   UNL     1       0.632  -2.728  -3.667  0.00  0.00    +0.203 C 
ATOM      3  C   UNL     1       1.460  -3.226  -4.805  0.00  0.00    +0.234 C 
ATOM      4  O   UNL     1       0.895  -3.452  -5.854  0.00  0.00    -0.274 OA
ATOM      5  N   UNL     1       2.779  -3.443  -4.753  0.00  0.00    -0.283 N 
ATOM      6  C   UNL     1       3.443  -3.975  -5.958  0.00  0.00    +0.121 C 
ATOM      7  C   UNL     1       4.541  -2.996  -6.409  0.00  0.00    +0.065 C 
ATOM      8  C   UNL     1       5.320  -2.620  -5.174  0.00  0.00    -0.027 C 
ATOM      9  C   UNL     1       6.620  -2.640  -4.912  0.00  0.00    -0.000 A 
ATOM     10  C   UNL     1       7.787  -2.924  -5.762  0.00  0.00    +0.010 A 
ATOM     11  C   UNL     1       9.001  -2.877  -5.151  0.00  0.00    +0.001 A 
ATOM     12  C   UNL     1       9.168  -2.579  -3.795  0.00  0.00    +0.002 A 
ATOM     13  C   UNL     1       8.152  -2.296  -2.941  0.00  0.00    +0.026 A 
ATOM     14  C   UNL     1       6.829  -2.306  -3.470  0.00  0.00    +0.043 A 
ATOM     15  N   UNL     1       5.691  -2.051  -2.893  0.00  0.00    -0.375 N 
ATOM     16  C   UNL     1       4.635  -2.128  -3.903  0.00  0.00    +0.139 C 
ATOM     17  C   UNL     1       3.573  -3.175  -3.552  0.00  0.00    +0.135 C 
ATOM     18  C   UNL     1       2.741  -2.692  -2.412  0.00  0.00    +0.242 C 
ATOM     19  O   UNL     1       3.300  -2.464  -1.360  0.00  0.00    -0.273 OA
ATOM     20  C   UNL     1       4.275  -4.466  -3.126  0.00  0.00    +0.044 C 
ATOM     21  H   UNL     1       5.564  -1.845  -1.954  0.00  0.00    +0.160 HD
ENDROOT
BRANCH   7  22
ATOM     22  C   UNL     1       3.917  -1.768  -7.021  0.00  0.00    -0.035 A 
ATOM     23  C   UNL     1       3.068  -0.978  -6.269  0.00  0.00    +0.008 A 
ATOM     24  C   UNL     1       2.493   0.149  -6.825  0.00  0.00    +0.050 A 
ATOM     25  C   UNL     1       2.767   0.489  -8.140  0.00  0.00    +0.162 A 
ATOM     26  C   UNL     1       3.621  -0.306  -8.898  0.00  0.00    +0.162 A 
ATOM     27  C   UNL     1       4.198  -1.432  -8.332  0.00  0.00    +0.053 A 
BRANCH  26  28
ATOM     28  O   UNL     1       3.892   0.023 -10.189  0.00  0.00    -0.491 OA
ATOM     29  C   UNL     1       4.778  -0.840 -10.906  0.00  0.00    +0.277 C 
ENDBRANCH  26  28
BRANCH  25  30
ATOM     30  O   UNL     1       2.201   1.597  -8.690  0.00  0.00    -0.488 OA
BRANCH  30  31
ATOM     31  C   UNL     1       1.335   2.366  -7.853  0.00  0.00    +0.229 C 
BRANCH  31  32
ATOM     32  C   UNL     1       0.798   3.564  -8.639  0.00  0.00    +0.038 C 
ATOM     33  C   UNL     1      -0.130   4.387  -7.743  0.00  0.00    +0.007 C 
ENDBRANCH  31  32
ENDBRANCH  30  31
ENDBRANCH  25  30
ENDBRANCH   7  22
BRANCH   1  34
ATOM     34  C   UNL     1       0.739  -2.027  -1.265  0.00  0.00    +0.108 C 
BRANCH  34  35
ATOM     35  C   UNL     1       0.718  -0.497  -1.257  0.00  0.00    +0.019 C 
BRANCH  35  37
ATOM     36  C   UNL     1      -0.019   1.526   0.010  0.00  0.00    +0.004 C 
ATOM     37  C   UNL     1       0.002  -0.004   0.002  0.00  0.00    -0.002 C 
ENDBRANCH  35  37
ENDBRANCH  34  35
ENDBRANCH   1  34
TORSDOF 8
