REMARK  Name = ZINC20873025
REMARK  15 active torsions:
REMARK  status: ('A' for Active; 'I' for Inactive)
REMARK    1  A    between atoms: C_1  and  C_2
REMARK    2  A    between atoms: C_2  and  C_3
REMARK    3  A    between atoms: C_2  and  C_4
REMARK    4  A    between atoms: C_2  and  N_5
REMARK    5  A    between atoms: C_6  and  C_8
REMARK    6  A    between atoms: C_8  and  O_9
REMARK    7  A    between atoms: O_9  and  C_10
REMARK    8  A    between atoms: C_19  and  C_20
REMARK    9  A    between atoms: C_20  and  N_21
REMARK   10  A    between atoms: N_21  and  C_22
REMARK   11  A    between atoms: C_22  and  C_23
REMARK   12  A    between atoms: C_23  and  C_24
REMARK   13  A    between atoms: C_24  and  S_25
REMARK   14  A    between atoms: S_25  and  C_26
REMARK   15  A    between atoms: N_30  and  C_31
REMARK                            x       y       z     vdW  Elec       q    Type
REMARK                         _______ _______ _______ _____ _____    ______ ____
ROOT
ATOM      1  C   UNL     1       1.067   5.942   0.023  0.00  0.00    +0.123 A 
ATOM      2  C   UNL     1       2.292   5.268   0.007  0.00  0.00    +0.046 A 
ATOM      3  C   UNL     1       2.342   3.909   0.000  0.00  0.00    +0.012 A 
ATOM      4  C   UNL     1       1.148   3.167   0.008  0.00  0.00    -0.017 A 
ATOM      5  C   UNL     1       1.163   1.762   0.000  0.00  0.00    +0.008 A 
ATOM      6  C   UNL     1      -0.013   1.076   0.008  0.00  0.00    +0.001 A 
ATOM      7  C   UNL     1      -1.235   1.746   0.018  0.00  0.00    +0.001 A 
ATOM      8  C   UNL     1      -1.288   3.105   0.031  0.00  0.00    +0.009 A 
ATOM      9  C   UNL     1      -0.095   3.849   0.024  0.00  0.00    -0.013 A 
ATOM     10  C   UNL     1      -0.112   5.253   0.031  0.00  0.00    -0.015 A 
ENDROOT
BRANCH   1  11
ATOM     11  O   UNL     1       1.050   7.301   0.029  0.00  0.00    -0.483 OA
BRANCH  11  12
ATOM     12  C   UNL     1       2.315   7.966   0.020  0.00  0.00    +0.324 C 
BRANCH  12  14
ATOM     13  N   UNL     1       3.156  10.292   0.023  0.00  0.00    -0.308 N 
ATOM     14  C   UNL     1       2.098   9.457   0.029  0.00  0.00    +0.251 C 
ATOM     15  O   UNL     1       0.972   9.906   0.042  0.00  0.00    -0.272 OA
ATOM     16  H   UNL     1       4.178   9.885   0.012  0.00  0.00    +0.149 HD
BRANCH  13  18
ATOM     17  C   UNL     1       2.171  12.137   1.290  0.00  0.00    +0.031 C 
ATOM     18  C   UNL     1       2.946  11.742   0.032  0.00  0.00    +0.026 C 
ATOM     19  C   UNL     1       4.300  12.454   0.022  0.00  0.00    +0.031 C 
ATOM     20  C   UNL     1       2.147  12.149  -1.208  0.00  0.00    +0.031 C 
ENDBRANCH  13  18
ENDBRANCH  12  14
ENDBRANCH  11  12
ENDBRANCH   1  11
BRANCH  10  21
ATOM     21  C   UNL     1      -1.423   5.995   0.047  0.00  0.00    -0.042 C 
BRANCH  21  22
ATOM     22  N   UNL     1      -1.836   6.229   1.437  0.00  0.00    +0.382 N 
ATOM     23  H   UNL     1      -1.955   5.264   1.952  0.00  0.00    -0.085 HD
ATOM     24  H   UNL     1      -1.070   6.828   1.951  0.00  0.00    -0.085 HD
BRANCH  22  25
ATOM     25  C   UNL     1      -3.114   6.952   1.492  0.00  0.00    -0.081 C 
BRANCH  25  26
ATOM     26  C   UNL     1      -3.510   7.177   2.952  0.00  0.00    -0.008 C 
BRANCH  26  27
ATOM     27  C   UNL     1      -4.841   7.930   3.009  0.00  0.00    +0.075 C 
BRANCH  27  28
ATOM     28  S   UNL     1      -5.310   8.196   4.737  0.00  0.00    -0.085 S 
BRANCH  28  29
ATOM     29  C   UNL     1      -6.831   9.057   4.512  0.00  0.00    +0.209 A 
ATOM     30  N   UNL     1      -7.388   9.372   3.363  0.00  0.00    -0.102 NA
ATOM     31  N   UNL     1      -8.493   9.997   3.555  0.00  0.00    -0.022 NA
ATOM     32  N   UNL     1      -8.721  10.127   4.818  0.00  0.00    -0.043 NA
ATOM     33  N   UNL     1      -7.649   9.514   5.490  0.00  0.00    -0.223 N 
ATOM     34  C   UNL     1      -7.457   9.397   6.937  0.00  0.00    +0.177 C 
ENDBRANCH  28  29
ENDBRANCH  27  28
ENDBRANCH  26  27
ENDBRANCH  25  26
ENDBRANCH  22  25
ENDBRANCH  21  22
ENDBRANCH  10  21
TORSDOF 11
