REMARK  Name = ZINC12918811
REMARK  14 active torsions:
REMARK  status: ('A' for Active; 'I' for Inactive)
REMARK    1  A    between atoms: C_1  and  C_2
REMARK    2  A    between atoms: C_2  and  O_3
REMARK    3  A    between atoms: O_3  and  C_4
REMARK    4  A    between atoms: C_4  and  C_6
REMARK    5  A    between atoms: C_10  and  N_11
REMARK    6  A    between atoms: C_12  and  C_14
REMARK    7  A    between atoms: C_14  and  N_59
REMARK    8  A    between atoms: C_15  and  C_16
REMARK    9  A    between atoms: C_15  and  N_59
REMARK   10  A    between atoms: C_16  and  C_17
REMARK   11  A    between atoms: C_16  and  C_18
REMARK   12  A    between atoms: C_19  and  C_20
REMARK   13  A    between atoms: C_19  and  N_59
REMARK   14  A    between atoms: C_24  and  C_28
REMARK                            x       y       z     vdW  Elec       q    Type
REMARK                         _______ _______ _______ _____ _____    ______ ____
ROOT
ATOM      1  N   UNL     1       0.942   4.033  -2.208  0.00  0.00    -0.281 N 
ATOM      2  C   UNL     1       1.024   4.797  -3.315  0.00  0.00    +0.201 C 
ATOM      3  O   UNL     1       1.008   6.006  -3.220  0.00  0.00    -0.278 OA
ATOM      4  H   UNL     1       0.955   3.066  -2.284  0.00  0.00    +0.155 HD
ENDROOT
BRANCH   1   9
ATOM      5  C   UNL     1       0.745   4.018   0.283  0.00  0.00    +0.091 A 
ATOM      6  C   UNL     1       0.640   4.880   1.448  0.00  0.00    -0.021 A 
ATOM      7  C   UNL     1       0.657   6.205   1.187  0.00  0.00    -0.004 A 
ATOM      8  S   UNL     1       0.796   6.317  -0.575  0.00  0.00    -0.077 S 
ATOM      9  C   UNL     1       0.839   4.629  -0.961  0.00  0.00    +0.086 A 
ATOM     10  C   UNL     1       0.572   7.322   2.180  0.00  0.00    +0.046 C 
ATOM     11  C   UNL     1       0.829   6.749   3.579  0.00  0.00    -0.009 C 
ATOM     12  C   UNL     1      -0.018   5.486   3.764  0.00  0.00    +0.008 C 
ATOM     13  C   UNL     1       0.523   4.363   2.877  0.00  0.00    +0.037 C 
ATOM     14  C   UNL     1       0.444   7.784   4.638  0.00  0.00    +0.008 C 
BRANCH   5  15
ATOM     15  C   UNL     1       0.744   2.559   0.414  0.00  0.00    +0.342 C 
ATOM     16  O   UNL     1       1.794   1.961   0.552  0.00  0.00    -0.245 OA
BRANCH  15  17
ATOM     17  O   UNL     1      -0.420   1.879   0.382  0.00  0.00    -0.461 OA
BRANCH  17  19
ATOM     18  C   UNL     1      -1.754  -0.156   0.459  0.00  0.00    +0.048 C 
ATOM     19  C   UNL     1      -0.345   0.436   0.519  0.00  0.00    +0.229 C 
ENDBRANCH  17  19
ENDBRANCH  15  17
ENDBRANCH   5  15
ENDBRANCH   1   9
BRANCH   2  20
ATOM     20  C   UNL     1       1.136   4.149  -4.671  0.00  0.00    +0.020 C 
BRANCH  20  21
ATOM     21  N   UNL     1       1.189   5.207  -5.702  0.00  0.00    +0.391 N 
ATOM     22  H   UNL     1       0.401   5.849  -5.561  0.00  0.00    -0.080 HD
BRANCH  21  23
ATOM     23  C   UNL     1       1.083   4.605  -7.048  0.00  0.00    -0.075 C 
BRANCH  23  24
ATOM     24  C   UNL     1      -0.380   4.239  -7.308  0.00  0.00    -0.034 C 
ATOM     25  C   UNL     1      -1.226   5.514  -7.341  0.00  0.00    +0.005 C 
ATOM     26  C   UNL     1      -0.494   3.516  -8.651  0.00  0.00    +0.005 C 
ENDBRANCH  23  24
ENDBRANCH  21  23
BRANCH  21  27
ATOM     27  C   UNL     1       2.453   5.963  -5.585  0.00  0.00    +0.019 C 
BRANCH  27  28
ATOM     28  C   UNL     1       2.325   7.244  -6.370  0.00  0.00    +0.194 C 
ATOM     29  O   UNL     1       1.266   7.537  -6.884  0.00  0.00    -0.278 OA
ATOM     30  N   UNL     1       3.386   8.063  -6.500  0.00  0.00    -0.331 N 
ATOM     31  H   UNL     1       4.233   7.829  -6.090  0.00  0.00    +0.145 HD
ATOM     32  H   UNL     1       3.304   8.887  -7.005  0.00  0.00    +0.145 HD
ENDBRANCH  27  28
ENDBRANCH  21  27
ENDBRANCH  20  21
ENDBRANCH   2  20
TORSDOF 10
