REMARK  Name = ZINC63472956
REMARK  8 active torsions:
REMARK  status: ('A' for Active; 'I' for Inactive)
REMARK    1  A    between atoms: C_1  and  C_2
REMARK    2  A    between atoms: C_2  and  C_3
REMARK    3  A    between atoms: C_6  and  N_9
REMARK    4  A    between atoms: C_14  and  C_35
REMARK    5  A    between atoms: C_17  and  C_22
REMARK    6  A    between atoms: C_17  and  C_32
REMARK    7  A    between atoms: C_22  and  C_23
REMARK    8  A    between atoms: C_40  and  O_41
REMARK                            x       y       z     vdW  Elec       q    Type
REMARK                         _______ _______ _______ _____ _____    ______ ____
ROOT
ATOM      1  N   UNL     1       2.757  -1.837   4.726  0.00  0.00    -0.210 N 
ATOM      2  C   UNL     1       4.121  -1.967   4.810  0.00  0.00    +0.229 C 
ATOM      3  O   UNL     1       4.956  -1.529   4.048  0.00  0.00    -0.275 OA
ATOM      4  C   UNL     1       4.340  -2.744   6.008  0.00  0.00    +0.077 C 
ATOM      5  C   UNL     1       5.407  -3.062   6.967  0.00  0.00    -0.023 C 
ATOM      6  N   UNL     1       4.680  -3.572   8.176  0.00  0.00    +0.396 N 
ATOM      7  C   UNL     1       3.211  -3.415   7.918  0.00  0.00    +0.052 C 
ATOM      8  C   UNL     1       3.181  -2.216   6.946  0.00  0.00    +0.086 C 
ATOM      9  C   UNL     1       2.120  -2.191   5.880  0.00  0.00    +0.229 C 
ATOM     10  O   UNL     1       0.941  -2.438   6.019  0.00  0.00    -0.275 OA
ATOM     11  H   UNL     1       4.899  -4.546   8.321  0.00  0.00    -0.083 HD
ATOM     12  H   UNL     1       4.945  -3.035   8.987  0.00  0.00    -0.083 HD
ENDROOT
BRANCH   1  16
ATOM     13  C   UNL     1       0.775  -0.487   1.316  0.00  0.00    -0.048 A 
ATOM     14  C   UNL     1       2.153  -0.594   1.315  0.00  0.00    +0.005 A 
ATOM     15  C   UNL     1       2.813  -1.041   2.444  0.00  0.00    +0.024 A 
ATOM     16  C   UNL     1       2.091  -1.382   3.579  0.00  0.00    +0.044 A 
ATOM     17  C   UNL     1       0.707  -1.273   3.577  0.00  0.00    +0.024 A 
ATOM     18  C   UNL     1       0.053  -0.821   2.447  0.00  0.00    +0.005 A 
BRANCH  13  20
ATOM     19  C   UNL     1      -0.073   1.525   0.139  0.00  0.00    +0.009 C 
ATOM     20  C   UNL     1       0.058   0.001   0.084  0.00  0.00    +0.032 C 
ENDBRANCH  13  20
ENDBRANCH   1  16
BRANCH   5  21
ATOM     21  C   UNL     1       6.196  -1.823   7.308  0.00  0.00    -0.019 A 
ATOM     22  C   UNL     1       5.833  -1.050   8.394  0.00  0.00    +0.005 A 
ATOM     23  C   UNL     1       6.556   0.087   8.706  0.00  0.00    +0.000 A 
ATOM     24  C   UNL     1       7.643   0.452   7.934  0.00  0.00    +0.004 A 
ATOM     25  C   UNL     1       8.009  -0.318   6.847  0.00  0.00    +0.045 A 
ATOM     26  C   UNL     1       7.289  -1.462   6.534  0.00  0.00    +0.118 A 
BRANCH  26  27
ATOM     27  O   UNL     1       7.651  -2.224   5.469  0.00  0.00    -0.507 OA
ATOM     28  H   UNL     1       7.228  -1.966   4.639  0.00  0.00    +0.292 HD
ENDBRANCH  26  27
ENDBRANCH   5  21
BRANCH   7  29
ATOM     29  C   UNL     1       2.479  -3.078   9.191  0.00  0.00    +0.347 C 
ATOM     30  O   UNL     1       3.090  -2.996  10.243  0.00  0.00    -0.248 OA
ATOM     31  O   UNL     1       1.275  -2.886   9.170  0.00  0.00    -0.248 OA
ENDBRANCH   7  29
BRANCH   7  32
ATOM     32  C   UNL     1       2.634  -4.679   7.278  0.00  0.00    +0.033 C 
BRANCH  32  33
ATOM     33  C   UNL     1       2.744  -5.828   8.246  0.00  0.00    -0.042 C 
ATOM     34  C   UNL     1       1.800  -6.250   9.118  0.00  0.00    -0.001 A 
ATOM     35  C   UNL     1       0.440  -5.783   9.414  0.00  0.00    +0.010 A 
ATOM     36  C   UNL     1      -0.281  -6.422  10.363  0.00  0.00    +0.001 A 
ATOM     37  C   UNL     1       0.237  -7.516  11.069  0.00  0.00    +0.002 A 
ATOM     38  C   UNL     1       1.477  -8.003  10.854  0.00  0.00    +0.026 A 
ATOM     39  C   UNL     1       2.323  -7.408   9.877  0.00  0.00    +0.043 A 
ATOM     40  N   UNL     1       3.543  -7.691   9.491  0.00  0.00    -0.380 N 
ATOM     41  C   UNL     1       3.931  -6.747   8.437  0.00  0.00    +0.144 C 
ATOM     42  H   UNL     1       4.096  -8.407   9.840  0.00  0.00    +0.160 HD
ENDBRANCH  32  33
ENDBRANCH   7  32
TORSDOF 7
