REMARK  Name = ZINC11905253
REMARK  7 active torsions:
REMARK  status: ('A' for Active; 'I' for Inactive)
REMARK    1  A    between atoms: C_1  and  C_2
REMARK    2  A    between atoms: C_7  and  C_9
REMARK    3  A    between atoms: C_7  and  C_25
REMARK    4  A    between atoms: C_7  and  N_53
REMARK    5  A    between atoms: C_9  and  N_10
REMARK    6  A    between atoms: C_11  and  C_13
REMARK    7  A    between atoms: C_15  and  C_18
REMARK                            x       y       z     vdW  Elec       q    Type
REMARK                         _______ _______ _______ _____ _____    ______ ____
ROOT
ATOM      1  N   UNL     1       4.047  -0.855  -0.063  0.00  0.00    -0.311 N 
ATOM      2  C   UNL     1       3.496   0.374  -0.030  0.00  0.00    +0.266 C 
ATOM      3  O   UNL     1       4.207   1.357   0.036  0.00  0.00    -0.268 OA
ATOM      4  H   UNL     1       3.479  -1.640  -0.116  0.00  0.00    +0.149 HD
ENDROOT
BRANCH   2   5
ATOM      5  C   UNL     1       2.021   0.528  -0.076  0.00  0.00    +0.168 A 
ATOM      6  C   UNL     1       1.291   1.744  -0.050  0.00  0.00    +0.086 A 
ATOM      7  C   UNL     1      -0.015   1.343  -0.113  0.00  0.00    +0.168 A 
ATOM      8  O   UNL     1       0.004  -0.000  -0.169  0.00  0.00    -0.354 OA
ATOM      9  N   UNL     1       1.133  -0.433  -0.147  0.00  0.00    -0.073 NA
BRANCH   7  10
ATOM     10  C   UNL     1      -1.210   2.214  -0.124  0.00  0.00    +0.020 A 
ATOM     11  C   UNL     1      -1.067   3.600  -0.054  0.00  0.00    +0.013 A 
ATOM     12  C   UNL     1      -2.185   4.408  -0.070  0.00  0.00    +0.016 A 
ATOM     13  C   UNL     1      -3.448   3.844  -0.144  0.00  0.00    +0.018 A 
ATOM     14  C   UNL     1      -3.596   2.469  -0.208  0.00  0.00    +0.016 A 
ATOM     15  C   UNL     1      -2.485   1.652  -0.198  0.00  0.00    +0.013 A 
ATOM     16 BR   UNL     1      -4.976   4.958  -0.157  0.00  0.00    -0.050 Br
ENDBRANCH   7  10
ENDBRANCH   2   5
BRANCH   1  17
ATOM     17  C   UNL     1       5.503  -1.007  -0.018  0.00  0.00    +0.097 C 
BRANCH  17  18
ATOM     18  C   UNL     1       5.863  -2.493  -0.068  0.00  0.00    +0.016 C 
BRANCH  18  25
ATOM     19  C   UNL     1       4.030  -5.468   4.455  0.00  0.00    +0.007 C 
ATOM     20  C   UNL     1       4.922  -4.788   3.415  0.00  0.00    -0.018 C 
ATOM     21  C   UNL     1       4.620  -5.364   2.028  0.00  0.00    -0.015 C 
ATOM     22  C   UNL     1       5.471  -4.638   0.984  0.00  0.00    -0.078 C 
ATOM     23  C   UNL     1       5.493  -2.617   2.321  0.00  0.00    -0.078 C 
ATOM     24  C   UNL     1       4.642  -3.283   3.406  0.00  0.00    -0.015 C 
ATOM     25  N   UNL     1       5.138  -3.198   1.009  0.00  0.00    +0.387 N 
ATOM     26  H   UNL     1       4.128  -3.088   0.858  0.00  0.00    -0.081 HD
ENDBRANCH  18  25
BRANCH  18  27
ATOM     27  C   UNL     1       7.352  -2.655   0.101  0.00  0.00    +0.093 A 
ATOM     28  C   UNL     1       8.220  -3.005  -0.865  0.00  0.00    +0.043 A 
ATOM     29  C   UNL     1       9.502  -3.037  -0.271  0.00  0.00    +0.041 A 
ATOM     30  C   UNL     1       9.341  -2.706   1.023  0.00  0.00    +0.195 A 
ATOM     31  O   UNL     1       8.037  -2.470   1.241  0.00  0.00    -0.469 OA
ENDBRANCH  18  27
ENDBRANCH  17  18
ENDBRANCH   1  17
TORSDOF 6
