REMARK  Name = ZINC07185710
REMARK  5 active torsions:
REMARK  status: ('A' for Active; 'I' for Inactive)
REMARK    1  A    between atoms: C_1  and  C_2
REMARK    2  A    between atoms: C_2  and  C_4
REMARK    3  A    between atoms: C_2  and  N_13
REMARK    4  A    between atoms: C_14  and  C_16
REMARK    5  A    between atoms: C_16  and  N_17
REMARK                            x       y       z     vdW  Elec       q    Type
REMARK                         _______ _______ _______ _____ _____    ______ ____
ROOT
ATOM      1  N   UNL     1      -2.430   0.977   0.019  0.00  0.00    -0.215 N 
ATOM      2  C   UNL     1      -3.008   0.487  -1.097  0.00  0.00    +0.251 C 
ATOM      3  O   UNL     1      -2.727   0.752  -2.246  0.00  0.00    -0.272 OA
ATOM      4  C   UNL     1      -4.079  -0.466  -0.613  0.00  0.00    +0.138 C 
ATOM      5  C   UNL     1      -5.450   0.008  -1.079  0.00  0.00    +0.040 C 
ATOM      6  C   UNL     1      -6.482  -1.073  -0.735  0.00  0.00    +0.008 C 
ATOM      7  C   UNL     1      -6.223  -2.288  -1.624  0.00  0.00    +0.035 C 
ATOM      8  C   UNL     1      -4.777  -2.705  -1.546  0.00  0.00    -0.042 A 
ATOM      9  C   UNL     1      -3.789  -1.862  -1.086  0.00  0.00    -0.012 A 
ATOM     10  C   UNL     1      -2.472  -2.302  -1.050  0.00  0.00    +0.006 A 
ATOM     11  C   UNL     1      -2.148  -3.577  -1.467  0.00  0.00    +0.000 A 
ATOM     12  C   UNL     1      -3.140  -4.424  -1.925  0.00  0.00    +0.000 A 
ATOM     13  C   UNL     1      -4.449  -3.988  -1.964  0.00  0.00    +0.004 A 
ATOM     14  N   UNL     1      -3.982  -0.393   0.851  0.00  0.00    -0.281 N 
ATOM     15  C   UNL     1      -2.990   0.475   1.126  0.00  0.00    +0.310 C 
ATOM     16  O   UNL     1      -2.642   0.769   2.253  0.00  0.00    -0.252 OA
ATOM     17  H   UNL     1      -4.526  -0.875   1.494  0.00  0.00    +0.152 HD
ENDROOT
BRANCH   1  18
ATOM     18  C   UNL     1      -1.330   1.944   0.019  0.00  0.00    +0.213 C 
BRANCH  18  20
ATOM     19  N   UNL     1       1.143   1.898   0.001  0.00  0.00    -0.304 N 
ATOM     20  C   UNL     1      -0.014   1.209   0.009  0.00  0.00    +0.232 C 
ATOM     21  O   UNL     1       0.002  -0.004   0.002  0.00  0.00    -0.274 OA
ATOM     22  H   UNL     1       1.130   2.868   0.007  0.00  0.00    +0.149 HD
BRANCH  19  24
ATOM     23  C   UNL     1       2.792   0.832  -1.457  0.00  0.00    +0.036 C 
ATOM     24  C   UNL     1       2.422   1.183  -0.015  0.00  0.00    +0.136 C 
BRANCH  24  25
ATOM     25  C   UNL     1       3.495   2.058   0.580  0.00  0.00    +0.126 A 
ATOM     26  C   UNL     1       4.468   1.632   1.396  0.00  0.00    +0.055 A 
ATOM     27  C   UNL     1       5.275   2.813   1.724  0.00  0.00    +0.020 A 
ATOM     28  C   UNL     1       6.406   3.035   2.509  0.00  0.00    +0.011 A 
ATOM     29  C   UNL     1       6.926   4.295   2.607  0.00  0.00    +0.001 A 
ATOM     30  C   UNL     1       6.336   5.354   1.932  0.00  0.00    +0.004 A 
ATOM     31  C   UNL     1       5.217   5.154   1.151  0.00  0.00    +0.047 A 
ATOM     32  C   UNL     1       4.672   3.881   1.038  0.00  0.00    +0.135 A 
ATOM     33  O   UNL     1       3.617   3.380   0.365  0.00  0.00    -0.458 OA
ENDBRANCH  24  25
ENDBRANCH  19  24
ENDBRANCH  18  20
ENDBRANCH   1  18
TORSDOF 4
