REMARK  Name = ZINC19497593
REMARK  6 active torsions:
REMARK  status: ('A' for Active; 'I' for Inactive)
REMARK    1  A    between atoms: C_1  and  C_2
REMARK    2  A    between atoms: C_7  and  C_10
REMARK    3  A    between atoms: N_19  and  C_22
REMARK    4  A    between atoms: C_22  and  C_23
REMARK    5  A    between atoms: C_26  and  O_29
REMARK    6  A    between atoms: O_29  and  C_30
REMARK                            x       y       z     vdW  Elec       q    Type
REMARK                         _______ _______ _______ _____ _____    ______ ____
ROOT
ATOM      1  C   UNL     1      -6.065   2.667   0.325  0.00  0.00    +0.039 C 
ATOM      2  C   UNL     1      -4.958   3.703   0.121  0.00  0.00    +0.133 C 
ATOM      3  C   UNL     1      -3.594   3.011   0.170  0.00  0.00    +0.139 C 
ATOM      4  N   UNL     1      -2.533   4.021   0.051  0.00  0.00    -0.295 N 
ATOM      5  C   UNL     1      -2.634   5.013   1.131  0.00  0.00    +0.139 C 
ATOM      6  C   UNL     1      -4.008   5.685   1.073  0.00  0.00    +0.133 C 
ATOM      7  O   UNL     1      -5.027   4.685   1.159  0.00  0.00    -0.371 OA
ATOM      8  C   UNL     1      -4.149   6.446  -0.247  0.00  0.00    +0.039 C 
ATOM      9  C   UNL     1      -1.296   3.435   0.037  0.00  0.00    +0.221 A 
ATOM     10  N   UNL     1      -0.184   4.219   0.035  0.00  0.00    -0.175 NA
ATOM     11  C   UNL     1       1.036   3.643   0.019  0.00  0.00    +0.278 A 
ATOM     12  O   UNL     1       2.045   4.328   0.019  0.00  0.00    -0.265 OA
ATOM     13  C   UNL     1       1.125   2.236   0.003  0.00  0.00    +0.037 A 
ATOM     14  C   UNL     1      -0.018   1.502   0.010  0.00  0.00    +0.037 A 
ATOM     15  N   UNL     1      -1.202   2.122   0.031  0.00  0.00    -0.221 NA
ATOM     16  C   UNL     1       0.002  -0.004   0.002  0.00  0.00    -0.021 C 
ATOM     17  N   UNL     1       1.314  -0.498  -0.429  0.00  0.00    +0.386 N 
ATOM     18  C   UNL     1       2.380   0.123   0.373  0.00  0.00    -0.073 C 
ATOM     19  C   UNL     1       2.488   1.596  -0.023  0.00  0.00    +0.024 C 
ATOM     20  H   UNL     1       1.459  -0.218  -1.483  0.00  0.00    -0.081 HD
ENDROOT
BRANCH  17  21
ATOM     21  C   UNL     1       1.378  -1.963  -0.346  0.00  0.00    -0.042 C 
BRANCH  21  22
ATOM     22  C   UNL     1       1.291  -2.389   1.097  0.00  0.00    -0.064 A 
ATOM     23  C   UNL     1       2.445  -2.532   1.845  0.00  0.00    +0.005 A 
ATOM     24  C   UNL     1       2.368  -2.917   3.170  0.00  0.00    +0.046 A 
ATOM     25  C   UNL     1       1.132  -3.170   3.746  0.00  0.00    +0.130 A 
ATOM     26  C   UNL     1      -0.024  -3.031   2.992  0.00  0.00    +0.046 A 
ATOM     27  C   UNL     1       0.058  -2.641   1.669  0.00  0.00    +0.005 A 
BRANCH  25  28
ATOM     28  O   UNL     1       1.054  -3.553   5.048  0.00  0.00    -0.406 OA
BRANCH  28  29
ATOM     29  C   UNL     1       2.285  -3.676   5.763  0.00  0.00    +0.575 C 
ATOM     30  F   UNL     1       2.943  -2.441   5.774  0.00  0.00    -0.133 F 
ATOM     31  F   UNL     1       2.022  -4.076   7.077  0.00  0.00    -0.133 F 
ATOM     32  F   UNL     1       3.094  -4.630   5.138  0.00  0.00    -0.133 F 
ENDBRANCH  28  29
ENDBRANCH  25  28
ENDBRANCH  21  22
ENDBRANCH  17  21
TORSDOF 4
