REMARK  Name = ZINC12833027
REMARK  9 active torsions:
REMARK  status: ('A' for Active; 'I' for Inactive)
REMARK    1  A    between atoms: C_1  and  C_2
REMARK    2  A    between atoms: C_4  and  C_33
REMARK    3  A    between atoms: C_9  and  C_14
REMARK    4  A    between atoms: C_14  and  N_63
REMARK    5  A    between atoms: C_15  and  C_16
REMARK    6  A    between atoms: C_15  and  N_63
REMARK    7  A    between atoms: C_21  and  C_22
REMARK    8  A    between atoms: C_21  and  N_63
REMARK    9  A    between atoms: N_26  and  C_27
REMARK                            x       y       z     vdW  Elec       q    Type
REMARK                         _______ _______ _______ _____ _____    ______ ____
ROOT
ATOM      1  N   UNL     1      -1.350   7.875  -1.612  0.00  0.00    +0.390 N 
ATOM      2  H   UNL     1      -0.823   7.318  -2.295  0.00  0.00    -0.080 HD
ENDROOT
BRANCH   1   3
ATOM      3  C   UNL     1      -0.981   7.438  -0.249  0.00  0.00    -0.036 C 
BRANCH   3  12
ATOM      4  C   UNL     1       1.792   0.527  -0.654  0.00  0.00    +0.044 C 
ATOM      5  C   UNL     1       0.640   1.469  -0.418  0.00  0.00    -0.050 A 
ATOM      6  C   UNL     1      -0.613   0.958  -0.107  0.00  0.00    +0.008 A 
ATOM      7  C   UNL     1      -1.682   1.801   0.108  0.00  0.00    -0.026 A 
ATOM      8  C   UNL     1      -1.504   3.178   0.023  0.00  0.00    +0.052 A 
ATOM      9  C   UNL     1      -0.232   3.692  -0.293  0.00  0.00    -0.001 A 
ATOM     10  C   UNL     1       0.837   2.817  -0.512  0.00  0.00    +0.013 A 
ATOM     11  C   UNL     1      -0.056   5.142  -0.385  0.00  0.00    +0.017 A 
ATOM     12  C   UNL     1      -1.129   5.941  -0.162  0.00  0.00    +0.001 A 
ATOM     13  C   UNL     1      -2.383   5.375   0.152  0.00  0.00    +0.251 A 
ATOM     14  O   UNL     1      -3.334   6.111   0.350  0.00  0.00    -0.268 OA
ATOM     15  N   UNL     1      -2.554   4.044   0.239  0.00  0.00    -0.322 N 
ATOM     16  H   UNL     1      -3.430   3.688   0.458  0.00  0.00    +0.169 HD
ATOM     17  C   UNL     1      -3.038   1.233   0.439  0.00  0.00    +0.046 C 
ENDBRANCH   3  12
ENDBRANCH   1   3
BRANCH   1  18
ATOM     18  C   UNL     1      -2.796   7.665  -1.835  0.00  0.00    -0.035 C 
BRANCH  18  19
ATOM     19  C   UNL     1      -3.118   7.981  -3.273  0.00  0.00    -0.027 A 
ATOM     20  C   UNL     1      -2.995   7.191  -4.369  0.00  0.00    +0.009 A 
ATOM     21  C   UNL     1      -3.359   7.696  -5.603  0.00  0.00    +0.008 A 
ATOM     22  C   UNL     1      -3.817   8.969  -5.683  0.00  0.00    +0.045 A 
ATOM     23  S   UNL     1      -3.751   9.494  -3.978  0.00  0.00    -0.103 S 
ENDBRANCH  18  19
ENDBRANCH   1  18
BRANCH   1  24
ATOM     24  C   UNL     1      -1.012   9.302  -1.794  0.00  0.00    +0.001 C 
BRANCH  24  25
ATOM     25  C   UNL     1       0.484   9.435  -1.907  0.00  0.00    +0.135 A 
ATOM     26  N   UNL     1       1.318   9.745  -0.944  0.00  0.00    -0.115 NA
ATOM     27  N   UNL     1       2.508   9.756  -1.436  0.00  0.00    -0.023 NA
ATOM     28  N   UNL     1       2.455   9.469  -2.690  0.00  0.00    -0.044 NA
ATOM     29  N   UNL     1       1.224   9.264  -3.018  0.00  0.00    -0.228 N 
BRANCH  29  30
ATOM     30  C   UNL     1       0.726   8.913  -4.350  0.00  0.00    +0.111 C 
ATOM     31  C   UNL     1       1.269   7.540  -4.752  0.00  0.00    +0.027 C 
ATOM     32  C   UNL     1       0.748   7.173  -6.143  0.00  0.00    +0.002 C 
ATOM     33  C   UNL     1       1.214   8.222  -7.155  0.00  0.00    +0.000 C 
ATOM     34  C   UNL     1       0.671   9.595  -6.753  0.00  0.00    +0.002 C 
ATOM     35  C   UNL     1       1.191   9.962  -5.362  0.00  0.00    +0.027 C 
ENDBRANCH  29  30
ENDBRANCH  24  25
ENDBRANCH   1  24
TORSDOF 7
