REMARK  Name = ZINC39327990
REMARK  15 active torsions:
REMARK  status: ('A' for Active; 'I' for Inactive)
REMARK    1  A    between atoms: C_1  and  C_2
REMARK    2  A    between atoms: C_4  and  C_35
REMARK    3  A    between atoms: C_6  and  S_10
REMARK    4  A    between atoms: C_7  and  C_8
REMARK    5  A    between atoms: S_10  and  C_11
REMARK    6  A    between atoms: C_11  and  C_12
REMARK    7  A    between atoms: C_13  and  C_31
REMARK    8  A    between atoms: C_14  and  C_22
REMARK    9  A    between atoms: C_16  and  C_20
REMARK   10  A    between atoms: C_17  and  N_19
REMARK   11  A    between atoms: C_25  and  C_28
REMARK   12  A    between atoms: C_28  and  C_29
REMARK   13  A    between atoms: C_28  and  C_30
REMARK   14  A    between atoms: C_31  and  O_33
REMARK   15  A    between atoms: O_33  and  C_34
REMARK                            x       y       z     vdW  Elec       q    Type
REMARK                         _______ _______ _______ _____ _____    ______ ____
ROOT
ATOM      1  C   UNL     1       0.122  -5.866   3.158  0.00  0.00    +0.128 C 
ATOM      2  C   UNL     1      -1.047  -6.293   3.652  0.00  0.00    +0.088 C 
ATOM      3  C   UNL     1      -1.115  -7.050   4.949  0.00  0.00    +0.105 C 
ATOM      4  C   UNL     1       0.253  -7.557   5.320  0.00  0.00    +0.098 C 
ATOM      5  C   UNL     1       1.363  -7.055   4.727  0.00  0.00    +0.198 C 
ATOM      6  O   UNL     1       1.285  -6.095   3.788  0.00  0.00    -0.444 OA
ENDROOT
BRANCH   3   7
ATOM      7  C   UNL     1      -1.619  -6.136   6.036  0.00  0.00    -0.034 A 
ATOM      8  C   UNL     1      -0.920  -4.985   6.350  0.00  0.00    +0.005 A 
ATOM      9  C   UNL     1      -1.383  -4.146   7.347  0.00  0.00    +0.004 A 
ATOM     10  C   UNL     1      -2.543  -4.459   8.030  0.00  0.00    -0.045 A 
ATOM     11  C   UNL     1      -3.242  -5.609   7.716  0.00  0.00    +0.004 A 
ATOM     12  C   UNL     1      -2.782  -6.446   6.716  0.00  0.00    +0.005 A 
BRANCH  10  13
ATOM     13  C   UNL     1      -3.047  -3.545   9.118  0.00  0.00    +0.013 C 
ATOM     14  C   UNL     1      -4.444  -3.040   8.754  0.00  0.00    +0.012 C 
ATOM     15  C   UNL     1      -3.110  -4.312  10.440  0.00  0.00    +0.012 C 
ENDBRANCH  10  13
ENDBRANCH   3   7
BRANCH   5  16
ATOM     16  N   UNL     1       2.595  -7.539   5.089  0.00  0.00    -0.328 N 
ATOM     17  H   UNL     1       2.664  -8.234   5.763  0.00  0.00    +0.145 HD
ATOM     18  H   UNL     1       3.397  -7.188   4.672  0.00  0.00    +0.145 HD
ENDBRANCH   5  16
BRANCH   4  19
ATOM     19  C   UNL     1       0.383  -8.582   6.311  0.00  0.00    +0.101 C 
ATOM     20  N   UNL     1       0.486  -9.395   7.098  0.00  0.00    -0.191 NA
ENDBRANCH   4  19
BRANCH   2  21
ATOM     21  C   UNL     1      -2.242  -6.027   2.939  0.00  0.00    +0.339 C 
ATOM     22  O   UNL     1      -2.752  -6.897   2.260  0.00  0.00    -0.245 OA
BRANCH  21  23
ATOM     23  O   UNL     1      -2.814  -4.807   3.013  0.00  0.00    -0.465 OA
ATOM     24  C   UNL     1      -4.017  -4.608   2.268  0.00  0.00    +0.280 C 
ENDBRANCH  21  23
ENDBRANCH   2  21
BRANCH   1  25
ATOM     25  C   UNL     1       0.134  -5.112   1.853  0.00  0.00    +0.150 C 
BRANCH  25  26
ATOM     26  S   UNL     1       0.393  -3.346   2.179  0.00  0.00    -0.097 S 
BRANCH  26  32
ATOM     27  C   UNL     1       0.729   0.820  -1.037  0.00  0.00    +0.045 C 
ATOM     28  C   UNL     1       0.544  -0.662  -0.840  0.00  0.00    -0.029 A 
ATOM     29  C   UNL     1       0.357  -1.504  -1.923  0.00  0.00    +0.027 A 
ATOM     30  C   UNL     1       0.190  -2.861  -1.711  0.00  0.00    +0.040 A 
ATOM     31  N   UNL     1       0.206  -3.370  -0.494  0.00  0.00    -0.244 NA
ATOM     32  C   UNL     1       0.381  -2.611   0.577  0.00  0.00    +0.115 A 
ATOM     33  C   UNL     1       0.563  -1.223   0.442  0.00  0.00    +0.086 A 
ATOM     34  C   UNL     1      -0.014  -3.774  -2.892  0.00  0.00    +0.065 C 
BRANCH  33  35
ATOM     35  C   UNL     1       0.758  -0.398   1.596  0.00  0.00    +0.102 C 
ATOM     36  N   UNL     1       0.914   0.257   2.512  0.00  0.00    -0.191 NA
ENDBRANCH  33  35
ENDBRANCH  26  32
ENDBRANCH  25  26
ENDBRANCH   1  25
TORSDOF 10
