REMARK  Name = ZINC63588952
REMARK  9 active torsions:
REMARK  status: ('A' for Active; 'I' for Inactive)
REMARK    1  A    between atoms: C_1  and  C_2
REMARK    2  A    between atoms: C_2  and  O_3
REMARK    3  A    between atoms: O_3  and  C_4
REMARK    4  A    between atoms: C_9  and  N_10
REMARK    5  A    between atoms: N_12  and  C_13
REMARK    6  A    between atoms: C_13  and  C_14
REMARK    7  A    between atoms: C_14  and  C_15
REMARK    8  A    between atoms: N_24  and  C_25
REMARK    9  A    between atoms: C_25  and  C_27
REMARK                            x       y       z     vdW  Elec       q    Type
REMARK                         _______ _______ _______ _____ _____    ______ ____
ROOT
ATOM      1  N   UNL     1       3.378  -2.022  -3.652  0.00  0.00    -0.325 N 
ATOM      2  C   UNL     1       3.158  -2.139  -4.994  0.00  0.00    +0.194 C 
ATOM      3  N   UNL     1       3.050  -1.020  -5.767  0.00  0.00    -0.357 N 
ATOM      4  N   UNL     1       3.049  -3.338  -5.546  0.00  0.00    -0.143 NA
ATOM      5  H   UNL     1       2.842  -1.101  -6.711  0.00  0.00    +0.162 HD
ATOM      6  H   UNL     1       4.248  -2.240  -3.283  0.00  0.00    +0.169 HD
ENDROOT
BRANCH   1  12
ATOM      7  C   UNL     1       2.608  -1.327  -1.465  0.00  0.00    +0.144 A 
ATOM      8  C   UNL     1       1.586  -0.892  -0.637  0.00  0.00    +0.048 A 
ATOM      9  C   UNL     1       0.310  -0.724  -1.142  0.00  0.00    +0.004 A 
ATOM     10  C   UNL     1       0.050  -0.989  -2.474  0.00  0.00    +0.002 A 
ATOM     11  C   UNL     1       1.063  -1.423  -3.307  0.00  0.00    +0.029 A 
ATOM     12  C   UNL     1       2.347  -1.588  -2.808  0.00  0.00    +0.084 A 
BRANCH   7  13
ATOM     13  O   UNL     1       3.863  -1.493  -0.969  0.00  0.00    -0.490 OA
BRANCH  13  15
ATOM     14  C   UNL     1       5.520  -1.449   0.789  0.00  0.00    +0.048 C 
ATOM     15  C   UNL     1       4.056  -1.206   0.417  0.00  0.00    +0.226 C 
ENDBRANCH  13  15
ENDBRANCH   7  13
ENDBRANCH   1  12
BRANCH   4  16
ATOM     16  C   UNL     1       2.965  -4.427  -4.770  0.00  0.00    +0.270 C 
ATOM     17  O   UNL     1       2.865  -4.308  -3.562  0.00  0.00    -0.268 OA
BRANCH  16  18
ATOM     18  C   UNL     1       2.994  -5.775  -5.381  0.00  0.00    +0.039 A 
ATOM     19  C   UNL     1       3.227  -5.919  -6.750  0.00  0.00    +0.014 A 
ATOM     20  C   UNL     1       3.254  -7.177  -7.314  0.00  0.00    +0.021 A 
ATOM     21  C   UNL     1       3.049  -8.297  -6.525  0.00  0.00    +0.041 A 
ATOM     22  C   UNL     1       2.816  -8.160  -5.166  0.00  0.00    +0.021 A 
ATOM     23  C   UNL     1       2.793  -6.907  -4.591  0.00  0.00    +0.014 A 
ATOM     24 CL   UNL     1       3.083  -9.877  -7.241  0.00  0.00    -0.084 Cl
ENDBRANCH  16  18
ENDBRANCH   4  16
BRANCH   3  25
ATOM     25  C   UNL     1       3.247   0.304  -5.171  0.00  0.00    +0.120 C 
BRANCH  25  26
ATOM     26  C   UNL     1       3.022   1.381  -6.235  0.00  0.00    +0.054 C 
BRANCH  26  27
ATOM     27  C   UNL     1       3.339   2.735  -5.654  0.00  0.00    -0.040 C 
ATOM     28  C   UNL     1       4.559   3.310  -5.552  0.00  0.00    -0.001 A 
ATOM     29  C   UNL     1       5.904   2.864  -5.936  0.00  0.00    +0.010 A 
ATOM     30  C   UNL     1       6.957   3.679  -5.701  0.00  0.00    +0.001 A 
ATOM     31  C   UNL     1       6.797   4.936  -5.101  0.00  0.00    +0.002 A 
ATOM     32  C   UNL     1       5.594   5.415  -4.721  0.00  0.00    +0.026 A 
ATOM     33  C   UNL     1       4.417   4.641  -4.921  0.00  0.00    +0.043 A 
ATOM     34  N   UNL     1       3.158   4.880  -4.644  0.00  0.00    -0.380 N 
ATOM     35  C   UNL     1       2.358   3.728  -5.074  0.00  0.00    +0.144 C 
ATOM     36  H   UNL     1       2.813   5.685  -4.228  0.00  0.00    +0.160 HD
ENDBRANCH  26  27
ENDBRANCH  25  26
ENDBRANCH   3  25
TORSDOF 8
