REMARK  Name = ZINC09320061
REMARK  6 active torsions:
REMARK  status: ('A' for Active; 'I' for Inactive)
REMARK    1  A    between atoms: C_1  and  O_2
REMARK    2  A    between atoms: O_2  and  C_3
REMARK    3  A    between atoms: C_6  and  C_9
REMARK    4  A    between atoms: C_9  and  N_10
REMARK    5  A    between atoms: C_16  and  S_17
REMARK    6  A    between atoms: C_21  and  N_53
REMARK                            x       y       z     vdW  Elec       q    Type
REMARK                         _______ _______ _______ _____ _____    ______ ____
ROOT
ATOM      1  N   UNL     1      -1.910   0.793  -1.383  0.00  0.00    -0.304 N 
ATOM      2  C   UNL     1      -0.790   1.498  -1.009  0.00  0.00    +0.106 A 
ATOM      3  C   UNL     1      -0.485   2.643  -1.675  0.00  0.00    +0.040 A 
ATOM      4  C   UNL     1      -1.331   3.076  -2.718  0.00  0.00    +0.277 A 
ATOM      5  O   UNL     1      -1.078   4.106  -3.325  0.00  0.00    -0.265 OA
ATOM      6  N   UNL     1      -2.415   2.354  -3.041  0.00  0.00    -0.185 NA
ATOM      7  C   UNL     1      -2.700   1.242  -2.396  0.00  0.00    +0.171 A 
ATOM      8  C   UNL     1       0.732   3.461  -1.330  0.00  0.00    -0.031 C 
ATOM      9  C   UNL     1       1.334   1.567   0.022  0.00  0.00    +0.028 C 
ATOM     10  N   UNL     1      -0.024   1.017   0.023  0.00  0.00    -0.347 N 
ATOM     11  H   UNL     1      -0.006   0.008   0.019  0.00  0.00    +0.145 HD
ATOM     12  N   UNL     1       1.235   3.038  -0.011  0.00  0.00    +0.395 N 
ATOM     13  H   UNL     1       0.579   3.348   0.716  0.00  0.00    -0.079 HD
ENDROOT
BRANCH  12  14
ATOM     14  C   UNL     1       2.562   3.645   0.246  0.00  0.00    -0.066 C 
ATOM     15  C   UNL     1       2.459   5.164   0.095  0.00  0.00    -0.015 C 
ATOM     16  C   UNL     1       3.823   5.798   0.374  0.00  0.00    -0.002 C 
ATOM     17  C   UNL     1       4.851   5.255  -0.621  0.00  0.00    -0.000 C 
ATOM     18  C   UNL     1       4.954   3.736  -0.469  0.00  0.00    -0.002 C 
ATOM     19  C   UNL     1       3.590   3.102  -0.749  0.00  0.00    -0.015 C 
ENDBRANCH  12  14
BRANCH   7  20
ATOM     20  S   UNL     1      -4.131   0.320  -2.851  0.00  0.00    -0.105 S 
ATOM     21  H   UNL     1      -5.086   0.916  -2.003  0.00  0.00    +0.110 HD
ENDBRANCH   7  20
BRANCH   1  22
ATOM     22  C   UNL     1      -2.255  -0.449  -0.686  0.00  0.00    +0.160 C 
BRANCH  22  26
ATOM     23  C   UNL     1      -4.468   0.470   2.852  0.00  0.00    +0.120 A 
ATOM     24  C   UNL     1      -5.132   0.256   1.653  0.00  0.00    +0.046 A 
ATOM     25  C   UNL     1      -4.414  -0.041   0.511  0.00  0.00    +0.009 A 
ATOM     26  C   UNL     1      -3.035  -0.125   0.561  0.00  0.00    -0.027 A 
ATOM     27  C   UNL     1      -2.371   0.083   1.756  0.00  0.00    +0.009 A 
ATOM     28  C   UNL     1      -3.084   0.386   2.900  0.00  0.00    +0.046 A 
BRANCH  23  30
ATOM     29  C   UNL     1      -4.421   0.972   5.176  0.00  0.00    +0.277 C 
ATOM     30  O   UNL     1      -5.171   0.763   3.977  0.00  0.00    -0.495 OA
ENDBRANCH  23  30
ENDBRANCH  22  26
ENDBRANCH   1  22
TORSDOF 5
