REMARK  Name = ZINC65266039
REMARK  7 active torsions:
REMARK  status: ('A' for Active; 'I' for Inactive)
REMARK    1  A    between atoms: C_1  and  C_2
REMARK    2  A    between atoms: C_7  and  S_8
REMARK    3  A    between atoms: S_8  and  N_11
REMARK    4  A    between atoms: N_26  and  C_27
REMARK    5  A    between atoms: C_27  and  C_28
REMARK    6  A    between atoms: C_27  and  C_29
REMARK    7  A    between atoms: C_27  and  C_30
REMARK                            x       y       z     vdW  Elec       q    Type
REMARK                         _______ _______ _______ _____ _____    ______ ____
ROOT
ATOM      1  N   UNL     1       1.864   0.974   2.911  0.00  0.00    -0.174 NA
ATOM      2  C   UNL     1       3.292   0.623   2.866  0.00  0.00    +0.112 C 
ATOM      3  C   UNL     1       4.071   1.908   2.503  0.00  0.00    +0.048 C 
ATOM      4  C   UNL     1       2.993   2.786   1.846  0.00  0.00    +0.089 C 
ATOM      5  C   UNL     1       1.719   2.413   2.612  0.00  0.00    +0.139 C 
ATOM      6  C   UNL     1       3.311   4.238   1.948  0.00  0.00    +0.095 C 
ATOM      7  N   UNL     1       2.792   5.050   0.969  0.00  0.00    -0.303 N 
ATOM      8  C   UNL     1       3.532   5.263  -0.190  0.00  0.00    +0.037 A 
ATOM      9  C   UNL     1       3.660   6.545  -0.706  0.00  0.00    +0.023 A 
ATOM     10  C   UNL     1       4.381   6.758  -1.864  0.00  0.00    +0.002 A 
ATOM     11  C   UNL     1       4.972   5.684  -2.504  0.00  0.00    +0.000 A 
ATOM     12  C   UNL     1       4.849   4.412  -1.989  0.00  0.00    +0.007 A 
ATOM     13  C   UNL     1       4.134   4.180  -0.818  0.00  0.00    -0.012 A 
ATOM     14  C   UNL     1       4.089   2.759  -0.319  0.00  0.00    +0.119 C 
ATOM     15  N   UNL     1       2.852   2.453   0.411  0.00  0.00    -0.299 NA
ATOM     16  N   UNL     1       4.036   4.710   2.909  0.00  0.00    -0.370 N 
ATOM     17  H   UNL     1       2.589   1.486   0.289  0.00  0.00    +0.123 HD
ATOM     18  H   UNL     1       4.295   4.137   3.648  0.00  0.00    +0.161 HD
ATOM     19  H   UNL     1       1.924   5.468   1.083  0.00  0.00    +0.153 HD
ENDROOT
BRANCH  16  20
ATOM     20  C   UNL     1       4.466   6.110   2.883  0.00  0.00    +0.031 C 
ATOM     21  C   UNL     1       3.249   7.014   2.672  0.00  0.00    +0.033 C 
ATOM     22  C   UNL     1       5.138   6.463   4.212  0.00  0.00    +0.033 C 
ATOM     23  C   UNL     1       5.460   6.317   1.739  0.00  0.00    +0.033 C 
ENDBRANCH  16  20
BRANCH   1  24
ATOM     24  S   UNL     1       0.623  -0.073   3.237  0.00  0.00    +0.061 S 
ATOM     25  O   UNL     1      -0.516   0.725   3.530  0.00  0.00    -0.153 OA
ATOM     26  O   UNL     1       1.133  -1.036   4.149  0.00  0.00    -0.153 OA
BRANCH  24  33
ATOM     27  C   UNL     1      -0.468   1.238   0.740  0.00  0.00    +0.046 C 
ATOM     28  C   UNL     1      -0.234  -0.248   0.651  0.00  0.00    -0.024 A 
ATOM     29  C   UNL     1      -0.511  -0.922  -0.524  0.00  0.00    +0.008 A 
ATOM     30  C   UNL     1      -0.296  -2.284  -0.607  0.00  0.00    +0.039 A 
ATOM     31  C   UNL     1       0.197  -2.975   0.488  0.00  0.00    +0.125 A 
ATOM     32  C   UNL     1       0.474  -2.299   1.664  0.00  0.00    +0.067 A 
ATOM     33  C   UNL     1       0.264  -0.935   1.742  0.00  0.00    +0.111 A 
ATOM     34  F   UNL     1       0.407  -4.307   0.408  0.00  0.00    -0.205 F 
ENDBRANCH  24  33
ENDBRANCH   1  24
TORSDOF 3
