REMARK  Name = ZINC59048696
REMARK  7 active torsions:
REMARK  status: ('A' for Active; 'I' for Inactive)
REMARK    1  A    between atoms: C_1  and  S_2
REMARK    2  A    between atoms: S_2  and  C_3
REMARK    3  A    between atoms: C_8  and  N_9
REMARK    4  A    between atoms: C_10  and  C_12
REMARK    5  A    between atoms: C_12  and  S_13
REMARK    6  A    between atoms: S_13  and  C_14
REMARK    7  A    between atoms: N_19  and  N_20
REMARK                            x       y       z     vdW  Elec       q    Type
REMARK                         _______ _______ _______ _____ _____    ______ ____
ROOT
ATOM      1  N   UNL     1       0.593  -2.769  -0.995  0.00  0.00    -0.284 N 
ATOM      2  C   UNL     1       0.706  -4.057  -1.376  0.00  0.00    +0.227 C 
ATOM      3  O   UNL     1       1.288  -4.336  -2.403  0.00  0.00    -0.275 OA
ATOM      4  H   UNL     1       0.199  -2.550  -0.136  0.00  0.00    +0.155 HD
ENDROOT
BRANCH   1  10
ATOM      5  C   UNL     1       1.415  -0.511  -1.304  0.00  0.00    +0.029 A 
ATOM      6  C   UNL     1       1.868   0.496  -2.145  0.00  0.00    +0.016 A 
ATOM      7  C   UNL     1       1.949   0.275  -3.507  0.00  0.00    +0.001 A 
ATOM      8  C   UNL     1       1.578  -0.948  -4.036  0.00  0.00    +0.002 A 
ATOM      9  C   UNL     1       1.125  -1.956  -3.206  0.00  0.00    +0.024 A 
ATOM     10  C   UNL     1       1.047  -1.746  -1.838  0.00  0.00    +0.047 A 
BRANCH   5  12
ATOM     11  C   UNL     1       1.883   1.477   0.638  0.00  0.00    +0.090 C 
ATOM     12  S   UNL     1       1.312  -0.232   0.432  0.00  0.00    -0.127 S 
ENDBRANCH   5  12
ENDBRANCH   1  10
BRANCH   2  13
ATOM     13  C   UNL     1       0.107  -5.149  -0.528  0.00  0.00    +0.172 C 
BRANCH  13  14
ATOM     14  S   UNL     1       0.424  -6.758  -1.303  0.00  0.00    -0.088 S 
BRANCH  14  15
ATOM     15  C   UNL     1      -0.328  -7.915  -0.206  0.00  0.00    +0.160 A 
ATOM     16  N   UNL     1      -0.981  -7.697   0.919  0.00  0.00    -0.133 NA
ATOM     17  N   UNL     1      -1.494  -8.758   1.629  0.00  0.00    -0.124 NA
ATOM     18  C   UNL     1      -1.330  -9.988   1.181  0.00  0.00    +0.196 A 
ATOM     19  S   UNL     1      -0.415  -9.695  -0.325  0.00  0.00    -0.023 S 
ATOM     20  N   UNL     1      -1.760 -11.190   1.732  0.00  0.00    -0.260 N 
ATOM     21  H   UNL     1      -1.562 -12.026   1.283  0.00  0.00    +0.168 HD
BRANCH  20  22
ATOM     22  N   UNL     1      -2.461 -11.192   2.904  0.00  0.00    -0.255 NA
ATOM     23  H   UNL     1      -3.284 -10.612   2.835  0.00  0.00    +0.140 HD
ATOM     24  H   UNL     1      -2.703 -12.132   3.178  0.00  0.00    +0.140 HD
ENDBRANCH  20  22
ENDBRANCH  14  15
ENDBRANCH  13  14
ENDBRANCH   2  13
TORSDOF 6
