REMARK  Name = ZINC06467909
REMARK  10 active torsions:
REMARK  status: ('A' for Active; 'I' for Inactive)
REMARK    1  A    between atoms: C_1  and  C_2
REMARK    2  A    between atoms: C_2  and  C_4
REMARK    3  A    between atoms: C_2  and  C_8
REMARK    4  A    between atoms: C_4  and  C_5
REMARK    5  A    between atoms: C_5  and  C_6
REMARK    6  A    between atoms: C_6  and  O_7
REMARK    7  A    between atoms: C_14  and  C_36
REMARK    8  A    between atoms: C_15  and  O_35
REMARK    9  A    between atoms: C_22  and  O_34
REMARK   10  A    between atoms: C_27  and  C_33
REMARK                            x       y       z     vdW  Elec       q    Type
REMARK                         _______ _______ _______ _____ _____    ______ ____
ROOT
ATOM      1  C   UNL     1      -4.664   4.629   6.051  0.00  0.00    +0.001 C 
ATOM      2  C   UNL     1      -6.139   4.879   5.642  0.00  0.00    +0.005 C 
ATOM      3  C   UNL     1      -6.153   5.003   4.094  0.00  0.00    +0.005 C 
ATOM      4  C   UNL     1      -4.759   4.507   3.677  0.00  0.00    +0.003 C 
ATOM      5  C   UNL     1      -3.867   5.061   4.805  0.00  0.00    +0.000 C 
ATOM      6  C   UNL     1      -2.454   4.554   4.710  0.00  0.00    +0.121 C 
ATOM      7  C   UNL     1      -2.014   4.406   3.245  0.00  0.00    +0.036 C 
ATOM      8  C   UNL     1      -2.817   5.306   2.321  0.00  0.00    +0.003 C 
ATOM      9  C   UNL     1      -4.289   4.894   2.307  0.00  0.00    +0.025 C 
ATOM     10  C   UNL     1      -5.135   5.971   1.637  0.00  0.00    +0.118 C 
ATOM     11  C   UNL     1      -4.415   6.454   0.365  0.00  0.00    +0.036 C 
ATOM     12  C   UNL     1      -3.447   5.365  -0.077  0.00  0.00    +0.005 C 
ATOM     13  C   UNL     1      -2.268   5.277   0.894  0.00  0.00    -0.025 C 
ATOM     14  C   UNL     1      -1.474   4.009   0.606  0.00  0.00    +0.015 C 
ATOM     15  C   UNL     1      -0.901   4.068  -0.815  0.00  0.00    +0.075 C 
ATOM     16  C   UNL     1      -1.982   4.425  -1.805  0.00  0.00    +0.134 C 
ATOM     17  O   UNL     1      -2.087   3.805  -2.839  0.00  0.00    -0.297 OA
ATOM     18  C   UNL     1      -2.937   5.562  -1.500  0.00  0.00    +0.078 C 
ATOM     19  C   UNL     1      -1.356   6.495   0.730  0.00  0.00    +0.012 C 
ATOM     20  C   UNL     1      -3.870   6.600   4.823  0.00  0.00    +0.014 C 
ENDROOT
BRANCH   1  22
ATOM     21  C   UNL     1      -5.159   2.839   7.713  0.00  0.00    +0.008 C 
ATOM     22  C   UNL     1      -4.459   3.159   6.391  0.00  0.00    -0.010 C 
BRANCH  22  23
ATOM     23  C   UNL     1      -5.049   2.291   5.278  0.00  0.00    +0.006 C 
BRANCH  23  24
ATOM     24  C   UNL     1      -5.274   0.872   5.803  0.00  0.00    +0.028 C 
BRANCH  24  25
ATOM     25  C   UNL     1      -5.865   0.004   4.689  0.00  0.00    +0.156 C 
BRANCH  25  26
ATOM     26  O   UNL     1      -6.075  -1.322   5.180  0.00  0.00    -0.395 OA
ATOM     27  H   UNL     1      -6.449  -1.928   4.526  0.00  0.00    +0.209 HD
ENDBRANCH  25  26
ENDBRANCH  24  25
ENDBRANCH  23  24
ENDBRANCH  22  23
ENDBRANCH   1  22
BRANCH  10  28
ATOM     28  O   UNL     1      -6.405   5.428   1.270  0.00  0.00    -0.391 OA
ATOM     29  H   UNL     1      -6.989   6.059   0.827  0.00  0.00    +0.210 HD
ENDBRANCH  10  28
BRANCH   6  30
ATOM     30  O   UNL     1      -1.569   5.476   5.371  0.00  0.00    -0.391 OA
ATOM     31  H   UNL     1      -0.642   5.198   5.372  0.00  0.00    +0.210 HD
ENDBRANCH   6  30
TORSDOF 7
