REMARK  Name = ZINC09429004
REMARK  7 active torsions:
REMARK  status: ('A' for Active; 'I' for Inactive)
REMARK    1  A    between atoms: C_1  and  N_42
REMARK    2  A    between atoms: C_2  and  C_3
REMARK    3  A    between atoms: C_2  and  N_42
REMARK    4  A    between atoms: C_9  and  C_10
REMARK    5  A    between atoms: C_9  and  N_42
REMARK    6  A    between atoms: N_12  and  C_13
REMARK    7  A    between atoms: C_14  and  C_21
REMARK                            x       y       z     vdW  Elec       q    Type
REMARK                         _______ _______ _______ _____ _____    ______ ____
ROOT
ATOM      1  C   UNL     1       5.860  -1.566  -2.922  0.00  0.00    +0.201 C 
ATOM      2  O   UNL     1       5.078  -1.279  -3.803  0.00  0.00    -0.278 OA
ATOM      3  N   UNL     1       7.011  -2.199  -3.223  0.00  0.00    -0.281 N 
ATOM      4  H   UNL     1       7.637  -2.428  -2.518  0.00  0.00    +0.155 HD
ENDROOT
BRANCH   3   5
ATOM      5  C   UNL     1       7.302  -2.520  -4.540  0.00  0.00    +0.084 A 
ATOM      6  C   UNL     1       8.423  -3.157  -5.043  0.00  0.00    +0.068 A 
ATOM      7  C   UNL     1       8.483  -3.383  -6.487  0.00  0.00    -0.023 A 
ATOM      8  C   UNL     1       7.424  -2.929  -7.181  0.00  0.00    -0.004 A 
ATOM      9  S   UNL     1       6.353  -2.217  -5.956  0.00  0.00    -0.077 S 
ATOM     10  C   UNL     1       7.560  -3.195  -8.655  0.00  0.00    +0.043 C 
ATOM     11  C   UNL     1       8.662  -4.272  -8.757  0.00  0.00    +0.010 C 
ATOM     12  C   UNL     1       9.470  -4.017  -7.468  0.00  0.00    +0.037 C 
BRANCH   6  13
ATOM     13  C   UNL     1       9.510  -3.593  -4.160  0.00  0.00    +0.244 C 
ATOM     14  O   UNL     1       9.486  -4.707  -3.671  0.00  0.00    -0.270 OA
ATOM     15  N   UNL     1      10.534  -2.759  -3.890  0.00  0.00    -0.325 N 
ATOM     16  H   UNL     1      10.553  -1.871  -4.281  0.00  0.00    +0.145 HD
ATOM     17  H   UNL     1      11.253  -3.048  -3.306  0.00  0.00    +0.145 HD
ENDBRANCH   6  13
ENDBRANCH   3   5
BRANCH   1  18
ATOM     18  C   UNL     1       5.545  -1.217  -1.490  0.00  0.00    +0.019 C 
BRANCH  18  20
ATOM     19  C   UNL     1       4.295   0.765  -2.102  0.00  0.00    -0.095 C 
ATOM     20  N   UNL     1       4.224  -0.555  -1.441  0.00  0.00    +0.387 N 
ATOM     21  H   UNL     1       3.539  -1.139  -1.936  0.00  0.00    -0.081 HD
BRANCH  20  22
ATOM     22  C   UNL     1       3.792  -0.394  -0.037  0.00  0.00    -0.035 C 
BRANCH  22  23
ATOM     23  C   UNL     1       2.360   0.077  -0.020  0.00  0.00    -0.025 A 
ATOM     24  C   UNL     1       1.221  -0.657  -0.013  0.00  0.00    +0.011 A 
ATOM     25  C   UNL     1       0.002  -0.004   0.002  0.00  0.00    +0.028 A 
ATOM     26  C   UNL     1      -0.016   1.352   0.009  0.00  0.00    +0.078 A 
ATOM     27  S   UNL     1       1.725   1.745  -0.005  0.00  0.00    -0.084 S 
ATOM     28 CL   UNL     1      -1.379   2.427   0.022  0.00  0.00    -0.076 Cl
ENDBRANCH  22  23
ENDBRANCH  20  22
ENDBRANCH  18  20
ENDBRANCH   1  18
TORSDOF 6
