REMARK  Name = ZINC09356188
REMARK  8 active torsions:
REMARK  status: ('A' for Active; 'I' for Inactive)
REMARK    1  A    between atoms: C_3  and  S_23
REMARK    2  A    between atoms: C_6  and  C_7
REMARK    3  A    between atoms: C_7  and  C_8
REMARK    4  A    between atoms: C_8  and  N_44
REMARK    5  A    between atoms: C_9  and  C_10
REMARK    6  A    between atoms: C_9  and  N_44
REMARK    7  A    between atoms: C_13  and  C_15
REMARK    8  A    between atoms: S_23  and  N_26
REMARK                            x       y       z     vdW  Elec       q    Type
REMARK                         _______ _______ _______ _____ _____    ______ ____
ROOT
ATOM      1  N   UNL     1      -4.581   3.771  -2.330  0.00  0.00    +0.384 N 
ATOM      2  H   UNL     1      -4.331   4.697  -1.963  0.00  0.00    -0.085 HD
ATOM      3  H   UNL     1      -3.857   3.456  -2.987  0.00  0.00    -0.085 HD
ENDROOT
BRANCH   1   4
ATOM      4  C   UNL     1      -5.873   3.860  -3.037  0.00  0.00    -0.077 C 
BRANCH   4   5
ATOM      5  C   UNL     1      -5.747   4.859  -4.189  0.00  0.00    +0.016 C 
BRANCH   5  11
ATOM      6  C   UNL     1      -7.327   4.119  -5.984  0.00  0.00    +0.005 A 
ATOM      7  C   UNL     1      -8.536   4.205  -6.648  0.00  0.00    +0.029 A 
ATOM      8  C   UNL     1      -9.478   5.135  -6.250  0.00  0.00    +0.105 A 
ATOM      9  C   UNL     1      -9.213   5.975  -5.185  0.00  0.00    +0.029 A 
ATOM     10  C   UNL     1      -8.006   5.886  -4.518  0.00  0.00    +0.005 A 
ATOM     11  C   UNL     1      -7.063   4.956  -4.916  0.00  0.00    -0.049 A 
BRANCH   8  12
ATOM     12  S   UNL     1     -11.018   5.247  -7.099  0.00  0.00    +0.056 S 
ATOM     13  O   UNL     1     -11.238   3.983  -7.710  0.00  0.00    -0.153 OA
ATOM     14  O   UNL     1     -11.943   5.824  -6.188  0.00  0.00    -0.153 OA
BRANCH  12  15
ATOM     15  N   UNL     1     -10.820   6.339  -8.328  0.00  0.00    -0.204 NA
ATOM     16  H   UNL     1     -11.336   6.248  -9.145  0.00  0.00    +0.144 HD
ATOM     17  H   UNL     1     -10.189   7.069  -8.232  0.00  0.00    +0.144 HD
ENDBRANCH  12  15
ENDBRANCH   8  12
ENDBRANCH   5  11
ENDBRANCH   4   5
ENDBRANCH   1   4
BRANCH   1  18
ATOM     18  C   UNL     1      -4.673   2.813  -1.213  0.00  0.00    -0.007 C 
BRANCH  18  19
ATOM     19  C   UNL     1      -3.341   2.743  -0.511  0.00  0.00    +0.089 A 
ATOM     20  C   UNL     1      -2.957   3.516   0.523  0.00  0.00    +0.043 A 
ATOM     21  C   UNL     1      -1.649   3.120   0.870  0.00  0.00    +0.050 A 
ATOM     22  C   UNL     1      -1.305   2.117   0.020  0.00  0.00    +0.136 A 
ATOM     23  O   UNL     1      -2.339   1.902  -0.816  0.00  0.00    -0.462 OA
BRANCH  22  24
ATOM     24  C   UNL     1      -0.017   1.393   0.010  0.00  0.00    +0.036 A 
ATOM     25  C   UNL     1       1.186   2.101   0.002  0.00  0.00    +0.014 A 
ATOM     26  C   UNL     1       2.385   1.419  -0.013  0.00  0.00    +0.021 A 
ATOM     27  C   UNL     1       2.398   0.035  -0.021  0.00  0.00    +0.042 A 
ATOM     28  C   UNL     1       1.209  -0.675  -0.013  0.00  0.00    +0.040 A 
ATOM     29  C   UNL     1       0.002  -0.004   0.002  0.00  0.00    +0.053 A 
ATOM     30 CL   UNL     1      -1.488  -0.894   0.011  0.00  0.00    -0.083 Cl
ATOM     31 CL   UNL     1       3.911  -0.816  -0.039  0.00  0.00    -0.083 Cl
ENDBRANCH  22  24
ENDBRANCH  18  19
ENDBRANCH   1  18
TORSDOF 8
