REMARK  Name = ZINC21253809
REMARK  9 active torsions:
REMARK  status: ('A' for Active; 'I' for Inactive)
REMARK    1  A    between atoms: C_1  and  C_2
REMARK    2  A    between atoms: C_2  and  O_3
REMARK    3  A    between atoms: O_3  and  C_4
REMARK    4  A    between atoms: C_8  and  C_10
REMARK    5  A    between atoms: C_15  and  C_20
REMARK    6  A    between atoms: C_23  and  C_26
REMARK    7  A    between atoms: C_26  and  C_27
REMARK    8  A    between atoms: C_26  and  C_28
REMARK    9  A    between atoms: C_26  and  C_29
REMARK                            x       y       z     vdW  Elec       q    Type
REMARK                         _______ _______ _______ _____ _____    ______ ____
ROOT
ATOM      1  C   UNL     1      -2.619   2.370   2.570  0.00  0.00    +0.136 C 
ATOM      2  C   UNL     1      -2.144   1.846   1.235  0.00  0.00    +0.036 C 
ATOM      3  C   UNL     1      -2.903   1.671   0.141  0.00  0.00    +0.017 C 
ATOM      4  C   UNL     1      -2.295   1.110  -1.134  0.00  0.00    +0.059 C 
ATOM      5  C   UNL     1      -0.843   1.567  -1.262  0.00  0.00    +0.032 C 
ATOM      6  C   UNL     1      -0.080   1.044  -0.038  0.00  0.00    +0.088 C 
ATOM      7  C   UNL     1      -0.758   1.542   1.202  0.00  0.00    +0.163 C 
ATOM      8  O   UNL     1      -0.098   1.691   2.211  0.00  0.00    -0.292 OA
ATOM      9  N   UNL     1      -4.227   1.958   0.060  0.00  0.00    -0.316 N 
ATOM     10  C   UNL     1      -5.177   1.592   1.008  0.00  0.00    +0.052 A 
ATOM     11  C   UNL     1      -6.235   0.752   0.707  0.00  0.00    +0.025 A 
ATOM     12  C   UNL     1      -7.206   0.514   1.665  0.00  0.00    +0.002 A 
ATOM     13  C   UNL     1      -7.118   1.110   2.910  0.00  0.00    +0.002 A 
ATOM     14  C   UNL     1      -6.049   1.933   3.220  0.00  0.00    +0.025 A 
ATOM     15  C   UNL     1      -5.066   2.159   2.269  0.00  0.00    +0.049 A 
ATOM     16  N   UNL     1      -3.949   2.943   2.549  0.00  0.00    -0.331 N 
ATOM     17  H   UNL     1      -4.616   2.518  -0.802  0.00  0.00    +0.152 HD
ATOM     18  H   UNL     1      -4.089   4.014   2.756  0.00  0.00    +0.147 HD
ENDROOT
BRANCH   1  23
ATOM     19  C   UNL     1      -1.751   0.243   5.570  0.00  0.00    +0.121 A 
ATOM     20  C   UNL     1      -2.580  -0.853   5.379  0.00  0.00    +0.045 A 
ATOM     21  C   UNL     1      -3.417  -0.901   4.282  0.00  0.00    +0.004 A 
ATOM     22  C   UNL     1      -3.429   0.142   3.373  0.00  0.00    +0.006 A 
ATOM     23  C   UNL     1      -2.604   1.235   3.562  0.00  0.00    -0.019 A 
ATOM     24  C   UNL     1      -1.761   1.286   4.655  0.00  0.00    +0.051 A 
BRANCH  19  25
ATOM     25  O   UNL     1      -0.926   0.293   6.649  0.00  0.00    -0.492 OA
BRANCH  25  27
ATOM     26  C   UNL     1       0.025  -0.585   8.690  0.00  0.00    +0.048 C 
ATOM     27  C   UNL     1      -0.964  -0.819   7.546  0.00  0.00    +0.225 C 
ENDBRANCH  25  27
ENDBRANCH  19  25
ENDBRANCH   1  23
BRANCH   5  28
ATOM     28  C   UNL     1      -0.237   1.003  -2.521  0.00  0.00    -0.043 A 
ATOM     29  C   UNL     1      -0.194  -0.365  -2.714  0.00  0.00    +0.004 A 
ATOM     30  C   UNL     1       0.358  -0.882  -3.871  0.00  0.00    +0.004 A 
ATOM     31  C   UNL     1       0.875  -0.032  -4.830  0.00  0.00    -0.042 A 
ATOM     32  C   UNL     1       0.837   1.336  -4.635  0.00  0.00    +0.004 A 
ATOM     33  C   UNL     1       0.281   1.853  -3.480  0.00  0.00    +0.004 A 
BRANCH  31  34
ATOM     34  C   UNL     1       1.481  -0.596  -6.090  0.00  0.00    -0.013 C 
ATOM     35  C   UNL     1       2.947  -0.168  -6.187  0.00  0.00    +0.015 C 
ATOM     36  C   UNL     1       1.398  -2.124  -6.056  0.00  0.00    +0.015 C 
ATOM     37  C   UNL     1       0.714  -0.070  -7.305  0.00  0.00    +0.015 C 
ENDBRANCH  31  34
ENDBRANCH   5  28
TORSDOF 5
