REMARK  Name = ZINC32573447
REMARK  8 active torsions:
REMARK  status: ('A' for Active; 'I' for Inactive)
REMARK    1  A    between atoms: C_1  and  N_2
REMARK    2  A    between atoms: N_2  and  C_3
REMARK    3  A    between atoms: C_3  and  C_4
REMARK    4  A    between atoms: C_10  and  C_12
REMARK    5  A    between atoms: C_13  and  C_21
REMARK    6  A    between atoms: C_21  and  N_22
REMARK    7  A    between atoms: N_22  and  C_23
REMARK    8  A    between atoms: C_23  and  C_24
REMARK                            x       y       z     vdW  Elec       q    Type
REMARK                         _______ _______ _______ _____ _____    ______ ____
ROOT
ATOM      1  C   UNL     1      -0.124   0.068  -2.440  0.00  0.00    +0.146 A 
ATOM      2  C   UNL     1      -0.326  -0.474  -3.677  0.00  0.00    +0.039 A 
ATOM      3  N   UNL     1      -0.271   0.547  -4.576  0.00  0.00    -0.305 N 
ATOM      4  C   UNL     1      -0.403   0.585  -5.936  0.00  0.00    +0.093 A 
ATOM      5  C   UNL     1      -0.304   1.752  -6.604  0.00  0.00    +0.018 A 
ATOM      6  C   UNL     1      -0.063   2.950  -5.909  0.00  0.00    +0.005 A 
ATOM      7  C   UNL     1       0.071   2.929  -4.557  0.00  0.00    +0.047 A 
ATOM      8  C   UNL     1      -0.035   1.701  -3.870  0.00  0.00    +0.139 A 
ATOM      9  N   UNL     1       0.045   1.395  -2.586  0.00  0.00    -0.223 NA
ENDROOT
BRANCH   1  12
ATOM     10  C   UNL     1      -0.038   1.461   0.011  0.00  0.00    +0.132 C 
ATOM     11  N   UNL     1      -0.004  -0.004   0.002  0.00  0.00    -0.295 N 
ATOM     12  C   UNL     1      -0.102  -0.673  -1.163  0.00  0.00    +0.267 C 
ATOM     13  O   UNL     1      -0.171  -1.887  -1.163  0.00  0.00    -0.268 OA
BRANCH  11  14
ATOM     14  C   UNL     1       0.137  -0.741   1.261  0.00  0.00    +0.142 C 
BRANCH  14  15
ATOM     15  C   UNL     1      -1.229  -1.027   1.830  0.00  0.00    -0.030 A 
ATOM     16  C   UNL     1      -1.823  -0.122   2.689  0.00  0.00    +0.005 A 
ATOM     17  C   UNL     1      -3.076  -0.385   3.211  0.00  0.00    +0.000 A 
ATOM     18  C   UNL     1      -3.734  -1.553   2.875  0.00  0.00    +0.000 A 
ATOM     19  C   UNL     1      -3.140  -2.458   2.015  0.00  0.00    +0.000 A 
ATOM     20  C   UNL     1      -1.889  -2.193   1.489  0.00  0.00    +0.005 A 
ENDBRANCH  14  15
ENDBRANCH  11  14
ENDBRANCH   1  12
BRANCH   2  21
ATOM     21  C   UNL     1      -0.564  -1.929  -3.989  0.00  0.00    -0.025 C 
BRANCH  21  22
ATOM     22  N   UNL     1       0.723  -2.596  -4.228  0.00  0.00    +0.386 N 
ATOM     23  H   UNL     1       1.190  -2.157  -5.007  0.00  0.00    -0.085 HD
ATOM     24  H   UNL     1       1.300  -2.519  -3.404  0.00  0.00    -0.085 HD
BRANCH  22  25
ATOM     25  C   UNL     1       0.491  -4.014  -4.532  0.00  0.00    -0.026 C 
BRANCH  25  26
ATOM     26  C   UNL     1       1.811  -4.698  -4.777  0.00  0.00    +0.023 A 
ATOM     27  C   UNL     1       2.671  -5.138  -3.827  0.00  0.00    -0.006 A 
ATOM     28  C   UNL     1       3.771  -5.710  -4.474  0.00  0.00    +0.066 A 
ATOM     29  N   UNL     1       3.578  -5.617  -5.766  0.00  0.00    -0.178 NA
ATOM     30  N   UNL     1       2.346  -4.987  -5.981  0.00  0.00    -0.283 N 
ATOM     31  H   UNL     1       1.948  -4.792  -6.844  0.00  0.00    +0.188 HD
ATOM     32  C   UNL     1       4.756  -6.216  -3.443  0.00  0.00    +0.058 C 
ATOM     33  C   UNL     1       4.364  -5.510  -2.127  0.00  0.00    +0.011 C 
ATOM     34  C   UNL     1       2.860  -5.229  -2.329  0.00  0.00    +0.039 C 
ENDBRANCH  25  26
ENDBRANCH  22  25
ENDBRANCH  21  22
ENDBRANCH   2  21
TORSDOF 7
