REMARK  Name = ZINC04575627
REMARK  5 active torsions:
REMARK  status: ('A' for Active; 'I' for Inactive)
REMARK    1  A    between atoms: C_1  and  C_2
REMARK    2  A    between atoms: C_8  and  N_10
REMARK    3  A    between atoms: C_11  and  C_13
REMARK    4  A    between atoms: C_13  and  O_31
REMARK    5  A    between atoms: N_23  and  C_24
REMARK                            x       y       z     vdW  Elec       q    Type
REMARK                         _______ _______ _______ _____ _____    ______ ____
ROOT
ATOM      1  C   UNL     1       0.783  -2.278   2.993  0.00  0.00    +0.247 C 
ATOM      2  C   UNL     1       1.132  -2.753   1.601  0.00  0.00    +0.033 A 
ATOM      3  C   UNL     1       2.086  -2.111   0.845  0.00  0.00    +0.010 A 
ATOM      4  C   UNL     1       2.380  -2.575  -0.426  0.00  0.00    +0.001 A 
ATOM      5  C   UNL     1       1.719  -3.680  -0.930  0.00  0.00    +0.002 A 
ATOM      6  C   UNL     1       0.762  -4.327  -0.172  0.00  0.00    +0.024 A 
ATOM      7  C   UNL     1       0.463  -3.865   1.103  0.00  0.00    +0.043 A 
ATOM      8  N   UNL     1      -0.499  -4.505   1.885  0.00  0.00    -0.269 N 
ATOM      9  C   UNL     1      -0.822  -4.099   3.119  0.00  0.00    +0.314 C 
ATOM     10  O   UNL     1      -1.674  -4.717   3.729  0.00  0.00    -0.252 OA
ATOM     11  N   UNL     1      -0.249  -3.038   3.717  0.00  0.00    -0.214 N 
ATOM     12  H   UNL     1      -0.955  -5.278   1.518  0.00  0.00    +0.156 HD
ENDROOT
BRANCH  11  13
ATOM     13  C   UNL     1      -0.630  -2.663   5.011  0.00  0.00    +0.041 A 
ATOM     14  C   UNL     1       0.113  -3.086   6.105  0.00  0.00    +0.025 A 
ATOM     15  C   UNL     1      -0.262  -2.710   7.380  0.00  0.00    +0.022 A 
ATOM     16  C   UNL     1      -1.383  -1.921   7.568  0.00  0.00    +0.041 A 
ATOM     17  C   UNL     1      -2.128  -1.501   6.480  0.00  0.00    +0.022 A 
ATOM     18  C   UNL     1      -1.754  -1.871   5.202  0.00  0.00    +0.025 A 
ATOM     19 CL   UNL     1      -1.856  -1.456   9.172  0.00  0.00    -0.084 Cl
ENDBRANCH  11  13
BRANCH   1  21
ATOM     20  N   UNL     1      -0.846  -0.555   2.288  0.00  0.00    -0.308 N 
ATOM     21  C   UNL     1       0.323  -0.846   2.894  0.00  0.00    +0.269 C 
ATOM     22  O   UNL     1       1.003   0.043   3.359  0.00  0.00    -0.270 OA
ATOM     23  H   UNL     1      -1.389  -1.267   1.915  0.00  0.00    +0.149 HD
BRANCH  20  30
ATOM     24  C   UNL     1      -1.499   0.598  -0.288  0.00  0.00    +0.009 C 
ATOM     25  C   UNL     1      -2.236   0.987   0.995  0.00  0.00    +0.006 C 
ATOM     26  C   UNL     1      -2.705   2.440   0.894  0.00  0.00    +0.005 C 
ATOM     27  C   UNL     1      -3.442   2.828   2.178  0.00  0.00    +0.000 C 
ATOM     28  C   UNL     1      -2.499   2.678   3.373  0.00  0.00    +0.002 C 
ATOM     29  C   UNL     1      -2.031   1.225   3.474  0.00  0.00    +0.022 C 
ATOM     30  C   UNL     1      -1.294   0.836   2.191  0.00  0.00    +0.076 C 
ENDBRANCH  20  30
ENDBRANCH   1  21
BRANCH   1  31
ATOM     31  O   UNL     1       1.978  -2.299   3.778  0.00  0.00    -0.360 OA
ATOM     32  H   UNL     1       2.701  -1.775   3.407  0.00  0.00    +0.213 HD
ENDBRANCH   1  31
TORSDOF 4
