REMARK  Name = ZINC66243700
REMARK  6 active torsions:
REMARK  status: ('A' for Active; 'I' for Inactive)
REMARK    1  A    between atoms: C_1  and  C_2
REMARK    2  A    between atoms: C_5  and  C_8
REMARK    3  A    between atoms: C_8  and  C_10
REMARK    4  A    between atoms: C_8  and  N_21
REMARK    5  A    between atoms: C_10  and  N_11
REMARK    6  A    between atoms: N_14  and  C_15
REMARK                            x       y       z     vdW  Elec       q    Type
REMARK                         _______ _______ _______ _____ _____    ______ ____
ROOT
ATOM      1  C   UNL     1      -1.059  -4.962  -0.852  0.00  0.00    +0.139 C 
ENDROOT
BRANCH   1   2
ATOM      2  N   UNL     1      -0.899  -6.357  -0.436  0.00  0.00    -0.356 N 
ATOM      3  C   UNL     1      -1.945  -7.124  -0.310  0.00  0.00    +0.173 C 
ATOM      4  N   UNL     1      -3.200  -6.623  -0.567  0.00  0.00    -0.371 N 
ATOM      5  N   UNL     1      -1.794  -8.435   0.080  0.00  0.00    -0.328 N 
ATOM      6  H   UNL     1      -0.014  -6.711  -0.256  0.00  0.00    +0.162 HD
ATOM      7  H   UNL     1      -3.300  -5.802  -1.074  0.00  0.00    +0.159 HD
ATOM      8  H   UNL     1      -3.985  -7.090  -0.239  0.00  0.00    +0.159 HD
ATOM      9  H   UNL     1      -0.922  -8.764   0.348  0.00  0.00    +0.169 HD
BRANCH   5  10
ATOM     10  C   UNL     1      -2.899  -9.293   0.090  0.00  0.00    +0.042 A 
ATOM     11  C   UNL     1      -3.897  -9.154  -0.865  0.00  0.00    +0.026 A 
ATOM     12  C   UNL     1      -4.987 -10.003  -0.853  0.00  0.00    +0.002 A 
ATOM     13  C   UNL     1      -5.084 -10.991   0.110  0.00  0.00    +0.000 A 
ATOM     14  C   UNL     1      -4.092 -11.133   1.062  0.00  0.00    +0.002 A 
ATOM     15  C   UNL     1      -2.997 -10.291   1.052  0.00  0.00    +0.026 A 
ENDBRANCH   5  10
ENDBRANCH   1   2
BRANCH   1  16
ATOM     16  C   UNL     1       0.313  -4.289  -0.922  0.00  0.00    +0.106 C 
BRANCH  16  21
ATOM     17  C   UNL     1      -0.354   1.328  -2.101  0.00  0.00    +0.044 C 
ATOM     18  C   UNL     1      -0.180  -0.137  -1.794  0.00  0.00    -0.050 A 
ATOM     19  C   UNL     1       0.754  -0.883  -2.489  0.00  0.00    +0.003 A 
ATOM     20  C   UNL     1       0.913  -2.226  -2.206  0.00  0.00    +0.005 A 
ATOM     21  C   UNL     1       0.140  -2.824  -1.229  0.00  0.00    -0.029 A 
ATOM     22  C   UNL     1      -0.793  -2.078  -0.533  0.00  0.00    +0.005 A 
ATOM     23  C   UNL     1      -0.950  -0.733  -0.812  0.00  0.00    +0.003 A 
ENDBRANCH  16  21
BRANCH  16  24
ATOM     24  N   UNL     1       0.999  -4.441   0.368  0.00  0.00    -0.289 NA
ATOM     25  C   UNL     1       0.301  -3.699   1.427  0.00  0.00    +0.113 C 
ATOM     26  C   UNL     1       1.014  -3.932   2.762  0.00  0.00    +0.175 C 
ATOM     27  O   UNL     1       2.384  -3.542   2.640  0.00  0.00    -0.377 OA
ATOM     28  C   UNL     1       3.095  -4.246   1.618  0.00  0.00    +0.175 C 
ATOM     29  C   UNL     1       2.403  -4.015   0.272  0.00  0.00    +0.113 C 
ENDBRANCH  16  24
ENDBRANCH   1  16
TORSDOF 5
