REMARK  Name = ZINC36877667
REMARK  10 active torsions:
REMARK  status: ('A' for Active; 'I' for Inactive)
REMARK    1  A    between atoms: C_1  and  C_2
REMARK    2  A    between atoms: C_2  and  C_4
REMARK    3  A    between atoms: C_2  and  C_26
REMARK    4  A    between atoms: C_4  and  N_5
REMARK    5  A    between atoms: C_6  and  C_8
REMARK    6  A    between atoms: C_8  and  C_10
REMARK    7  A    between atoms: C_8  and  S_11
REMARK    8  A    between atoms: S_11  and  C_12
REMARK    9  A    between atoms: C_15  and  C_18
REMARK   10  A    between atoms: N_16  and  N_17
REMARK                            x       y       z     vdW  Elec       q    Type
REMARK                         _______ _______ _______ _____ _____    ______ ____
ROOT
ATOM      1  S   UNL     1      -5.487  -1.174   3.084  0.00  0.00    -0.072 S 
ENDROOT
BRANCH   1   2
ATOM      2  C   UNL     1      -5.986  -0.772   4.725  0.00  0.00    +0.209 A 
ATOM      3  N   UNL     1      -5.423   0.114   5.516  0.00  0.00    -0.121 NA
ATOM      4  N   UNL     1      -6.040   0.154   6.643  0.00  0.00    -0.127 NA
ATOM      5  C   UNL     1      -7.033  -0.704   6.641  0.00  0.00    +0.183 A 
ATOM      6  N   UNL     1      -7.033  -1.319   5.411  0.00  0.00    -0.224 N 
BRANCH   5   7
ATOM      7  C   UNL     1      -7.977  -0.957   7.750  0.00  0.00    +0.039 A 
ATOM      8  C   UNL     1      -8.267  -2.266   8.139  0.00  0.00    +0.014 A 
ATOM      9  C   UNL     1      -9.149  -2.496   9.174  0.00  0.00    +0.021 A 
ATOM     10  C   UNL     1      -9.746  -1.432   9.829  0.00  0.00    +0.042 A 
ATOM     11  C   UNL     1      -9.464  -0.131   9.448  0.00  0.00    +0.040 A 
ATOM     12  C   UNL     1      -8.579   0.113   8.417  0.00  0.00    +0.053 A 
ATOM     13 CL   UNL     1      -8.220   1.744   7.945  0.00  0.00    -0.083 Cl
ATOM     14 CL   UNL     1     -10.855  -1.730  11.130  0.00  0.00    -0.083 Cl
ENDBRANCH   5   7
BRANCH   6  15
ATOM     15  N   UNL     1      -7.897  -2.280   4.968  0.00  0.00    -0.295 N 
ATOM     16  H   UNL     1      -7.599  -3.198   5.262  0.00  0.00    +0.163 HD
ATOM     17  H   UNL     1      -8.839  -2.089   5.278  0.00  0.00    +0.163 HD
ENDBRANCH   6  15
ENDBRANCH   1   2
BRANCH   1  18
ATOM     18  C   UNL     1      -4.054  -0.102   2.786  0.00  0.00    +0.137 C 
ATOM     19  C   UNL     1      -4.501   1.361   2.795  0.00  0.00    +0.029 C 
BRANCH  18  21
ATOM     20  N   UNL     1      -2.147  -0.170   1.212  0.00  0.00    -0.314 N 
ATOM     21  C   UNL     1      -3.448  -0.434   1.447  0.00  0.00    +0.226 C 
ATOM     22  O   UNL     1      -4.130  -0.939   0.581  0.00  0.00    -0.275 OA
ATOM     23  H   UNL     1      -1.602   0.234   1.904  0.00  0.00    +0.149 HD
BRANCH  20  24
ATOM     24  C   UNL     1      -1.558  -0.493  -0.090  0.00  0.00    +0.112 C 
BRANCH  24  26
ATOM     25  C   UNL     1       0.038   1.425   0.038  0.00  0.00    +0.014 C 
ATOM     26  C   UNL     1      -0.081  -0.095  -0.094  0.00  0.00    +0.033 C 
BRANCH  26  27
ATOM     27  C   UNL     1       0.555  -0.538  -1.387  0.00  0.00    -0.043 A 
ATOM     28  C   UNL     1       0.081  -0.055  -2.592  0.00  0.00    +0.004 A 
ATOM     29  C   UNL     1       0.664  -0.461  -3.777  0.00  0.00    +0.000 A 
ATOM     30  C   UNL     1       1.722  -1.350  -3.758  0.00  0.00    +0.000 A 
ATOM     31  C   UNL     1       2.197  -1.833  -2.553  0.00  0.00    +0.000 A 
ATOM     32  C   UNL     1       1.617  -1.423  -1.367  0.00  0.00    +0.004 A 
ENDBRANCH  26  27
ENDBRANCH  24  26
ENDBRANCH  20  24
ENDBRANCH  18  21
ENDBRANCH   1  18
TORSDOF 8
