REMARK  Name = ZINC35226096
REMARK  8 active torsions:
REMARK  status: ('A' for Active; 'I' for Inactive)
REMARK    1  A    between atoms: C_1  and  C_2
REMARK    2  A    between atoms: C_2  and  C_3
REMARK    3  A    between atoms: C_8  and  N_9
REMARK    4  A    between atoms: C_10  and  C_12
REMARK    5  A    between atoms: C_12  and  N_13
REMARK    6  A    between atoms: C_15  and  C_22
REMARK    7  A    between atoms: C_25  and  C_27
REMARK    8  A    between atoms: C_27  and  N_28
REMARK                            x       y       z     vdW  Elec       q    Type
REMARK                         _______ _______ _______ _____ _____    ______ ____
ROOT
ATOM      1  N   UNL     1      -2.353  -0.595  -5.972  0.00  0.00    -0.337 N 
ATOM      2  C   UNL     1      -2.383  -1.787  -6.630  0.00  0.00    +0.100 A 
ATOM      3  C   UNL     1      -3.334  -1.753  -7.601  0.00  0.00    +0.064 A 
ATOM      4  C   UNL     1      -3.951  -0.416  -7.537  0.00  0.00    +0.012 A 
ATOM      5  C   UNL     1      -3.298   0.262  -6.494  0.00  0.00    +0.050 A 
ATOM      6  C   UNL     1      -3.674   1.566  -6.188  0.00  0.00    +0.026 A 
ATOM      7  C   UNL     1      -4.680   2.177  -6.904  0.00  0.00    +0.002 A 
ATOM      8  C   UNL     1      -5.326   1.505  -7.932  0.00  0.00    +0.001 A 
ATOM      9  C   UNL     1      -4.963   0.216  -8.256  0.00  0.00    +0.011 A 
ENDROOT
BRANCH   3  10
ATOM     10  C   UNL     1      -3.681  -2.841  -8.534  0.00  0.00    +0.250 A 
ATOM     11  N   UNL     1      -4.598  -2.799  -9.474  0.00  0.00    -0.107 NA
ATOM     12  N   UNL     1      -4.623  -3.926 -10.093  0.00  0.00    -0.114 NA
ATOM     13  C   UNL     1      -3.733  -4.726  -9.579  0.00  0.00    +0.202 A 
ATOM     14  O   UNL     1      -3.112  -4.062  -8.587  0.00  0.00    -0.422 OA
BRANCH  13  15
ATOM     15  C   UNL     1      -3.447  -6.139 -10.019  0.00  0.00    +0.021 C 
BRANCH  15  16
ATOM     16  N   UNL     1      -2.411  -6.127 -11.060  0.00  0.00    +0.386 N 
ATOM     17  C   UNL     1      -2.923  -5.436 -12.250  0.00  0.00    -0.078 C 
ATOM     18  C   UNL     1      -1.821  -5.349 -13.308  0.00  0.00    -0.019 C 
ATOM     19  C   UNL     1      -1.374  -6.764 -13.689  0.00  0.00    -0.004 C 
ATOM     20  C   UNL     1      -0.911  -7.500 -12.428  0.00  0.00    -0.019 C 
ATOM     21  C   UNL     1      -2.047  -7.507 -11.403  0.00  0.00    -0.078 C 
ATOM     22  H   UNL     1      -1.596  -5.641 -10.716  0.00  0.00    -0.081 HD
ENDBRANCH  15  16
ENDBRANCH  13  15
ENDBRANCH   3  10
BRANCH   1  23
ATOM     23  C   UNL     1      -1.451  -0.272  -4.864  0.00  0.00    +0.217 C 
BRANCH  23  25
ATOM     24  N   UNL     1      -1.505  -0.315  -2.391  0.00  0.00    -0.284 N 
ATOM     25  C   UNL     1      -2.147  -0.541  -3.555  0.00  0.00    +0.237 C 
ATOM     26  O   UNL     1      -3.285  -0.961  -3.548  0.00  0.00    -0.274 OA
ATOM     27  H   UNL     1      -0.620   0.082  -2.395  0.00  0.00    +0.155 HD
BRANCH  24  33
ATOM     28  C   UNL     1      -1.349  -1.119  -0.119  0.00  0.00    -0.026 A 
ATOM     29  C   UNL     1      -1.954  -1.445   1.079  0.00  0.00    +0.005 A 
ATOM     30  C   UNL     1      -3.322  -1.313   1.222  0.00  0.00    +0.000 A 
ATOM     31  C   UNL     1      -4.090  -0.854   0.168  0.00  0.00    +0.002 A 
ATOM     32  C   UNL     1      -3.491  -0.525  -1.033  0.00  0.00    +0.023 A 
ATOM     33  C   UNL     1      -2.116  -0.652  -1.178  0.00  0.00    +0.037 A 
BRANCH  28  35
ATOM     34  C   UNL     1       0.819   0.078   0.019  0.00  0.00    +0.009 C 
ATOM     35  C   UNL     1       0.143  -1.263  -0.275  0.00  0.00    +0.033 C 
ENDBRANCH  28  35
ENDBRANCH  24  33
ENDBRANCH  23  25
ENDBRANCH   1  23
TORSDOF 7
