REMARK  Name = ZINC64040341
REMARK  14 active torsions:
REMARK  status: ('A' for Active; 'I' for Inactive)
REMARK    1  A    between atoms: C_1  and  C_2
REMARK    2  A    between atoms: C_2  and  C_3
REMARK    3  A    between atoms: C_3  and  C_5
REMARK    4  A    between atoms: C_3  and  N_16
REMARK    5  A    between atoms: C_11  and  C_15
REMARK    6  A    between atoms: C_17  and  C_19
REMARK    7  A    between atoms: C_19  and  C_20
REMARK    8  A    between atoms: C_20  and  C_32
REMARK    9  A    between atoms: N_24  and  C_27
REMARK   10  A    between atoms: C_27  and  C_28
REMARK   11  A    between atoms: C_28  and  C_29
REMARK   12  A    between atoms: C_29  and  O_30
REMARK   13  A    between atoms: O_30  and  C_31
REMARK   14  A    between atoms: C_37  and  C_38
REMARK                            x       y       z     vdW  Elec       q    Type
REMARK                         _______ _______ _______ _____ _____    ______ ____
ROOT
ATOM      1  C   UNL     1       4.160   1.306  -1.642  0.00  0.00    +0.117 C 
ENDROOT
BRANCH   1   2
ATOM      2  C   UNL     1       4.173   2.743  -2.166  0.00  0.00    +0.089 C 
ATOM      3  C   UNL     1       3.069   3.578  -1.487  0.00  0.00    +0.117 C 
ATOM      4  C   UNL     1       2.183   3.999  -2.639  0.00  0.00    +0.223 C 
ATOM      5  O   UNL     1       1.184   4.678  -2.545  0.00  0.00    -0.275 OA
ATOM      6  N   UNL     1       2.678   3.502  -3.779  0.00  0.00    -0.241 N 
ATOM      7  C   UNL     1       3.796   2.779  -3.630  0.00  0.00    +0.233 C 
ATOM      8  O   UNL     1       4.408   2.240  -4.527  0.00  0.00    -0.274 OA
BRANCH   2   9
ATOM      9  C   UNL     1       5.526   3.372  -1.951  0.00  0.00    -0.029 A 
ATOM     10  C   UNL     1       6.249   3.842  -3.031  0.00  0.00    +0.005 A 
ATOM     11  C   UNL     1       7.490   4.418  -2.834  0.00  0.00    +0.000 A 
ATOM     12  C   UNL     1       8.007   4.526  -1.557  0.00  0.00    +0.000 A 
ATOM     13  C   UNL     1       7.284   4.057  -0.476  0.00  0.00    +0.003 A 
ATOM     14  C   UNL     1       6.041   3.484  -0.673  0.00  0.00    -0.046 A 
ATOM     15  C   UNL     1       5.250   2.977   0.505  0.00  0.00    +0.044 C 
ENDBRANCH   2   9
BRANCH   6  16
ATOM     16  C   UNL     1       2.049   3.729  -5.083  0.00  0.00    +0.118 C 
BRANCH  16  17
ATOM     17  C   UNL     1       2.623   5.000  -5.712  0.00  0.00    +0.047 C 
BRANCH  17  18
ATOM     18  C   UNL     1       1.966   5.237  -7.073  0.00  0.00    +0.161 C 
BRANCH  18  19
ATOM     19  O   UNL     1       2.503   6.424  -7.661  0.00  0.00    -0.383 OA
ATOM     20  C   UNL     1       1.953   6.738  -8.942  0.00  0.00    +0.193 C 
ENDBRANCH  18  19
ENDBRANCH  17  18
ENDBRANCH  16  17
ENDBRANCH   6  16
ENDBRANCH   1   2
BRANCH   1  22
ATOM     21  N   UNL     1       2.578  -0.594  -1.557  0.00  0.00    -0.309 N 
ATOM     22  C   UNL     1       2.821   0.678  -1.931  0.00  0.00    +0.215 C 
ATOM     23  O   UNL     1       1.962   1.317  -2.500  0.00  0.00    -0.276 OA
ATOM     24  H   UNL     1       3.265  -1.106  -1.102  0.00  0.00    +0.149 HD
BRANCH  21  25
ATOM     25  C   UNL     1       1.276  -1.205  -1.838  0.00  0.00    +0.115 C 
BRANCH  25  26
ATOM     26  C   UNL     1       1.431  -2.725  -1.910  0.00  0.00    +0.195 C 
ATOM     27  N   UNL     1       1.989  -3.235  -0.651  0.00  0.00    -0.362 N 
ATOM     28  C   UNL     1       3.120  -3.815  -0.932  0.00  0.00    +0.060 A 
ATOM     29  C   UNL     1       4.123  -4.501  -0.106  0.00  0.00    +0.027 A 
ATOM     30  C   UNL     1       5.224  -5.016  -0.688  0.00  0.00    +0.005 A 
ATOM     31  C   UNL     1       5.463  -4.926  -2.071  0.00  0.00    -0.048 A 
ATOM     32  C   UNL     1       4.609  -4.319  -2.918  0.00  0.00    +0.030 A 
ATOM     33  C   UNL     1       3.373  -3.720  -2.396  0.00  0.00    +0.060 A 
ATOM     34  N   UNL     1       2.387  -3.085  -2.964  0.00  0.00    -0.362 N 
ATOM     35  C   UNL     1       6.725  -5.534  -2.628  0.00  0.00    +0.044 C 
ATOM     36  H   UNL     1       1.588  -3.154   0.229  0.00  0.00    +0.162 HD
ATOM     37  H   UNL     1       2.300  -2.887  -3.910  0.00  0.00    +0.162 HD
ENDBRANCH  25  26
BRANCH  25  39
ATOM     38  C   UNL     1       0.043   0.665  -0.732  0.00  0.00    +0.006 C 
ATOM     39  C   UNL     1       0.293  -0.844  -0.723  0.00  0.00    +0.023 C 
ENDBRANCH  25  39
ENDBRANCH  21  25
ENDBRANCH   1  22
TORSDOF 10
