REMARK  Name = ZINC25401127
REMARK  7 active torsions:
REMARK  status: ('A' for Active; 'I' for Inactive)
REMARK    1  A    between atoms: C_1  and  C_2
REMARK    2  A    between atoms: C_3  and  N_14
REMARK    3  A    between atoms: C_4  and  C_13
REMARK    4  A    between atoms: N_5  and  C_7
REMARK    5  A    between atoms: C_15  and  C_17
REMARK    6  A    between atoms: C_17  and  N_18
REMARK    7  A    between atoms: C_26  and  C_29
REMARK                            x       y       z     vdW  Elec       q    Type
REMARK                         _______ _______ _______ _____ _____    ______ ____
ROOT
ATOM      1  C   UNL     1      -3.548   2.706   0.264  0.00  0.00    +0.019 C 
ENDROOT
BRANCH   1   2
ATOM      2  N   UNL     1      -4.765   1.910   0.474  0.00  0.00    +0.389 N 
ATOM      3  C   UNL     1      -5.002   1.004  -0.654  0.00  0.00    -0.042 C 
ATOM      4  C   UNL     1      -6.302   0.265  -0.474  0.00  0.00    -0.060 A 
ATOM      5  C   UNL     1      -6.522  -0.879  -1.227  0.00  0.00    +0.002 A 
ATOM      6  C   UNL     1      -7.702  -1.583  -1.099  0.00  0.00    +0.000 A 
ATOM      7  C   UNL     1      -8.672  -1.146  -0.216  0.00  0.00    +0.000 A 
ATOM      8  C   UNL     1      -8.454  -0.009   0.536  0.00  0.00    +0.004 A 
ATOM      9  C   UNL     1      -7.268   0.698   0.409  0.00  0.00    -0.040 A 
ATOM     10  C   UNL     1      -7.073   1.932   1.253  0.00  0.00    +0.033 C 
ATOM     11  C   UNL     1      -5.934   2.779   0.683  0.00  0.00    -0.065 C 
ATOM     12  H   UNL     1      -4.613   1.302   1.378  0.00  0.00    -0.081 HD
BRANCH  10  13
ATOM     13  C   UNL     1      -8.344   2.741   1.258  0.00  0.00    -0.042 A 
ATOM     14  C   UNL     1      -8.851   3.239   0.072  0.00  0.00    +0.004 A 
ATOM     15  C   UNL     1     -10.020   3.977   0.076  0.00  0.00    +0.000 A 
ATOM     16  C   UNL     1     -10.676   4.226   1.267  0.00  0.00    +0.000 A 
ATOM     17  C   UNL     1     -10.166   3.733   2.453  0.00  0.00    +0.000 A 
ATOM     18  C   UNL     1      -9.000   2.990   2.449  0.00  0.00    +0.004 A 
ENDBRANCH  10  13
ENDBRANCH   1   2
BRANCH   1  20
ATOM     19  N   UNL     1      -1.110   2.315   0.127  0.00  0.00    -0.284 N 
ATOM     20  C   UNL     1      -2.344   1.801   0.298  0.00  0.00    +0.201 C 
ATOM     21  O   UNL     1      -2.485   0.610   0.481  0.00  0.00    -0.278 OA
ATOM     22  H   UNL     1      -0.973   3.404   0.055  0.00  0.00    +0.155 HD
BRANCH  19  25
ATOM     23  C   UNL     1      -0.557  -0.063   2.062  0.00  0.00    +0.069 C 
ATOM     24  C   UNL     1       0.283   0.378   0.891  0.00  0.00    +0.082 A 
ATOM     25  C   UNL     1       0.003   1.458   0.041  0.00  0.00    +0.078 A 
ATOM     26  C   UNL     1       0.995   1.526  -0.885  0.00  0.00    +0.063 A 
ATOM     27  N   UNL     1       1.870   0.518  -0.622  0.00  0.00    -0.235 N 
ATOM     28  N   UNL     1       1.397  -0.182   0.494  0.00  0.00    -0.170 NA
ATOM     29  C   UNL     1       1.104   2.534  -2.000  0.00  0.00    +0.068 C 
BRANCH  27  30
ATOM     30  C   UNL     1       3.039   0.232  -1.342  0.00  0.00    +0.066 A 
ATOM     31  C   UNL     1       3.374  -1.084  -1.628  0.00  0.00    +0.028 A 
ATOM     32  C   UNL     1       4.523  -1.362  -2.343  0.00  0.00    +0.002 A 
ATOM     33  C   UNL     1       5.345  -0.332  -2.762  0.00  0.00    +0.000 A 
ATOM     34  C   UNL     1       5.016   0.979  -2.473  0.00  0.00    +0.002 A 
ATOM     35  C   UNL     1       3.866   1.264  -1.764  0.00  0.00    +0.028 A 
ENDBRANCH  27  30
ENDBRANCH  19  25
ENDBRANCH   1  20
TORSDOF 5
