REMARK  Name = ZINC13778563
REMARK  12 active torsions:
REMARK  status: ('A' for Active; 'I' for Inactive)
REMARK    1  A    between atoms: C_1  and  C_2
REMARK    2  A    between atoms: C_2  and  N_3
REMARK    3  A    between atoms: N_3  and  C_4
REMARK    4  A    between atoms: N_3  and  C_6
REMARK    5  A    between atoms: C_4  and  C_5
REMARK    6  A    between atoms: C_9  and  C_12
REMARK    7  A    between atoms: C_20  and  O_35
REMARK    8  A    between atoms: C_23  and  C_24
REMARK    9  A    between atoms: C_23  and  N_73
REMARK   10  A    between atoms: N_26  and  C_27
REMARK   11  A    between atoms: C_30  and  O_33
REMARK   12  A    between atoms: O_33  and  C_34
REMARK                            x       y       z     vdW  Elec       q    Type
REMARK                         _______ _______ _______ _____ _____    ______ ____
ROOT
ATOM      1  C   UNL     1      -1.519   3.564   0.102  0.00  0.00    -0.031 C 
ATOM      2  C   UNL     1      -0.814   3.127  -1.186  0.00  0.00    +0.011 C 
ATOM      3  C   UNL     1       0.606   3.690  -1.188  0.00  0.00    +0.005 C 
ATOM      4  C   UNL     1       1.332   3.240  -2.456  0.00  0.00    +0.000 C 
ATOM      5  C   UNL     1       1.395   1.711  -2.491  0.00  0.00    +0.003 C 
ATOM      6  C   UNL     1      -0.027   1.146  -2.493  0.00  0.00    +0.035 C 
ATOM      7  C   UNL     1      -0.761   1.598  -1.232  0.00  0.00    +0.066 C 
ATOM      8  C   UNL     1      -0.024   1.084   0.007  0.00  0.00    +0.016 C 
ATOM      9  C   UNL     1      -0.741   1.583   1.264  0.00  0.00    -0.075 C 
ATOM     10  N   UNL     1      -0.748   3.062   1.260  0.00  0.00    +0.390 N 
ATOM     11  H   UNL     1       0.219   3.399   1.187  0.00  0.00    -0.080 HD
ENDROOT
BRANCH   1  15
ATOM     12  C   UNL     1      -1.658   7.832   0.274  0.00  0.00    +0.030 A 
ATOM     13  C   UNL     1      -2.775   7.115  -0.137  0.00  0.00    +0.023 A 
ATOM     14  C   UNL     1      -2.727   5.736  -0.191  0.00  0.00    +0.004 A 
ATOM     15  C   UNL     1      -1.568   5.069   0.162  0.00  0.00    -0.060 A 
ATOM     16  C   UNL     1      -0.456   5.779   0.577  0.00  0.00    +0.004 A 
ATOM     17  C   UNL     1      -0.496   7.159   0.628  0.00  0.00    +0.023 A 
BRANCH  12  18
ATOM     18  N   UNL     1      -1.704   9.227   0.331  0.00  0.00    -0.330 N 
BRANCH  18  20
ATOM     19  C   UNL     1       0.342  10.315  -0.452  0.00  0.00    +0.024 C 
ATOM     20  C   UNL     1      -0.525   9.982   0.764  0.00  0.00    +0.102 C 
ENDBRANCH  18  20
BRANCH  18  21
ATOM     21  C   UNL     1      -2.930   9.936  -0.043  0.00  0.00    +0.102 C 
ATOM     22  C   UNL     1      -3.814  10.112   1.193  0.00  0.00    +0.024 C 
ENDBRANCH  18  21
ENDBRANCH  12  18
ENDBRANCH   1  15
BRANCH   7  23
ATOM     23  O   UNL     1      -2.092   1.077  -1.243  0.00  0.00    -0.388 OA
ATOM     24  H   UNL     1      -2.136   0.111  -1.265  0.00  0.00    +0.210 HD
ENDBRANCH   7  23
BRANCH  10  25
ATOM     25  C   UNL     1      -1.339   3.567   2.516  0.00  0.00    +0.020 C 
BRANCH  25  26
ATOM     26  C   UNL     1      -0.417   3.224   3.658  0.00  0.00    +0.201 C 
ATOM     27  O   UNL     1       0.608   2.611   3.446  0.00  0.00    -0.278 OA
ATOM     28  N   UNL     1      -0.731   3.600   4.913  0.00  0.00    -0.287 N 
ATOM     29  H   UNL     1      -1.515   4.148   5.074  0.00  0.00    +0.155 HD
BRANCH  28  30
ATOM     30  C   UNL     1       0.075   3.199   5.987  0.00  0.00    +0.034 A 
ATOM     31  C   UNL     1      -0.499   2.915   7.218  0.00  0.00    +0.027 A 
ATOM     32  C   UNL     1       0.296   2.515   8.274  0.00  0.00    +0.047 A 
ATOM     33  C   UNL     1       1.669   2.408   8.108  0.00  0.00    +0.120 A 
ATOM     34  C   UNL     1       2.244   2.697   6.879  0.00  0.00    +0.047 A 
ATOM     35  C   UNL     1       1.450   3.092   5.821  0.00  0.00    +0.027 A 
BRANCH  33  36
ATOM     36  O   UNL     1       2.452   2.020   9.150  0.00  0.00    -0.495 OA
ATOM     37  C   UNL     1       1.793   1.738  10.386  0.00  0.00    +0.277 C 
ENDBRANCH  33  36
ENDBRANCH  28  30
ENDBRANCH  25  26
ENDBRANCH  10  25
TORSDOF 9
