REMARK  Name = ZINC08316623
REMARK  4 active torsions:
REMARK  status: ('A' for Active; 'I' for Inactive)
REMARK    1  A    between atoms: C_1  and  C_2
REMARK    2  A    between atoms: C_6  and  C_13
REMARK    3  A    between atoms: N_19  and  C_20
REMARK    4  A    between atoms: C_20  and  C_21
REMARK                            x       y       z     vdW  Elec       q    Type
REMARK                         _______ _______ _______ _____ _____    ______ ____
ROOT
ATOM      1  C   UNL     1      -4.854  -0.954  -1.347  0.00  0.00    +0.079 C 
ATOM      2  N   UNL     1      -4.742  -0.261  -2.427  0.00  0.00    -0.176 NA
ATOM      3  N   UNL     1      -5.613  -0.007  -3.313  0.00  0.00    -0.259 N 
ATOM      4  C   UNL     1      -6.916  -0.103  -3.145  0.00  0.00    +0.149 C 
ATOM      5  S   UNL     1      -7.518  -0.614  -1.560  0.00  0.00    -0.085 S 
ATOM      6  C   UNL     1      -6.139  -1.654  -0.966  0.00  0.00    +0.134 C 
ATOM      7  N   UNL     1      -7.783   0.187  -4.170  0.00  0.00    -0.320 N 
ATOM      8  H   UNL     1      -7.439   0.466  -5.032  0.00  0.00    +0.148 HD
ATOM      9  H   UNL     1      -5.295   0.280  -4.183  0.00  0.00    +0.191 HD
ENDROOT
BRANCH   1  14
ATOM     10  C   UNL     1      -0.019   1.526   0.010  0.00  0.00    +0.022 C 
ATOM     11  C   UNL     1       0.002  -0.004   0.002  0.00  0.00    +0.104 C 
ATOM     12  C   UNL     1      -1.405  -0.553   0.060  0.00  0.00    -0.014 A 
ATOM     13  C   UNL     1      -2.486  -0.436  -0.780  0.00  0.00    +0.016 A 
ATOM     14  C   UNL     1      -3.690  -1.072  -0.456  0.00  0.00    -0.001 A 
ATOM     15  C   UNL     1      -3.777  -1.822   0.723  0.00  0.00    +0.011 A 
ATOM     16  C   UNL     1      -2.688  -1.931   1.555  0.00  0.00    +0.024 A 
ATOM     17  C   UNL     1      -1.487  -1.297   1.232  0.00  0.00    +0.037 A 
ATOM     18  N   UNL     1      -0.268  -1.264   1.909  0.00  0.00    -0.285 N 
ATOM     19  C   UNL     1       0.658  -0.533   1.260  0.00  0.00    +0.224 C 
ATOM     20  O   UNL     1       1.801  -0.333   1.614  0.00  0.00    -0.275 OA
ATOM     21  H   UNL     1      -0.104  -1.717   2.751  0.00  0.00    +0.155 HD
ENDBRANCH   1  14
BRANCH   7  22
ATOM     22  C   UNL     1      -9.229   0.074  -3.960  0.00  0.00    +0.138 C 
BRANCH  22  23
ATOM     23  C   UNL     1      -9.951   0.445  -5.230  0.00  0.00    -0.027 A 
ATOM     24  C   UNL     1     -10.314   1.759  -5.458  0.00  0.00    +0.009 A 
ATOM     25  C   UNL     1     -10.977   2.104  -6.621  0.00  0.00    +0.050 A 
ATOM     26  C   UNL     1     -11.278   1.132  -7.562  0.00  0.00    +0.166 A 
ATOM     27  C   UNL     1     -10.912  -0.192  -7.332  0.00  0.00    +0.167 A 
ATOM     28  C   UNL     1     -10.244  -0.529  -6.166  0.00  0.00    +0.054 A 
ATOM     29  O   UNL     1     -11.317  -0.948  -8.394  0.00  0.00    -0.453 OA
ATOM     30  C   UNL     1     -12.293  -0.146  -9.086  0.00  0.00    +0.466 C 
ATOM     31  O   UNL     1     -11.912   1.206  -8.768  0.00  0.00    -0.453 OA
ENDBRANCH  22  23
ENDBRANCH   7  22
TORSDOF 3
