REMARK  Name = ZINC01587861
REMARK  4 active torsions:
REMARK  status: ('A' for Active; 'I' for Inactive)
REMARK    1  A    between atoms: C_1  and  C_2
REMARK    2  A    between atoms: C_2  and  C_3
REMARK    3  A    between atoms: C_3  and  O_4
REMARK    4  A    between atoms: O_4  and  S_5
REMARK                            x       y       z     vdW  Elec       q    Type
REMARK                         _______ _______ _______ _____ _____    ______ ____
ROOT
ATOM      1  O   UNL     1       1.170   3.109   0.008  0.00  0.00    -0.214 OA
ENDROOT
BRANCH   1   2
ATOM      2  S   UNL     1       1.371   1.601  -0.002  0.00  0.00    +0.238 S 
ATOM      3  O   UNL     1       1.982   1.264   1.235  0.00  0.00    -0.116 OA
ATOM      4  O   UNL     1       1.958   1.278  -1.255  0.00  0.00    -0.116 OA
ATOM      5  O   UNL     1      -0.011   0.963   0.007  0.00  0.00    -0.022 OA
ENDBRANCH   1   2
BRANCH   1   6
ATOM      6  C   UNL     1       0.770   3.634   1.275  0.00  0.00    +0.196 C 
BRANCH   6   8
ATOM      7  C   UNL     1       0.172   5.713   2.526  0.00  0.00    +0.006 C 
ATOM      8  C   UNL     1       0.599   5.151   1.168  0.00  0.00    +0.027 C 
ENDBRANCH   6   8
ENDBRANCH   1   6
TORSDOF 3
