REMARK  Name = ZINC56369802
REMARK  7 active torsions:
REMARK  status: ('A' for Active; 'I' for Inactive)
REMARK    1  A    between atoms: C_1  and  C_2
REMARK    2  A    between atoms: C_5  and  C_8
REMARK    3  A    between atoms: C_8  and  C_10
REMARK    4  A    between atoms: C_8  and  N_11
REMARK    5  A    between atoms: N_11  and  C_12
REMARK    6  A    between atoms: N_15  and  N_16
REMARK    7  A    between atoms: C_17  and  C_19
REMARK                            x       y       z     vdW  Elec       q    Type
REMARK                         _______ _______ _______ _____ _____    ______ ____
ROOT
ATOM      1  N   UNL     1      -0.711  -4.763   1.104  0.00  0.00    -0.281 N 
ATOM      2  C   UNL     1      -0.374  -4.296   2.451  0.00  0.00    +0.134 C 
ATOM      3  C   UNL     1      -1.663  -5.702   0.934  0.00  0.00    +0.319 C 
ATOM      4  O   UNL     1      -2.009  -6.022  -0.186  0.00  0.00    -0.251 OA
ATOM      5  N   UNL     1      -2.232  -6.287   2.008  0.00  0.00    -0.218 N 
ATOM      6  H   UNL     1      -2.007  -5.983   2.901  0.00  0.00    +0.174 HD
ENDROOT
BRANCH   5   7
ATOM      7  N   UNL     1      -3.147  -7.333   1.833  0.00  0.00    -0.228 N 
ATOM      8  C   UNL     1      -3.792  -7.849   2.897  0.00  0.00    +0.276 C 
ATOM      9  O   UNL     1      -3.580  -7.406   4.011  0.00  0.00    -0.267 OA
ATOM     10  H   UNL     1      -3.316  -7.686   0.945  0.00  0.00    +0.173 HD
BRANCH   8  11
ATOM     11  C   UNL     1      -4.750  -8.944   2.714  0.00  0.00    +0.104 A 
ATOM     12  C   UNL     1      -5.483  -9.561   3.706  0.00  0.00    +0.047 A 
ATOM     13  C   UNL     1      -6.264 -10.543   3.090  0.00  0.00    +0.036 A 
ATOM     14  C   UNL     1      -6.001 -10.511   1.761  0.00  0.00    +0.098 A 
ATOM     15  N   UNL     1      -5.087  -9.539   1.519  0.00  0.00    -0.356 N 
ATOM     16  H   UNL     1      -4.728  -9.304   0.649  0.00  0.00    +0.166 HD
ATOM     17 BR   UNL     1      -7.473 -11.711   3.958  0.00  0.00    -0.049 Br
ENDBRANCH   8  11
ENDBRANCH   5   7
BRANCH   1  18
ATOM     18  C   UNL     1      -0.014  -4.209  -0.059  0.00  0.00    +0.104 C 
ATOM     19  C   UNL     1       1.497  -4.349   0.137  0.00  0.00    +0.033 C 
BRANCH  18  24
ATOM     20  C   UNL     1      -1.372   1.379  -0.633  0.00  0.00    +0.044 C 
ATOM     21  C   UNL     1      -1.018  -0.078  -0.483  0.00  0.00    -0.050 A 
ATOM     22  C   UNL     1      -1.250  -0.956  -1.525  0.00  0.00    +0.004 A 
ATOM     23  C   UNL     1      -0.925  -2.293  -1.388  0.00  0.00    +0.006 A 
ATOM     24  C   UNL     1      -0.367  -2.751  -0.209  0.00  0.00    -0.027 A 
ATOM     25  C   UNL     1      -0.135  -1.873   0.833  0.00  0.00    +0.006 A 
ATOM     26  C   UNL     1      -0.456  -0.535   0.694  0.00  0.00    +0.004 A 
ENDBRANCH  18  24
ENDBRANCH   1  18
TORSDOF 4
