REMARK  Name = ZINC65182352
REMARK  11 active torsions:
REMARK  status: ('A' for Active; 'I' for Inactive)
REMARK    1  A    between atoms: C_1  and  C_2
REMARK    2  A    between atoms: C_2  and  C_3
REMARK    3  A    between atoms: C_6  and  C_33
REMARK    4  A    between atoms: C_11  and  C_13
REMARK    5  A    between atoms: C_16  and  C_19
REMARK    6  A    between atoms: C_19  and  C_20
REMARK    7  A    between atoms: C_20  and  N_21
REMARK    8  A    between atoms: N_21  and  C_22
REMARK    9  A    between atoms: C_23  and  C_25
REMARK   10  A    between atoms: C_30  and  O_31
REMARK   11  A    between atoms: O_31  and  C_32
REMARK                            x       y       z     vdW  Elec       q    Type
REMARK                         _______ _______ _______ _____ _____    ______ ____
ROOT
ATOM      1  C   UNL     1       2.314  -2.848  -0.508  0.00  0.00    +0.318 C 
ATOM      2  N   UNL     1       2.646  -4.272  -0.675  0.00  0.00    -0.291 N 
ATOM      3  C   UNL     1       1.787  -4.978   0.133  0.00  0.00    +0.139 C 
ATOM      4  N   UNL     1       0.985  -4.199   0.764  0.00  0.00    -0.072 NA
ATOM      5  O   UNL     1       1.231  -2.841   0.436  0.00  0.00    -0.367 OA
ATOM      6  H   UNL     1       3.338  -4.641  -1.246  0.00  0.00    +0.151 HD
ENDROOT
BRANCH   1  15
ATOM      7  C   UNL     1       1.603  -0.763  -1.678  0.00  0.00    -0.033 C 
ATOM      8  C   UNL     1       2.467  -0.135  -2.509  0.00  0.00    -0.000 A 
ATOM      9  C   UNL     1       2.709   1.282  -2.805  0.00  0.00    +0.013 A 
ATOM     10  C   UNL     1       3.664   1.610  -3.705  0.00  0.00    -0.050 A 
ATOM     11  C   UNL     1       4.425   0.632  -4.361  0.00  0.00    +0.005 A 
ATOM     12  C   UNL     1       4.260  -0.689  -4.142  0.00  0.00    +0.026 A 
ATOM     13  C   UNL     1       3.284  -1.148  -3.214  0.00  0.00    +0.043 A 
ATOM     14  N   UNL     1       2.939  -2.354  -2.835  0.00  0.00    -0.373 N 
ATOM     15  C   UNL     1       1.866  -2.243  -1.840  0.00  0.00    +0.169 C 
ATOM     16  C   UNL     1       3.916   3.063  -4.011  0.00  0.00    +0.044 C 
ATOM     17  H   UNL     1       3.330  -3.182  -3.156  0.00  0.00    +0.160 HD
BRANCH   7  19
ATOM     18  C   UNL     1       0.661   1.403  -0.924  0.00  0.00    +0.008 C 
ATOM     19  C   UNL     1       0.588  -0.117  -0.770  0.00  0.00    +0.030 C 
ENDBRANCH   7  19
ENDBRANCH   1  15
BRANCH   3  20
ATOM     20  C   UNL     1       1.785  -6.480   0.262  0.00  0.00    +0.094 C 
BRANCH  20  21
ATOM     21  C   UNL     1       0.695  -6.906   1.248  0.00  0.00    +0.115 C 
BRANCH  21  22
ATOM     22  N   UNL     1       0.694  -8.366   1.373  0.00  0.00    -0.300 N 
ATOM     23  C   UNL     1       1.525  -9.014   2.390  0.00  0.00    +0.132 C 
ATOM     24  C   UNL     1      -0.071  -9.112   0.552  0.00  0.00    +0.250 C 
ATOM     25  O   UNL     1      -0.687  -8.583  -0.353  0.00  0.00    -0.270 OA
BRANCH  24  26
ATOM     26  C   UNL     1      -0.162 -10.571   0.752  0.00  0.00    +0.078 A 
ATOM     27  C   UNL     1      -0.308 -11.096   2.038  0.00  0.00    +0.017 A 
ATOM     28  C   UNL     1      -0.393 -12.460   2.218  0.00  0.00    +0.001 A 
ATOM     29  C   UNL     1      -0.334 -13.313   1.129  0.00  0.00    +0.004 A 
ATOM     30  C   UNL     1      -0.191 -12.808  -0.148  0.00  0.00    +0.046 A 
ATOM     31  C   UNL     1      -0.109 -11.438  -0.348  0.00  0.00    +0.132 A 
BRANCH  31  32
ATOM     32  O   UNL     1       0.027 -10.939  -1.602  0.00  0.00    -0.494 OA
ATOM     33  C   UNL     1       0.074 -11.883  -2.674  0.00  0.00    +0.277 C 
ENDBRANCH  31  32
ENDBRANCH  24  26
ENDBRANCH  21  22
ENDBRANCH  20  21
ENDBRANCH   3  20
TORSDOF 7
