REMARK  Name = ZINC14457506
REMARK  9 active torsions:
REMARK  status: ('A' for Active; 'I' for Inactive)
REMARK    1  A    between atoms: C_1  and  C_2
REMARK    2  A    between atoms: C_2  and  C_3
REMARK    3  A    between atoms: C_2  and  C_4
REMARK    4  A    between atoms: C_2  and  N_5
REMARK    5  A    between atoms: C_6  and  C_8
REMARK    6  A    between atoms: C_21  and  C_24
REMARK    7  A    between atoms: C_27  and  O_31
REMARK    8  A    between atoms: C_28  and  O_30
REMARK    9  A    between atoms: O_31  and  C_32
REMARK                            x       y       z     vdW  Elec       q    Type
REMARK                         _______ _______ _______ _____ _____    ______ ____
ROOT
ATOM      1  C   UNL     1       4.131   0.307  -2.246  0.00  0.00    +0.037 A 
ATOM      2  C   UNL     1       3.398   0.072  -3.413  0.00  0.00    +0.015 A 
ATOM      3  C   UNL     1       2.052   0.349  -3.447  0.00  0.00    +0.024 A 
ATOM      4  C   UNL     1       1.407   0.866  -2.325  0.00  0.00    +0.031 A 
ATOM      5  C   UNL     1       2.147   1.115  -1.159  0.00  0.00    -0.019 A 
ATOM      6  C   UNL     1       3.490   0.832  -1.121  0.00  0.00    +0.019 A 
ATOM      7  C   UNL     1       1.425   1.687  -0.003  0.00  0.00    +0.049 C 
ATOM      8  C   UNL     1       1.889   1.484   1.394  0.00  0.00    -0.023 C 
ATOM      9  C   UNL     1       0.830   1.472   2.195  0.00  0.00    -0.030 C 
ATOM     10  C   UNL     1      -0.450   1.636   1.372  0.00  0.00    +0.033 C 
ATOM     11  C   UNL     1      -0.013   1.086   0.008  0.00  0.00    +0.029 C 
ATOM     12  C   UNL     1      -0.691   1.638  -1.233  0.00  0.00    +0.105 C 
ATOM     13  N   UNL     1       0.034   1.102  -2.380  0.00  0.00    -0.336 N 
ATOM     14  H   UNL     1      -0.450   0.898  -3.195  0.00  0.00    +0.147 HD
ENDROOT
BRANCH  12  15
ATOM     15  C   UNL     1      -2.133   1.203  -1.275  0.00  0.00    -0.023 A 
ATOM     16  C   UNL     1      -2.457  -0.067  -1.715  0.00  0.00    +0.009 A 
ATOM     17  C   UNL     1      -3.779  -0.471  -1.756  0.00  0.00    +0.050 A 
ATOM     18  C   UNL     1      -4.781   0.397  -1.355  0.00  0.00    +0.161 A 
ATOM     19  C   UNL     1      -4.455   1.675  -0.912  0.00  0.00    +0.159 A 
ATOM     20  C   UNL     1      -3.128   2.072  -0.869  0.00  0.00    +0.054 A 
BRANCH  19  21
ATOM     21  O   UNL     1      -5.435   2.531  -0.517  0.00  0.00    -0.503 OA
ATOM     22  H   UNL     1      -5.651   2.475   0.424  0.00  0.00    +0.292 HD
ENDBRANCH  19  21
BRANCH  18  23
ATOM     23  O   UNL     1      -6.082   0.002  -1.395  0.00  0.00    -0.491 OA
ATOM     24  C   UNL     1      -6.343  -1.324  -1.861  0.00  0.00    +0.277 C 
ENDBRANCH  18  23
ENDBRANCH  12  15
BRANCH   1  26
ATOM     25  N   UNL     1       6.189  -0.502  -3.291  0.00  0.00    -0.307 N 
ATOM     26  C   UNL     1       5.574   0.004  -2.204  0.00  0.00    +0.244 C 
ATOM     27  O   UNL     1       6.209   0.210  -1.188  0.00  0.00    -0.270 OA
ATOM     28  H   UNL     1       5.682  -0.667  -4.102  0.00  0.00    +0.150 HD
BRANCH  25  30
ATOM     29  C   UNL     1       7.893  -1.839  -2.156  0.00  0.00    +0.031 C 
ATOM     30  C   UNL     1       7.622  -0.804  -3.249  0.00  0.00    +0.026 C 
ATOM     31  C   UNL     1       8.065  -1.363  -4.602  0.00  0.00    +0.031 C 
ATOM     32  C   UNL     1       8.403   0.476  -2.945  0.00  0.00    +0.031 C 
ENDBRANCH  25  30
ENDBRANCH   1  26
TORSDOF 5
