REMARK  Name = ZINC33332028
REMARK  5 active torsions:
REMARK  status: ('A' for Active; 'I' for Inactive)
REMARK    1  A    between atoms: N_6  and  C_16
REMARK    2  A    between atoms: C_16  and  C_17
REMARK    3  A    between atoms: C_17  and  C_18
REMARK    4  A    between atoms: C_18  and  C_19
REMARK    5  A    between atoms: C_24  and  N_27
REMARK                            x       y       z     vdW  Elec       q    Type
REMARK                         _______ _______ _______ _____ _____    ______ ____
ROOT
ATOM      1  C   UNL     1       0.979   3.615   0.012  0.00  0.00    +0.031 C 
ENDROOT
BRANCH   1   2
ATOM      2  C   UNL     1       2.293   4.398   0.004  0.00  0.00    +0.126 C 
BRANCH   2   8
ATOM      3  C   UNL     1       1.172  10.071   1.611  0.00  0.00    +0.020 A 
ATOM      4  C   UNL     1       1.424   8.834   2.212  0.00  0.00    +0.033 A 
ATOM      5  C   UNL     1       1.599   7.920   1.195  0.00  0.00    +0.112 A 
ATOM      6  C   UNL     1       1.886   6.484   1.189  0.00  0.00    +0.276 A 
ATOM      7  O   UNL     1       2.015   5.881   2.239  0.00  0.00    -0.265 OA
ATOM      8  N   UNL     1       2.006   5.835   0.014  0.00  0.00    -0.305 N 
ATOM      9  C   UNL     1       1.864   6.521  -1.192  0.00  0.00    +0.070 A 
ATOM     10  C   UNL     1       1.987   5.833  -2.393  0.00  0.00    +0.043 A 
ATOM     11  C   UNL     1       1.843   6.504  -3.592  0.00  0.00    +0.020 A 
ATOM     12  C   UNL     1       1.571   7.862  -3.602  0.00  0.00    +0.017 A 
ATOM     13  C   UNL     1       1.442   8.553  -2.413  0.00  0.00    +0.029 A 
ATOM     14  C   UNL     1       1.586   7.887  -1.204  0.00  0.00    +0.070 A 
ATOM     15  N   UNL     1       1.455   8.591  -0.001  0.00  0.00    -0.310 N 
ATOM     16  C   UNL     1       1.196   9.895   0.267  0.00  0.00    +0.092 A 
ATOM     17 BR   UNL     1       2.017   5.566  -5.224  0.00  0.00    -0.050 Br
ENDBRANCH   2   8
ENDBRANCH   1   2
BRANCH   1  18
ATOM     18  C   UNL     1       1.278   2.115   0.001  0.00  0.00    +0.098 C 
BRANCH  18  19
ATOM     19  C   UNL     1      -0.016   1.344   0.009  0.00  0.00    +0.216 C 
ATOM     20  O   UNL     1      -1.075   1.936   0.018  0.00  0.00    -0.276 OA
ATOM     21  N   UNL     1       0.002  -0.004   0.002  0.00  0.00    -0.302 N 
ATOM     22  C   UNL     1       1.276  -0.735  -0.020  0.00  0.00    +0.106 C 
ATOM     23  C   UNL     1       1.264  -1.720  -1.188  0.00  0.00    +0.004 C 
ATOM     24  C   UNL     1       0.027  -2.615  -1.084  0.00  0.00    -0.066 C 
ATOM     25  C   UNL     1      -1.236  -1.754  -1.163  0.00  0.00    +0.004 C 
ATOM     26  C   UNL     1      -1.252  -0.770   0.010  0.00  0.00    +0.106 C 
BRANCH  24  27
ATOM     27  N   UNL     1       0.030  -3.583  -2.189  0.00  0.00    +0.382 N 
ATOM     28  C   UNL     1      -1.193  -4.396  -2.180  0.00  0.00    -0.078 C 
ATOM     29  C   UNL     1      -1.224  -5.288  -3.423  0.00  0.00    -0.019 C 
ATOM     30  C   UNL     1       0.012  -6.193  -3.427  0.00  0.00    -0.004 C 
ATOM     31  C   UNL     1       1.271  -5.322  -3.387  0.00  0.00    -0.019 C 
ATOM     32  C   UNL     1       1.229  -4.429  -2.146  0.00  0.00    -0.078 C 
ATOM     33  H   UNL     1       0.051  -3.020  -3.134  0.00  0.00    -0.081 HD
ENDBRANCH  24  27
ENDBRANCH  18  19
ENDBRANCH   1  18
TORSDOF 5
