REMARK  Name = ZINC60163256
REMARK  5 active torsions:
REMARK  status: ('A' for Active; 'I' for Inactive)
REMARK    1  A    between atoms: C_5  and  C_7
REMARK    2  A    between atoms: C_7  and  N_8
REMARK    3  A    between atoms: N_13  and  C_14
REMARK    4  A    between atoms: C_14  and  C_16
REMARK    5  A    between atoms: C_19  and  C_24
REMARK                            x       y       z     vdW  Elec       q    Type
REMARK                         _______ _______ _______ _____ _____    ______ ____
ROOT
ATOM      1  C   UNL     1      -1.718  -3.085   2.947  0.00  0.00    +0.275 C 
ATOM      2  O   UNL     1      -1.316  -3.487   4.027  0.00  0.00    -0.268 OA
ENDROOT
BRANCH   1   3
ATOM      3  C   UNL     1      -3.163  -2.928   2.712  0.00  0.00    +0.103 A 
ATOM      4  C   UNL     1      -4.080  -3.231   3.721  0.00  0.00    +0.020 A 
ATOM      5  C   UNL     1      -5.435  -3.074   3.475  0.00  0.00    +0.030 A 
ATOM      6  C   UNL     1      -5.863  -2.620   2.235  0.00  0.00    +0.085 A 
ATOM      7  N   UNL     1      -4.960  -2.324   1.250  0.00  0.00    -0.319 N 
ATOM      8  H   UNL     1      -5.276  -2.007   0.389  0.00  0.00    +0.169 HD
ATOM      9  C   UNL     1      -3.637  -2.462   1.462  0.00  0.00    +0.261 A 
ATOM     10  O   UNL     1      -2.847  -2.189   0.575  0.00  0.00    -0.267 OA
BRANCH   6  11
ATOM     11  C   UNL     1      -7.296  -2.456   1.978  0.00  0.00    +0.151 A 
ATOM     12  C   UNL     1      -7.859  -2.025   0.809  0.00  0.00    +0.051 A 
ATOM     13  C   UNL     1      -9.248  -2.020   1.008  0.00  0.00    +0.042 A 
ATOM     14  C   UNL     1      -9.471  -2.442   2.272  0.00  0.00    +0.196 A 
ATOM     15  O   UNL     1      -8.292  -2.709   2.852  0.00  0.00    -0.461 OA
ENDBRANCH   6  11
ENDBRANCH   1   3
BRANCH   1  21
ATOM     16  N   UNL     1       1.489  -2.679   1.333  0.00  0.00    -0.324 N 
ATOM     17  C   UNL     1       2.763  -2.890   1.761  0.00  0.00    +0.095 A 
ATOM     18  C   UNL     1       2.924  -3.340   3.010  0.00  0.00    +0.066 A 
ATOM     19  S   UNL     1       1.240  -3.463   3.580  0.00  0.00    -0.061 S 
ATOM     20  C   UNL     1       0.460  -2.929   2.190  0.00  0.00    +0.166 A 
ATOM     21  N   UNL     1      -0.846  -2.787   1.977  0.00  0.00    -0.152 NA
BRANCH  16  22
ATOM     22  C   UNL     1       1.229  -2.186  -0.022  0.00  0.00    +0.160 C 
BRANCH  22  27
ATOM     23  C   UNL     1      -0.017   1.378   0.010  0.00  0.00    +0.000 A 
ATOM     24  C   UNL     1       1.171   2.086   0.002  0.00  0.00    +0.001 A 
ATOM     25  C   UNL     1       2.377   1.412  -0.013  0.00  0.00    +0.020 A 
ATOM     26  C   UNL     1       2.397   0.029  -0.021  0.00  0.00    +0.046 A 
ATOM     27  C   UNL     1       1.208  -0.679  -0.013  0.00  0.00    -0.009 A 
ATOM     28  C   UNL     1       0.002  -0.004   0.002  0.00  0.00    +0.007 A 
ATOM     29 CL   UNL     1       3.912  -0.818  -0.041  0.00  0.00    -0.083 Cl
ENDBRANCH  22  27
ENDBRANCH  16  22
ENDBRANCH   1  21
TORSDOF 5
