REMARK  Name = ZINC35666730
REMARK  7 active torsions:
REMARK  status: ('A' for Active; 'I' for Inactive)
REMARK    1  A    between atoms: C_7  and  C_11
REMARK    2  A    between atoms: C_11  and  C_12
REMARK    3  A    between atoms: C_12  and  C_14
REMARK    4  A    between atoms: C_12  and  N_18
REMARK    5  A    between atoms: N_16  and  N_17
REMARK    6  A    between atoms: N_18  and  S_19
REMARK    7  A    between atoms: S_19  and  C_22
REMARK                            x       y       z     vdW  Elec       q    Type
REMARK                         _______ _______ _______ _____ _____    ______ ____
ROOT
ATOM      1  C   UNL     1       0.236  -3.589  -1.455  0.00  0.00    +0.168 C 
ENDROOT
BRANCH   1   2
ATOM      2  C   UNL     1      -0.795  -4.689  -1.442  0.00  0.00    +0.245 C 
ATOM      3  O   UNL     1      -0.577  -5.731  -2.023  0.00  0.00    -0.273 OA
ATOM      4  N   UNL     1      -1.958  -4.514  -0.783  0.00  0.00    -0.252 N 
ATOM      5  H   UNL     1      -2.131  -3.680  -0.319  0.00  0.00    +0.169 HD
BRANCH   4   6
ATOM      6  N   UNL     1      -2.892  -5.510  -0.771  0.00  0.00    -0.254 NA
ATOM      7  H   UNL     1      -2.500  -6.369  -0.413  0.00  0.00    +0.140 HD
ATOM      8  H   UNL     1      -3.706  -5.236  -0.242  0.00  0.00    +0.140 HD
ENDBRANCH   4   6
ENDBRANCH   1   2
BRANCH   1   9
ATOM      9  N   UNL     1       1.401  -4.022  -2.231  0.00  0.00    -0.178 NA
ATOM     10  H   UNL     1       2.100  -4.544  -1.807  0.00  0.00    +0.149 HD
BRANCH   9  11
ATOM     11  S   UNL     1       1.526  -3.619  -3.833  0.00  0.00    +0.059 S 
ATOM     12  O   UNL     1       2.760  -4.152  -4.291  0.00  0.00    -0.153 OA
ATOM     13  O   UNL     1       0.281  -3.952  -4.433  0.00  0.00    -0.153 OA
BRANCH  11  14
ATOM     14  C   UNL     1       1.672  -1.865  -3.918  0.00  0.00    +0.105 A 
ATOM     15  C   UNL     1       0.538  -1.080  -4.015  0.00  0.00    +0.030 A 
ATOM     16  C   UNL     1       0.652   0.295  -4.082  0.00  0.00    +0.022 A 
ATOM     17  C   UNL     1       1.903   0.887  -4.053  0.00  0.00    +0.041 A 
ATOM     18  C   UNL     1       3.037   0.102  -3.957  0.00  0.00    +0.022 A 
ATOM     19  C   UNL     1       2.921  -1.273  -3.884  0.00  0.00    +0.030 A 
ATOM     20 CL   UNL     1       2.047   2.615  -4.138  0.00  0.00    -0.084 Cl
ENDBRANCH  11  14
ENDBRANCH   9  11
ENDBRANCH   1   9
BRANCH   1  21
ATOM     21  C   UNL     1       0.666  -3.275  -0.021  0.00  0.00    +0.067 C 
BRANCH  21  28
ATOM     22  C   UNL     1      -0.017   1.362   0.009  0.00  0.00    +0.001 A 
ATOM     23  C   UNL     1       1.170   2.083   0.002  0.00  0.00    +0.002 A 
ATOM     24  C   UNL     1       2.386   1.436  -0.013  0.00  0.00    +0.026 A 
ATOM     25  C   UNL     1       2.428   0.046  -0.021  0.00  0.00    +0.047 A 
ATOM     26  C   UNL     1       1.223  -0.681  -0.013  0.00  0.00    +0.003 A 
ATOM     27  C   UNL     1       0.002  -0.004   0.002  0.00  0.00    +0.010 A 
ATOM     28  C   UNL     1       1.604  -2.095  -0.025  0.00  0.00    -0.020 A 
ATOM     29  C   UNL     1       2.945  -2.141  -0.038  0.00  0.00    +0.087 A 
ATOM     30  N   UNL     1       3.455  -0.871  -0.036  0.00  0.00    -0.360 N 
ATOM     31  H   UNL     1       4.399  -0.650  -0.044  0.00  0.00    +0.165 HD
ENDBRANCH  21  28
ENDBRANCH   1  21
TORSDOF 7
