REMARK  Name = ZINC10154357
REMARK  14 active torsions:
REMARK  status: ('A' for Active; 'I' for Inactive)
REMARK    1  A    between atoms: C_1  and  C_2
REMARK    2  A    between atoms: C_5  and  O_9
REMARK    3  A    between atoms: C_7  and  C_8
REMARK    4  A    between atoms: O_9  and  C_10
REMARK    5  A    between atoms: C_10  and  C_12
REMARK    6  A    between atoms: C_10  and  C_13
REMARK    7  A    between atoms: N_15  and  N_16
REMARK    8  A    between atoms: N_16  and  C_17
REMARK    9  A    between atoms: C_17  and  N_19
REMARK   10  A    between atoms: C_20  and  C_22
REMARK   11  A    between atoms: C_25  and  O_29
REMARK   12  A    between atoms: O_29  and  C_30
REMARK   13  A    between atoms: C_30  and  C_31
REMARK   14  A    between atoms: C_30  and  C_32
REMARK                            x       y       z     vdW  Elec       q    Type
REMARK                         _______ _______ _______ _____ _____    ______ ____
ROOT
ATOM      1  N   UNL     1      -1.951  -6.370   0.754  0.00  0.00    -0.245 N 
ATOM      2  H   UNL     1      -1.882  -7.317   0.558  0.00  0.00    +0.172 HD
ENDROOT
BRANCH   1   5
ATOM      3  C   UNL     1      -4.326  -6.495   0.656  0.00  0.00    +0.270 C 
ATOM      4  O   UNL     1      -4.240  -7.680   0.411  0.00  0.00    -0.270 OA
ATOM      5  N   UNL     1      -3.210  -5.762   0.843  0.00  0.00    -0.232 N 
ATOM      6  H   UNL     1      -3.279  -4.815   1.038  0.00  0.00    +0.173 HD
BRANCH   3   7
ATOM      7  C   UNL     1      -5.681  -5.842   0.751  0.00  0.00    +0.257 C 
ATOM      8  C   UNL     1      -5.834  -4.818  -0.376  0.00  0.00    +0.062 C 
BRANCH   7   9
ATOM      9  O   UNL     1      -6.699  -6.837   0.633  0.00  0.00    -0.480 OA
BRANCH   9  14
ATOM     10  C   UNL     1     -11.720  -5.640   2.887  0.00  0.00    +0.044 C 
ATOM     11  C   UNL     1     -10.377  -5.960   2.284  0.00  0.00    -0.047 A 
ATOM     12  C   UNL     1     -10.141  -7.214   1.751  0.00  0.00    +0.007 A 
ATOM     13  C   UNL     1      -8.910  -7.511   1.198  0.00  0.00    +0.046 A 
ATOM     14  C   UNL     1      -7.911  -6.548   1.177  0.00  0.00    +0.122 A 
ATOM     15  C   UNL     1      -8.149  -5.293   1.716  0.00  0.00    +0.049 A 
ATOM     16  C   UNL     1      -9.383  -5.000   2.264  0.00  0.00    -0.044 A 
ATOM     17  C   UNL     1      -9.643  -3.635   2.846  0.00  0.00    +0.044 C 
ENDBRANCH   9  14
ENDBRANCH   7   9
ENDBRANCH   3   7
ENDBRANCH   1   5
BRANCH   1  18
ATOM     18  C   UNL     1      -0.835  -5.637   0.940  0.00  0.00    +0.153 C 
ATOM     19  S   UNL     1       0.704  -6.379   0.832  0.00  0.00    -0.017 S 
BRANCH  18  20
ATOM     20  N   UNL     1      -0.931  -4.321   1.212  0.00  0.00    -0.263 N 
ATOM     21  C   UNL     1       0.185  -3.588   1.399  0.00  0.00    +0.250 C 
ATOM     22  O   UNL     1       1.278  -4.115   1.322  0.00  0.00    -0.270 OA
ATOM     23  H   UNL     1      -1.803  -3.900   1.274  0.00  0.00    +0.157 HD
BRANCH  21  24
ATOM     24  C   UNL     1       0.081  -2.147   1.696  0.00  0.00    +0.038 A 
ATOM     25  C   UNL     1       1.237  -1.386   1.890  0.00  0.00    +0.017 A 
ATOM     26  C   UNL     1       1.135  -0.041   2.167  0.00  0.00    +0.047 A 
ATOM     27  C   UNL     1      -0.115   0.560   2.255  0.00  0.00    +0.135 A 
ATOM     28  C   UNL     1      -1.268  -0.194   2.068  0.00  0.00    +0.060 A 
ATOM     29  C   UNL     1      -1.175  -1.540   1.785  0.00  0.00    +0.032 A 
ATOM     30 BR   UNL     1      -2.966   0.628   2.196  0.00  0.00    -0.046 Br
BRANCH  27  31
ATOM     31  O   UNL     1      -0.211   1.886   2.529  0.00  0.00    -0.488 OA
BRANCH  31  32
ATOM     32  C   UNL     1       1.011   2.625   2.594  0.00  0.00    +0.167 C 
ATOM     33  C   UNL     1       0.730   4.100   2.303  0.00  0.00    +0.051 C 
ATOM     34  C   UNL     1       1.617   2.487   3.992  0.00  0.00    +0.051 C 
ENDBRANCH  31  32
ENDBRANCH  27  31
ENDBRANCH  21  24
ENDBRANCH  18  20
ENDBRANCH   1  18
TORSDOF 9
