REMARK  Name = ZINC19715251
REMARK  6 active torsions:
REMARK  status: ('A' for Active; 'I' for Inactive)
REMARK    1  A    between atoms: C_1  and  C_2
REMARK    2  A    between atoms: N_12  and  C_13
REMARK    3  A    between atoms: C_13  and  C_14
REMARK    4  A    between atoms: N_16  and  C_17
REMARK    5  A    between atoms: C_20  and  C_28
REMARK    6  A    between atoms: C_20  and  C_29
REMARK                            x       y       z     vdW  Elec       q    Type
REMARK                         _______ _______ _______ _____ _____    ______ ____
ROOT
ATOM      1  C   UNL     1      -1.323   4.149  -0.590  0.00  0.00    +0.233 C 
ATOM      2  O   UNL     1      -2.424   3.646  -0.512  0.00  0.00    -0.274 OA
ATOM      3  N   UNL     1      -1.034   4.985  -1.607  0.00  0.00    -0.307 N 
ATOM      4  H   UNL     1      -0.035   5.441  -1.677  0.00  0.00    +0.149 HD
ENDROOT
BRANCH   3   5
ATOM      5  C   UNL     1      -2.050   5.287  -2.618  0.00  0.00    +0.111 C 
ATOM      6  C   UNL     1      -1.747   6.646  -3.253  0.00  0.00    +0.074 C 
ATOM      7  C   UNL     1      -2.635   6.806  -4.495  0.00  0.00    +0.107 C 
ATOM      8  O   UNL     1      -2.253   5.815  -5.451  0.00  0.00    -0.486 OA
ATOM      9  C   UNL     1      -2.139   4.531  -5.023  0.00  0.00    +0.126 A 
ATOM     10  C   UNL     1      -2.035   4.216  -3.679  0.00  0.00    +0.015 A 
ATOM     11  C   UNL     1      -1.916   2.893  -3.289  0.00  0.00    +0.009 A 
ATOM     12  C   UNL     1      -1.902   1.886  -4.234  0.00  0.00    +0.001 A 
ATOM     13  C   UNL     1      -2.009   2.197  -5.577  0.00  0.00    +0.004 A 
ATOM     14  C   UNL     1      -2.127   3.514  -5.972  0.00  0.00    +0.046 A 
ATOM     15  C   UNL     1      -4.102   6.611  -4.108  0.00  0.00    +0.055 C 
ATOM     16  C   UNL     1      -2.439   8.201  -5.092  0.00  0.00    +0.055 C 
ENDBRANCH   3   5
BRANCH   1  17
ATOM     17  C   UNL     1      -0.278   3.838   0.450  0.00  0.00    +0.222 C 
BRANCH  17  29
ATOM     18  C   UNL     1      -0.013   1.086   0.008  0.00  0.00    +0.086 C 
ATOM     19  C   UNL     1      -0.718   1.572   1.248  0.00  0.00    +0.110 A 
ATOM     20  N   UNL     1      -1.179   0.689   2.080  0.00  0.00    -0.234 NA
ATOM     21  C   UNL     1      -1.825   1.051   3.217  0.00  0.00    +0.078 A 
ATOM     22  C   UNL     1      -2.320   0.102   4.113  0.00  0.00    +0.028 A 
ATOM     23  C   UNL     1      -2.969   0.515   5.255  0.00  0.00    +0.002 A 
ATOM     24  C   UNL     1      -3.138   1.867   5.527  0.00  0.00    +0.001 A 
ATOM     25  C   UNL     1      -2.658   2.822   4.659  0.00  0.00    +0.015 A 
ATOM     26  C   UNL     1      -1.998   2.425   3.498  0.00  0.00    +0.065 A 
ATOM     27  C   UNL     1      -1.464   3.399   2.534  0.00  0.00    +0.262 A 
ATOM     28  O   UNL     1      -1.580   4.597   2.716  0.00  0.00    -0.267 OA
ATOM     29  N   UNL     1      -0.834   2.912   1.440  0.00  0.00    -0.287 N 
ENDBRANCH  17  29
ENDBRANCH   1  17
TORSDOF 3
