REMARK  Name = ZINC43769776
REMARK  7 active torsions:
REMARK  status: ('A' for Active; 'I' for Inactive)
REMARK    1  A    between atoms: C_1  and  C_2
REMARK    2  A    between atoms: C_17  and  C_38
REMARK    3  A    between atoms: C_25  and  C_27
REMARK    4  A    between atoms: C_25  and  C_28
REMARK    5  A    between atoms: C_29  and  C_31
REMARK    6  A    between atoms: C_31  and  S_32
REMARK    7  A    between atoms: S_32  and  C_33
REMARK                            x       y       z     vdW  Elec       q    Type
REMARK                         _______ _______ _______ _____ _____    ______ ____
ROOT
ATOM      1  C   UNL     1      -0.019   1.524   0.010  0.00  0.00    +0.012 C 
ATOM      2  C   UNL     1       0.002  -0.004   0.002  0.00  0.00    -0.026 C 
ATOM      3  C   UNL     1       0.787  -0.466  -1.234  0.00  0.00    +0.007 C 
ATOM      4  C   UNL     1       2.206   0.105  -1.193  0.00  0.00    +0.001 C 
ATOM      5  C   UNL     1       2.931  -0.319   0.085  0.00  0.00    +0.000 C 
ATOM      6  C   UNL     1       2.128   0.103   1.321  0.00  0.00    +0.004 C 
ATOM      7  C   UNL     1       0.740  -0.518   1.237  0.00  0.00    -0.005 C 
ATOM      8  C   UNL     1      -0.085  -0.265   2.487  0.00  0.00    +0.004 C 
ATOM      9  C   UNL     1      -1.310  -1.179   2.454  0.00  0.00    +0.004 C 
ATOM     10  C   UNL     1      -1.706  -1.567   1.046  0.00  0.00    -0.004 C 
ATOM     11  C   UNL     1      -1.419  -0.532  -0.032  0.00  0.00    -0.001 C 
ATOM     12  C   UNL     1      -2.482   0.541  -0.160  0.00  0.00    +0.005 C 
ATOM     13  C   UNL     1      -3.880  -0.089  -0.345  0.00  0.00    +0.010 C 
ATOM     14  C   UNL     1      -4.171  -0.934   0.875  0.00  0.00    +0.002 C 
ATOM     15  C   UNL     1      -3.120  -2.063   0.931  0.00  0.00    +0.001 C 
ATOM     16  C   UNL     1      -3.677  -2.940   2.062  0.00  0.00    +0.007 C 
ATOM     17  C   UNL     1      -5.178  -3.034   1.642  0.00  0.00    +0.037 C 
ATOM     18  C   UNL     1      -5.473  -1.731   0.874  0.00  0.00    +0.093 C 
ATOM     19  C   UNL     1      -5.963  -2.021  -0.548  0.00  0.00    +0.146 C 
ATOM     20  N   UNL     1      -7.424  -2.188  -0.356  0.00  0.00    -0.270 N 
ATOM     21  C   UNL     1      -7.759  -1.385   0.832  0.00  0.00    +0.133 C 
ATOM     22  O   UNL     1      -6.542  -1.011   1.494  0.00  0.00    -0.348 OA
ATOM     23  C   UNL     1      -8.639  -2.206   1.777  0.00  0.00    +0.063 C 
ATOM     24  C   UNL     1      -8.514  -0.122   0.407  0.00  0.00    +0.063 C 
ATOM     25  C   UNL     1      -8.262  -2.928  -1.105  0.00  0.00    +0.228 C 
ATOM     26  O   UNL     1      -9.442  -2.973  -0.829  0.00  0.00    -0.275 OA
ATOM     27  C   UNL     1      -4.210  -0.049   2.117  0.00  0.00    +0.014 C 
ENDROOT
BRANCH  25  28
ATOM     28  C   UNL     1      -7.734  -3.700  -2.287  0.00  0.00    +0.173 C 
BRANCH  28  29
ATOM     29  S   UNL     1      -9.098  -4.589  -3.086  0.00  0.00    -0.083 S 
BRANCH  29  30
ATOM     30  C   UNL     1      -8.329  -5.431  -4.429  0.00  0.00    +0.128 C 
ATOM     31  N   UNL     1      -7.032  -5.348  -4.677  0.00  0.00    -0.366 N 
ATOM     32  C   UNL     1      -6.711  -6.162  -5.860  0.00  0.00    +0.133 C 
ATOM     33  C   UNL     1      -8.075  -6.751  -6.271  0.00  0.00    +0.124 C 
ATOM     34  N   UNL     1      -9.002  -6.203  -5.269  0.00  0.00    -0.324 N 
ATOM     35  H   UNL     1      -9.955  -6.378  -5.231  0.00  0.00    +0.148 HD
ATOM     36  H   UNL     1      -6.393  -4.831  -4.161  0.00  0.00    +0.161 HD
ENDBRANCH  29  30
ENDBRANCH  28  29
ENDBRANCH  25  28
TORSDOF 3
