REMARK  Name = ZINC43669942
REMARK  4 active torsions:
REMARK  status: ('A' for Active; 'I' for Inactive)
REMARK    1  A    between atoms: C_2  and  C_11
REMARK    2  A    between atoms: C_11  and  N_12
REMARK    3  A    between atoms: C_13  and  N_20
REMARK    4  A    between atoms: C_14  and  N_17
REMARK                            x       y       z     vdW  Elec       q    Type
REMARK                         _______ _______ _______ _____ _____    ______ ____
ROOT
ATOM      1  C   UNL     1       1.147   3.596   0.010  0.00  0.00    +0.181 C 
ENDROOT
BRANCH   1   3
ATOM      2  C   UNL     1      -0.017   1.381   0.010  0.00  0.00    +0.055 A 
ATOM      3  C   UNL     1       1.171   2.090   0.002  0.00  0.00    -0.021 A 
ATOM      4  C   UNL     1       2.379   1.419  -0.013  0.00  0.00    +0.024 A 
ATOM      5  C   UNL     1       2.406   0.036  -0.021  0.00  0.00    +0.064 A 
ATOM      6  C   UNL     1       1.220  -0.680  -0.014  0.00  0.00    +0.180 A 
ATOM      7  C   UNL     1       0.002  -0.004   0.002  0.00  0.00    +0.168 A 
ATOM      8  O   UNL     1      -1.007  -0.923   0.006  0.00  0.00    -0.453 OA
ATOM      9  C   UNL     1      -0.404  -2.159  -0.419  0.00  0.00    +0.466 C 
ATOM     10  O   UNL     1       0.973  -2.023  -0.020  0.00  0.00    -0.451 OA
ATOM     11 BR   UNL     1       4.061  -0.877  -0.043  0.00  0.00    -0.046 Br
ENDBRANCH   1   3
BRANCH   1  12
ATOM     12  N   UNL     1       1.153   4.077   1.394  0.00  0.00    -0.244 N 
ATOM     13  C   UNL     1       0.062   4.316   2.158  0.00  0.00    +0.145 A 
ATOM     14  C   UNL     1       0.499   4.749   3.373  0.00  0.00    +0.185 A 
ATOM     15  C   UNL     1       1.896   4.772   3.342  0.00  0.00    +0.169 A 
ATOM     16  N   UNL     1       2.288   4.365   2.162  0.00  0.00    -0.175 NA
BRANCH  14  17
ATOM     17  N   UNL     1      -0.355   5.128   4.522  0.00  0.00    +0.061 N 
ATOM     18  O   UNL     1       0.152   5.499   5.555  0.00  0.00    -0.126 OA
ATOM     19  O   UNL     1      -1.558   5.066   4.427  0.00  0.00    -0.126 OA
ENDBRANCH  14  17
BRANCH  13  20
ATOM     20  N   UNL     1      -1.265   4.150   1.772  0.00  0.00    -0.342 N 
ATOM     21  H   UNL     1      -1.474   3.835   0.879  0.00  0.00    +0.144 HD
ATOM     22  H   UNL     1      -1.980   4.350   2.396  0.00  0.00    +0.144 HD
ENDBRANCH  13  20
ENDBRANCH   1  12
TORSDOF 4
