REMARK  Name = ZINC20806704
REMARK  8 active torsions:
REMARK  status: ('A' for Active; 'I' for Inactive)
REMARK    1  A    between atoms: C_9  and  O_34
REMARK    2  A    between atoms: C_10  and  C_11
REMARK    3  A    between atoms: N_12  and  N_13
REMARK    4  A    between atoms: C_17  and  S_20
REMARK    5  A    between atoms: N_18  and  N_19
REMARK    6  A    between atoms: S_20  and  C_21
REMARK    7  A    between atoms: C_21  and  C_22
REMARK    8  A    between atoms: C_22  and  C_24
REMARK                            x       y       z     vdW  Elec       q    Type
REMARK                         _______ _______ _______ _____ _____    ______ ____
ROOT
ATOM      1  N   UNL     1       0.049   0.931   0.778  0.00  0.00    -0.204 N 
ATOM      2  C   UNL     1       1.232   1.646   0.663  0.00  0.00    +0.254 A 
ATOM      3  N   UNL     1       1.358   2.948   0.749  0.00  0.00    -0.109 NA
ATOM      4  N   UNL     1       2.712   3.265   0.580  0.00  0.00    -0.119 NA
ATOM      5  C   UNL     1       3.369   2.146   0.388  0.00  0.00    +0.210 A 
ATOM      6  N   UNL     1       2.472   1.117   0.434  0.00  0.00    -0.211 N 
ATOM      7  H   UNL     1       0.058  -0.165   0.688  0.00  0.00    +0.177 HD
ENDROOT
BRANCH   6   8
ATOM      8  N   UNL     1       2.763  -0.209   0.278  0.00  0.00    -0.294 N 
ATOM      9  H   UNL     1       3.800  -0.527   0.097  0.00  0.00    +0.163 HD
ATOM     10  H   UNL     1       1.960  -0.959   0.334  0.00  0.00    +0.163 HD
ENDBRANCH   6   8
BRANCH   1  12
ATOM     11  C   UNL     1      -2.267   0.936   1.111  0.00  0.00    +0.142 C 
ATOM     12  N   UNL     1      -1.157   1.606   1.008  0.00  0.00    -0.187 NA
BRANCH  11  22
ATOM     13  C   UNL     1      -7.206  -0.430   1.685  0.00  0.00    +0.001 A 
ATOM     14  C   UNL     1      -6.027  -1.135   1.456  0.00  0.00    +0.001 A 
ATOM     15  C   UNL     1      -4.833  -0.486   1.345  0.00  0.00    +0.009 A 
ATOM     16  C   UNL     1      -4.790   0.908   1.464  0.00  0.00    -0.006 A 
ATOM     17  C   UNL     1      -5.986   1.628   1.702  0.00  0.00    -0.017 A 
ATOM     18  C   UNL     1      -7.198   0.926   1.816  0.00  0.00    +0.008 A 
ATOM     19  C   UNL     1      -5.941   3.028   1.814  0.00  0.00    +0.012 A 
ATOM     20  C   UNL     1      -4.763   3.698   1.702  0.00  0.00    +0.046 A 
ATOM     21  C   UNL     1      -3.560   3.033   1.474  0.00  0.00    +0.126 A 
ATOM     22  C   UNL     1      -3.532   1.644   1.352  0.00  0.00    +0.044 A 
BRANCH  21  23
ATOM     23  O   UNL     1      -2.406   3.743   1.368  0.00  0.00    -0.506 OA
ATOM     24  H   UNL     1      -1.455   3.222   1.188  0.00  0.00    +0.292 HD
ENDBRANCH  21  23
ENDBRANCH  11  22
ENDBRANCH   1  12
BRANCH   5  25
ATOM     25  S   UNL     1       5.104   1.997   0.118  0.00  0.00    -0.077 S 
BRANCH  25  26
ATOM     26  C   UNL     1       5.705   3.707   0.174  0.00  0.00    +0.152 C 
BRANCH  26  27
ATOM     27  C   UNL     1       7.196   3.723  -0.046  0.00  0.00    +0.147 C 
ATOM     28  O   UNL     1       7.791   2.687  -0.222  0.00  0.00    -0.296 OA
BRANCH  27  29
ATOM     29  C   UNL     1       7.944   5.031  -0.046  0.00  0.00    +0.062 C 
ATOM     30  C   UNL     1       7.656   5.783  -1.347  0.00  0.00    +0.000 C 
ATOM     31  C   UNL     1       8.415   7.111  -1.347  0.00  0.00    +0.007 C 
ATOM     32  C   UNL     1       9.917   6.840  -1.237  0.00  0.00    -0.010 C 
ATOM     33  C   UNL     1      10.371   5.993  -2.427  0.00  0.00    +0.007 C 
ATOM     34  C   UNL     1       9.612   4.665  -2.427  0.00  0.00    -0.010 C 
ATOM     35  C   UNL     1       8.110   4.936  -2.537  0.00  0.00    +0.007 C 
ATOM     36  C   UNL     1       9.900   3.913  -1.126  0.00  0.00    +0.007 C 
ATOM     37  C   UNL     1       9.446   4.760   0.064  0.00  0.00    +0.000 C 
ATOM     38  C   UNL     1      10.205   6.088   0.064  0.00  0.00    +0.007 C 
ENDBRANCH  27  29
ENDBRANCH  26  27
ENDBRANCH  25  26
ENDBRANCH   5  25
TORSDOF 8
