REMARK  Name = ZINC16183699
REMARK  8 active torsions:
REMARK  status: ('A' for Active; 'I' for Inactive)
REMARK    1  A    between atoms: C_1  and  C_2
REMARK    2  A    between atoms: C_5  and  C_8
REMARK    3  A    between atoms: C_8  and  C_10
REMARK    4  A    between atoms: C_12  and  C_24
REMARK    5  A    between atoms: C_18  and  C_19
REMARK    6  A    between atoms: C_18  and  O_23
REMARK    7  A    between atoms: C_27  and  C_29
REMARK    8  A    between atoms: C_33  and  N_35
REMARK                            x       y       z     vdW  Elec       q    Type
REMARK                         _______ _______ _______ _____ _____    ______ ____
ROOT
ATOM      1  C   UNL     1       0.055  -4.992  -1.331  0.00  0.00    +0.147 C 
ATOM      2  C   UNL     1       1.497  -5.228  -1.791  0.00  0.00    +0.156 C 
ATOM      3  N   UNL     1       2.172  -6.100  -0.829  0.00  0.00    -0.289 N 
ATOM      4  C   UNL     1       1.492  -7.007  -0.113  0.00  0.00    +0.302 C 
ATOM      5  O   UNL     1       2.103  -7.714   0.665  0.00  0.00    -0.253 OA
ATOM      6  N   UNL     1       0.164  -7.164  -0.220  0.00  0.00    -0.264 N 
ATOM      7  C   UNL     1      -0.627  -6.352  -1.146  0.00  0.00    +0.243 C 
ATOM      8  H   UNL     1       3.132  -6.021  -0.708  0.00  0.00    +0.151 HD
ATOM      9  H   UNL     1      -0.281  -7.829   0.328  0.00  0.00    +0.153 HD
ENDROOT
BRANCH   2  10
ATOM     10  C   UNL     1       2.223  -3.909  -1.871  0.00  0.00    +0.127 A 
ATOM     11  C   UNL     1       2.452  -3.205  -2.997  0.00  0.00    +0.047 A 
ATOM     12  C   UNL     1       3.153  -2.042  -2.620  0.00  0.00    +0.050 A 
ATOM     13  C   UNL     1       3.322  -2.105  -1.273  0.00  0.00    +0.135 A 
ATOM     14  O   UNL     1       2.752  -3.243  -0.832  0.00  0.00    -0.458 OA
BRANCH  13  15
ATOM     15  C   UNL     1       4.011  -1.099  -0.437  0.00  0.00    +0.019 A 
ATOM     16  C   UNL     1       4.561   0.042  -1.024  0.00  0.00    +0.012 A 
ATOM     17  C   UNL     1       5.203   0.976  -0.238  0.00  0.00    +0.003 A 
ATOM     18  C   UNL     1       5.303   0.784   1.129  0.00  0.00    +0.033 A 
ATOM     19  C   UNL     1       4.760  -0.344   1.717  0.00  0.00    +0.127 A 
ATOM     20  C   UNL     1       4.110  -1.284   0.943  0.00  0.00    +0.044 A 
BRANCH  19  21
ATOM     21  N   UNL     1       4.872  -0.542   3.179  0.00  0.00    +0.056 N 
ATOM     22  O   UNL     1       5.441   0.289   3.864  0.00  0.00    -0.126 OA
ATOM     23  O   UNL     1       4.394  -1.535   3.698  0.00  0.00    -0.126 OA
ENDBRANCH  19  21
ENDBRANCH  13  15
ENDBRANCH   2  10
BRANCH   7  24
ATOM     24  C   UNL     1      -2.031  -6.147  -0.576  0.00  0.00    +0.436 C 
ATOM     25  F   UNL     1      -2.784  -5.365  -1.459  0.00  0.00    -0.166 F 
ATOM     26  F   UNL     1      -2.653  -7.389  -0.408  0.00  0.00    -0.166 F 
ATOM     27  F   UNL     1      -1.943  -5.498   0.661  0.00  0.00    -0.166 F 
ENDBRANCH   7  24
BRANCH   1  28
ATOM     28  C   UNL     1       0.058  -4.245  -0.021  0.00  0.00    +0.173 C 
ATOM     29  O   UNL     1       0.076  -4.857   1.025  0.00  0.00    -0.292 OA
BRANCH  28  34
ATOM     30  C   UNL     1      -0.018   1.503   0.010  0.00  0.00    +0.044 C 
ATOM     31  C   UNL     1       0.002  -0.004   0.002  0.00  0.00    -0.050 A 
ATOM     32  C   UNL     1      -0.006  -0.686  -1.202  0.00  0.00    +0.004 A 
ATOM     33  C   UNL     1       0.018  -2.065  -1.218  0.00  0.00    +0.011 A 
ATOM     34  C   UNL     1       0.038  -2.774  -0.013  0.00  0.00    +0.018 A 
ATOM     35  C   UNL     1       0.041  -2.078   1.200  0.00  0.00    +0.011 A 
ATOM     36  C   UNL     1       0.023  -0.699   1.199  0.00  0.00    +0.004 A 
ENDBRANCH  28  34
ENDBRANCH   1  28
BRANCH   7  37
ATOM     37  O   UNL     1      -0.715  -7.017  -2.408  0.00  0.00    -0.364 OA
ATOM     38  H   UNL     1      -1.136  -7.886  -2.365  0.00  0.00    +0.212 HD
ENDBRANCH   7  37
TORSDOF 7
