REMARK  Name = ZINC37639537
REMARK  11 active torsions:
REMARK  status: ('A' for Active; 'I' for Inactive)
REMARK    1  A    between atoms: C_1  and  C_2
REMARK    2  A    between atoms: C_2  and  N_3
REMARK    3  A    between atoms: N_3  and  C_4
REMARK    4  A    between atoms: C_4  and  C_5
REMARK    5  A    between atoms: C_6  and  C_8
REMARK    6  A    between atoms: C_8  and  N_9
REMARK    7  A    between atoms: C_12  and  C_15
REMARK    8  A    between atoms: N_23  and  C_26
REMARK    9  A    between atoms: C_26  and  C_27
REMARK   10  A    between atoms: N_29  and  C_30
REMARK   11  A    between atoms: C_35  and  C_36
REMARK                            x       y       z     vdW  Elec       q    Type
REMARK                         _______ _______ _______ _____ _____    ______ ____
ROOT
ATOM      1  N   UNL     1      -2.162  -0.824   3.624  0.00  0.00    -0.278 N 
ATOM      2  C   UNL     1      -2.992   0.129   4.143  0.00  0.00    +0.098 A 
ATOM      3  C   UNL     1      -3.855  -0.154   5.204  0.00  0.00    +0.078 A 
ATOM      4  C   UNL     1      -4.679   0.966   5.648  0.00  0.00    +0.004 A 
ATOM      5  C   UNL     1      -4.550   2.158   5.019  0.00  0.00    +0.056 A 
ATOM      6  S   UNL     1      -3.303   1.837   3.786  0.00  0.00    -0.078 S 
ATOM      7  C   UNL     1      -3.803  -1.540   5.714  0.00  0.00    +0.266 A 
ATOM      8  O   UNL     1      -4.519  -1.883   6.638  0.00  0.00    -0.267 OA
ATOM      9  N   UNL     1      -2.957  -2.418   5.148  0.00  0.00    -0.251 N 
ATOM     10  C   UNL     1      -2.159  -2.076   4.123  0.00  0.00    +0.334 A 
ATOM     11  O   UNL     1      -1.415  -2.909   3.642  0.00  0.00    -0.246 OA
ENDROOT
BRANCH   4  12
ATOM     12  C   UNL     1      -5.638   0.801   6.765  0.00  0.00    -0.017 A 
ATOM     13  C   UNL     1      -6.534  -0.267   6.767  0.00  0.00    +0.008 A 
ATOM     14  C   UNL     1      -7.425  -0.416   7.810  0.00  0.00    +0.001 A 
ATOM     15  C   UNL     1      -7.431   0.493   8.852  0.00  0.00    +0.000 A 
ATOM     16  C   UNL     1      -6.545   1.556   8.856  0.00  0.00    +0.001 A 
ATOM     17  C   UNL     1      -5.646   1.711   7.822  0.00  0.00    +0.008 A 
ENDBRANCH   4  12
BRANCH   1  18
ATOM     18  C   UNL     1      -1.272  -0.485   2.510  0.00  0.00    +0.223 C 
BRANCH  18  20
ATOM     19  N   UNL     1      -1.352  -0.497   0.038  0.00  0.00    -0.301 N 
ATOM     20  C   UNL     1      -1.981  -0.740   1.205  0.00  0.00    +0.236 C 
ATOM     21  O   UNL     1      -3.118  -1.163   1.205  0.00  0.00    -0.274 OA
BRANCH  19  23
ATOM     22  C   UNL     1      -0.005   1.545   0.048  0.00  0.00    +0.024 C 
ATOM     23  C   UNL     1       0.021   0.015   0.038  0.00  0.00    +0.104 C 
ENDBRANCH  19  23
BRANCH  19  24
ATOM     24  C   UNL     1      -2.042  -0.744  -1.231  0.00  0.00    +0.104 C 
ATOM     25  C   UNL     1      -1.778  -2.182  -1.682  0.00  0.00    +0.024 C 
ENDBRANCH  19  24
ENDBRANCH  18  20
ENDBRANCH   1  18
BRANCH   9  26
ATOM     26  C   UNL     1      -2.910  -3.791   5.659  0.00  0.00    +0.226 C 
BRANCH  26  27
ATOM     27  C   UNL     1      -3.905  -4.640   4.910  0.00  0.00    +0.237 C 
ATOM     28  O   UNL     1      -4.587  -4.147   4.036  0.00  0.00    -0.274 OA
ATOM     29  N   UNL     1      -4.037  -5.947   5.212  0.00  0.00    -0.284 N 
ATOM     30  H   UNL     1      -3.438  -6.359   5.854  0.00  0.00    +0.155 HD
BRANCH  29  31
ATOM     31  C   UNL     1      -5.039  -6.708   4.600  0.00  0.00    +0.036 A 
ATOM     32  C   UNL     1      -6.183  -6.089   4.111  0.00  0.00    +0.023 A 
ATOM     33  C   UNL     1      -7.170  -6.843   3.508  0.00  0.00    +0.002 A 
ATOM     34  C   UNL     1      -7.020  -8.213   3.390  0.00  0.00    +0.000 A 
ATOM     35  C   UNL     1      -5.883  -8.832   3.876  0.00  0.00    +0.005 A 
ATOM     36  C   UNL     1      -4.890  -8.083   4.474  0.00  0.00    -0.029 A 
ATOM     37  C   UNL     1      -3.647  -8.757   4.997  0.00  0.00    +0.045 C 
ENDBRANCH  29  31
ENDBRANCH  26  27
ENDBRANCH   9  26
TORSDOF 8
