REMARK  Name = ZINC36611087
REMARK  5 active torsions:
REMARK  status: ('A' for Active; 'I' for Inactive)
REMARK    1  A    between atoms: C_3  and  N_10
REMARK    2  A    between atoms: C_6  and  N_7
REMARK    3  A    between atoms: C_11  and  C_13
REMARK    4  A    between atoms: C_16  and  O_23
REMARK    5  A    between atoms: O_23  and  C_24
REMARK                            x       y       z     vdW  Elec       q    Type
REMARK                         _______ _______ _______ _____ _____    ______ ____
ROOT
ATOM      1  C   UNL     1       4.914   4.040  -0.235  0.00  0.00    +0.094 A 
ATOM      2  C   UNL     1       5.149   5.378  -0.335  0.00  0.00    +0.071 A 
ATOM      3  C   UNL     1       6.468   5.851  -0.442  0.00  0.00    +0.051 A 
ATOM      4  C   UNL     1       6.913   7.199  -0.555  0.00  0.00    +0.137 A 
ATOM      5  C   UNL     1       8.253   7.486  -0.651  0.00  0.00    +0.047 A 
ATOM      6  C   UNL     1       9.211   6.480  -0.642  0.00  0.00    +0.020 A 
ATOM      7  C   UNL     1       8.814   5.162  -0.533  0.00  0.00    +0.032 A 
ATOM      8  C   UNL     1       7.473   4.856  -0.436  0.00  0.00    +0.039 A 
ATOM      9  S   UNL     1       6.556   3.344  -0.277  0.00  0.00    -0.081 S 
ATOM     10 BR   UNL     1      10.106   3.781  -0.519  0.00  0.00    -0.049 Br
ATOM     11 CL   UNL     1       3.821   6.497  -0.332  0.00  0.00    -0.081 Cl
ENDROOT
BRANCH   1  13
ATOM     12  N   UNL     1       3.596   2.000  -0.021  0.00  0.00    -0.266 N 
ATOM     13  C   UNL     1       3.628   3.344  -0.116  0.00  0.00    +0.257 C 
ATOM     14  O   UNL     1       2.591   3.980  -0.103  0.00  0.00    -0.269 OA
ATOM     15  H   UNL     1       4.424   1.498   0.042  0.00  0.00    +0.157 HD
BRANCH  12  18
ATOM     16  C   UNL     1       1.129  -0.710  -0.018  0.00  0.00    +0.037 A 
ATOM     17  C   UNL     1       2.350  -0.059  -0.024  0.00  0.00    +0.046 A 
ATOM     18  C   UNL     1       2.374   1.332  -0.015  0.00  0.00    +0.125 A 
ATOM     19  N   UNL     1       1.247   2.026  -0.001  0.00  0.00    -0.238 NA
ATOM     20  C   UNL     1       0.069   1.432   0.006  0.00  0.00    +0.145 A 
ATOM     21  C   UNL     1      -0.030   0.054  -0.003  0.00  0.00    +0.144 A 
BRANCH  21  22
ATOM     22  N   UNL     1      -1.357  -0.600   0.004  0.00  0.00    +0.058 N 
ATOM     23  O   UNL     1      -1.437  -1.807  -0.004  0.00  0.00    -0.126 OA
ATOM     24  O   UNL     1      -2.363   0.071   0.017  0.00  0.00    -0.126 OA
ENDBRANCH  21  22
ENDBRANCH  12  18
ENDBRANCH   1  13
BRANCH   4  25
ATOM     25  O   UNL     1       6.006   8.209  -0.569  0.00  0.00    -0.434 OA
BRANCH  25  26
ATOM     26  C   UNL     1       6.517   9.538  -0.684  0.00  0.00    +0.541 C 
ATOM     27  F   UNL     1       7.364   9.808   0.396  0.00  0.00    -0.166 F 
ATOM     28  F   UNL     1       7.233   9.660  -1.880  0.00  0.00    -0.166 F 
ENDBRANCH  25  26
ENDBRANCH   4  25
TORSDOF 5
