REMARK  Name = ZINC06824739
REMARK  4 active torsions:
REMARK  status: ('A' for Active; 'I' for Inactive)
REMARK    1  A    between atoms: C_1  and  C_2
REMARK    2  A    between atoms: C_17  and  C_27
REMARK    3  A    between atoms: C_21  and  O_26
REMARK    4  A    between atoms: C_23  and  O_25
REMARK                            x       y       z     vdW  Elec       q    Type
REMARK                         _______ _______ _______ _____ _____    ______ ____
ROOT
ATOM      1  C   UNL     1       3.695   5.578   3.288  0.00  0.00    +0.012 C 
ATOM      2  C   UNL     1       3.828   4.135   3.773  0.00  0.00    -0.026 C 
ATOM      3  C   UNL     1       3.708   4.250   5.276  0.00  0.00    +0.007 C 
ATOM      4  C   UNL     1       4.669   3.391   6.073  0.00  0.00    +0.001 C 
ATOM      5  C   UNL     1       5.134   2.200   5.228  0.00  0.00    +0.000 C 
ATOM      6  C   UNL     1       5.981   2.786   4.094  0.00  0.00    +0.004 C 
ATOM      7  C   UNL     1       5.124   3.667   3.213  0.00  0.00    -0.005 C 
ATOM      8  C   UNL     1       5.173   3.239   1.767  0.00  0.00    +0.004 C 
ATOM      9  C   UNL     1       3.953   2.401   1.365  0.00  0.00    +0.004 C 
ATOM     10  C   UNL     1       2.723   3.241   1.692  0.00  0.00    -0.004 C 
ATOM     11  C   UNL     1       2.630   3.397   3.208  0.00  0.00    -0.001 C 
ATOM     12  C   UNL     1       1.274   3.987   3.566  0.00  0.00    +0.005 C 
ATOM     13  C   UNL     1       0.173   2.939   3.315  0.00  0.00    +0.010 C 
ATOM     14  C   UNL     1       0.547   2.027   2.176  0.00  0.00    -0.001 C 
ATOM     15  C   UNL     1       1.430   2.740   1.130  0.00  0.00    +0.003 C 
ATOM     16  C   UNL     1       1.508   1.681   0.019  0.00  0.00    +0.038 C 
ATOM     17  C   UNL     1       0.062   1.111  -0.021  0.00  0.00    +0.144 C 
ATOM     18  C   UNL     1      -0.636   1.601   1.275  0.00  0.00    +0.149 C 
ATOM     19  C   UNL     1       1.183   0.735   2.696  0.00  0.00    +0.014 C 
ENDROOT
BRANCH  18  20
ATOM     20  O   UNL     1      -1.474   2.720   0.999  0.00  0.00    -0.389 OA
ATOM     21  H   UNL     1      -2.190   2.532   0.377  0.00  0.00    +0.210 HD
ENDBRANCH  18  20
BRANCH  17  22
ATOM     22  O   UNL     1      -0.631   1.606  -1.168  0.00  0.00    -0.389 OA
ATOM     23  H   UNL     1      -0.235   1.344  -2.010  0.00  0.00    +0.210 HD
ENDBRANCH  17  22
TORSDOF 2
