REMARK  Name = ZINC39670503
REMARK  7 active torsions:
REMARK  status: ('A' for Active; 'I' for Inactive)
REMARK    1  A    between atoms: C_1  and  C_2
REMARK    2  A    between atoms: C_7  and  C_11
REMARK    3  A    between atoms: C_11  and  N_12
REMARK    4  A    between atoms: C_13  and  C_15
REMARK    5  A    between atoms: C_26  and  C_28
REMARK    6  A    between atoms: C_28  and  O_29
REMARK    7  A    between atoms: O_29  and  C_30
REMARK                            x       y       z     vdW  Elec       q    Type
REMARK                         _______ _______ _______ _____ _____    ______ ____
ROOT
ATOM      1  C   UNL     1       3.158  -7.609   3.255  0.00  0.00    +0.100 C 
ATOM      2  C   UNL     1       4.014  -6.555   3.992  0.00  0.00    +0.121 C 
ATOM      3  N   UNL     1       4.000  -6.986   5.410  0.00  0.00    -0.297 N 
ATOM      4  C   UNL     1       4.100  -8.464   5.347  0.00  0.00    +0.115 C 
ATOM      5  C   UNL     1       3.220  -8.862   4.145  0.00  0.00    -0.004 C 
ATOM      6  C   UNL     1       3.857 -10.020   3.384  0.00  0.00    -0.010 C 
ATOM      7  C   UNL     1       3.855 -11.270   4.269  0.00  0.00    -0.082 C 
ATOM      8  N   UNL     1       2.475 -11.604   4.644  0.00  0.00    +0.379 N 
ATOM      9  C   UNL     1       1.902 -10.523   5.456  0.00  0.00    -0.082 C 
ATOM     10  C   UNL     1       1.821  -9.242   4.620  0.00  0.00    -0.010 C 
ATOM     11  C   UNL     1       3.915  -6.210   6.508  0.00  0.00    +0.253 C 
ATOM     12  O   UNL     1       3.916  -6.716   7.610  0.00  0.00    -0.272 OA
ATOM     13  H   UNL     1       1.922 -11.726   3.810  0.00  0.00    -0.086 HD
ATOM     14  H   UNL     1       2.471 -12.461   5.176  0.00  0.00    -0.086 HD
ENDROOT
BRANCH   1  16
ATOM     15  N   UNL     1       0.976  -7.550   2.091  0.00  0.00    -0.309 N 
ATOM     16  C   UNL     1       1.735  -7.130   3.123  0.00  0.00    +0.219 C 
ATOM     17  O   UNL     1       1.273  -6.367   3.944  0.00  0.00    -0.275 OA
ATOM     18  H   UNL     1       1.345  -8.160   1.433  0.00  0.00    +0.149 HD
BRANCH  15  19
ATOM     19  C   UNL     1      -0.407  -7.084   1.962  0.00  0.00    +0.159 C 
BRANCH  19  26
ATOM     20  C   UNL     1      -3.084  -8.899  -4.683  0.00  0.00    +0.045 C 
ATOM     21  C   UNL     1      -2.720  -8.977  -3.223  0.00  0.00    -0.034 A 
ATOM     22  C   UNL     1      -3.051 -10.121  -2.480  0.00  0.00    +0.008 A 
ATOM     23  C   UNL     1      -2.720 -10.188  -1.162  0.00  0.00    +0.045 A 
ATOM     24  C   UNL     1      -2.047  -9.104  -0.564  0.00  0.00    +0.115 A 
ATOM     25  N   UNL     1      -1.611  -8.896   0.671  0.00  0.00    -0.342 N 
ATOM     26  C   UNL     1      -1.031  -7.695   0.734  0.00  0.00    +0.051 A 
ATOM     27  C   UNL     1      -1.097  -7.120  -0.487  0.00  0.00    +0.115 A 
ATOM     28  N   UNL     1      -1.737  -8.001  -1.315  0.00  0.00    -0.308 N 
ATOM     29  C   UNL     1      -2.071  -7.949  -2.638  0.00  0.00    +0.096 A 
ATOM     30  H   UNL     1      -1.698  -9.518   1.410  0.00  0.00    +0.167 HD
ENDBRANCH  19  26
ENDBRANCH  15  19
ENDBRANCH   1  16
BRANCH  11  31
ATOM     31  C   UNL     1       3.819  -4.713   6.367  0.00  0.00    +0.324 C 
BRANCH  31  32
ATOM     32  O   UNL     1       3.740  -4.116   7.664  0.00  0.00    -0.483 OA
BRANCH  32  33
ATOM     33  C   UNL     1       3.647  -2.761   7.715  0.00  0.00    +0.123 A 
ATOM     34  C   UNL     1       3.627  -2.022   6.541  0.00  0.00    +0.046 A 
ATOM     35  C   UNL     1       3.533  -0.644   6.595  0.00  0.00    +0.005 A 
ATOM     36  C   UNL     1       3.459  -0.003   7.817  0.00  0.00    +0.020 A 
ATOM     37  C   UNL     1       3.479  -0.738   8.989  0.00  0.00    +0.044 A 
ATOM     38  C   UNL     1       3.568  -2.117   8.940  0.00  0.00    +0.065 A 
ATOM     39 CL   UNL     1       3.386   0.072  10.523  0.00  0.00    -0.083 Cl
ENDBRANCH  32  33
ENDBRANCH  31  32
ENDBRANCH  11  31
TORSDOF 6
