REMARK  Name = ZINC00866483
REMARK  5 active torsions:
REMARK  status: ('A' for Active; 'I' for Inactive)
REMARK    1  A    between atoms: C_3  and  C_6
REMARK    2  A    between atoms: C_9  and  C_31
REMARK    3  A    between atoms: C_13  and  C_16
REMARK    4  A    between atoms: N_18  and  C_19
REMARK    5  A    between atoms: C_20  and  C_28
REMARK                            x       y       z     vdW  Elec       q    Type
REMARK                         _______ _______ _______ _____ _____    ______ ____
ROOT
ATOM      1  C   UNL     1       3.761   1.845  -0.024  0.00  0.00    +0.111 C 
ATOM      2  C   UNL     1       4.320   1.781  -1.450  0.00  0.00    +0.063 C 
ATOM      3  C   UNL     1       4.236   0.344  -1.977  0.00  0.00    +0.215 C 
ATOM      4  N   UNL     1       4.806  -0.562  -0.975  0.00  0.00    -0.238 N 
ATOM      5  C   UNL     1       4.966  -0.233   0.330  0.00  0.00    +0.130 A 
ATOM      6  C   UNL     1       5.529  -1.322   0.969  0.00  0.00    +0.096 A 
ATOM      7  C   UNL     1       5.702  -2.329  -0.015  0.00  0.00    +0.149 A 
ATOM      8  N   UNL     1       5.269  -1.864  -1.155  0.00  0.00    -0.177 NA
ATOM      9  N   UNL     1       4.598   1.000   0.849  0.00  0.00    -0.321 N 
ATOM     10  H   UNL     1       4.876   1.293   1.732  0.00  0.00    +0.148 HD
ENDROOT
BRANCH   1  13
ATOM     11  C   UNL     1      -0.016   1.351   0.009  0.00  0.00    +0.008 A 
ATOM     12  C   UNL     1       1.183   2.038   0.002  0.00  0.00    +0.013 A 
ATOM     13  C   UNL     1       2.343   1.336  -0.013  0.00  0.00    +0.010 A 
ATOM     14  S   UNL     1       1.754  -0.349  -0.017  0.00  0.00    -0.100 S 
ATOM     15  C   UNL     1       0.002  -0.004   0.002  0.00  0.00    +0.045 A 
ENDBRANCH   1  13
BRANCH   6  16
ATOM     16  C   UNL     1       5.881  -1.417   2.390  0.00  0.00    +0.253 C 
ATOM     17  O   UNL     1       5.680  -0.473   3.131  0.00  0.00    -0.270 OA
ATOM     18  N   UNL     1       6.427  -2.550   2.875  0.00  0.00    -0.275 N 
ATOM     19  H   UNL     1       6.588  -3.302   2.284  0.00  0.00    +0.156 HD
BRANCH  18  20
ATOM     20  C   UNL     1       6.760  -2.640   4.219  0.00  0.00    +0.090 A 
ATOM     21  C   UNL     1       7.329  -3.713   4.885  0.00  0.00    +0.084 A 
ATOM     22  C   UNL     1       7.581  -3.554   6.306  0.00  0.00    -0.018 A 
ATOM     23  C   UNL     1       7.217  -2.351   6.801  0.00  0.00    -0.004 A 
ATOM     24  S   UNL     1       6.572  -1.470   5.409  0.00  0.00    -0.077 S 
ATOM     25  C   UNL     1       7.345  -1.885   8.218  0.00  0.00    +0.043 C 
ATOM     26  C   UNL     1       7.604  -3.110   9.107  0.00  0.00    +0.005 C 
ATOM     27  C   UNL     1       8.715  -3.955   8.475  0.00  0.00    +0.005 C 
ATOM     28  C   UNL     1       8.200  -4.621   7.198  0.00  0.00    +0.037 C 
BRANCH  21  29
ATOM     29  C   UNL     1       7.655  -4.928   4.201  0.00  0.00    +0.102 C 
ATOM     30  N   UNL     1       7.914  -5.891   3.658  0.00  0.00    -0.191 NA
ENDBRANCH  21  29
ENDBRANCH  18  20
ENDBRANCH   6  16
BRANCH   3  31
ATOM     31  C   UNL     1       5.025   0.230  -3.283  0.00  0.00    +0.412 C 
ATOM     32  F   UNL     1       6.364   0.562  -3.049  0.00  0.00    -0.168 F 
ATOM     33  F   UNL     1       4.947  -1.082  -3.761  0.00  0.00    -0.168 F 
ATOM     34  F   UNL     1       4.486   1.105  -4.232  0.00  0.00    -0.168 F 
ENDBRANCH   3  31
TORSDOF 5
