REMARK  Name = ZINC38971825
REMARK  9 active torsions:
REMARK  status: ('A' for Active; 'I' for Inactive)
REMARK    1  A    between atoms: C_1  and  C_2
REMARK    2  A    between atoms: C_2  and  C_3
REMARK    3  A    between atoms: C_2  and  C_4
REMARK    4  A    between atoms: C_7  and  N_10
REMARK    5  A    between atoms: N_10  and  C_11
REMARK    6  A    between atoms: N_14  and  S_15
REMARK    7  A    between atoms: S_15  and  C_18
REMARK    8  A    between atoms: C_21  and  O_24
REMARK    9  A    between atoms: O_24  and  C_25
REMARK                            x       y       z     vdW  Elec       q    Type
REMARK                         _______ _______ _______ _____ _____    ______ ____
ROOT
ATOM      1  C   UNL     1      -5.829  -2.723  -1.104  0.00  0.00    +0.237 C 
ATOM      2  C   UNL     1      -7.105  -2.056  -1.565  0.00  0.00    +0.192 C 
ATOM      3  N   UNL     1      -7.104  -0.805  -1.922  0.00  0.00    -0.110 NA
ATOM      4  N   UNL     1      -8.239  -2.773  -1.600  0.00  0.00    -0.226 NA
ATOM      5  C   UNL     1      -8.265  -4.041  -1.244  0.00  0.00    +0.089 A 
ATOM      6  C   UNL     1      -9.482  -4.768  -1.294  0.00  0.00    +0.030 A 
ATOM      7  C   UNL     1      -9.515  -6.069  -0.929  0.00  0.00    +0.002 A 
ATOM      8  C   UNL     1      -8.376  -6.764  -0.489  0.00  0.00    +0.002 A 
ATOM      9  C   UNL     1      -7.168  -6.165  -0.403  0.00  0.00    +0.027 A 
ATOM     10  C   UNL     1      -7.047  -4.750  -0.783  0.00  0.00    +0.063 A 
ATOM     11  N   UNL     1      -5.897  -4.140  -0.714  0.00  0.00    -0.359 N 
ATOM     12  H   UNL     1      -5.104  -4.610  -0.411  0.00  0.00    +0.162 HD
ENDROOT
BRANCH   3  13
ATOM     13  S   UNL     1      -8.509  -0.087  -2.425  0.00  0.00    +0.100 S 
ATOM     14  O   UNL     1      -8.875  -0.720  -3.643  0.00  0.00    -0.146 OA
ATOM     15  O   UNL     1      -9.372  -0.049  -1.296  0.00  0.00    -0.146 OA
BRANCH  13  16
ATOM     16  C   UNL     1      -8.125   1.586  -2.821  0.00  0.00    +0.113 A 
ATOM     17  C   UNL     1      -8.208   2.563  -1.847  0.00  0.00    +0.032 A 
ATOM     18  C   UNL     1      -7.908   3.876  -2.156  0.00  0.00    +0.047 A 
ATOM     19  C   UNL     1      -7.523   4.214  -3.445  0.00  0.00    +0.120 A 
ATOM     20  C   UNL     1      -7.440   3.231  -4.421  0.00  0.00    +0.047 A 
ATOM     21  C   UNL     1      -7.736   1.919  -4.106  0.00  0.00    +0.032 A 
BRANCH  19  22
ATOM     22  O   UNL     1      -7.228   5.504  -3.751  0.00  0.00    -0.495 OA
ATOM     23  C   UNL     1      -6.838   5.778  -5.099  0.00  0.00    +0.277 C 
ENDBRANCH  19  22
ENDBRANCH  13  16
ENDBRANCH   3  13
BRANCH   1  24
ATOM     24  N   UNL     1      -5.318  -1.967   0.043  0.00  0.00    -0.318 N 
ATOM     25  H   UNL     1      -5.900  -1.772   0.793  0.00  0.00    +0.148 HD
BRANCH  24  29
ATOM     26  C   UNL     1      -1.366  -0.657   0.078  0.00  0.00    -0.045 A 
ATOM     27  C   UNL     1      -1.801  -1.509  -0.920  0.00  0.00    +0.006 A 
ATOM     28  C   UNL     1      -3.111  -1.946  -0.935  0.00  0.00    +0.023 A 
ATOM     29  C   UNL     1      -3.992  -1.528   0.055  0.00  0.00    +0.029 A 
ATOM     30  C   UNL     1      -3.552  -0.672   1.056  0.00  0.00    +0.023 A 
ATOM     31  C   UNL     1      -2.239  -0.243   1.068  0.00  0.00    +0.006 A 
BRANCH  26  33
ATOM     32  C   UNL     1       1.001  -1.388   0.192  0.00  0.00    +0.012 C 
ATOM     33  C   UNL     1       0.064  -0.182   0.091  0.00  0.00    +0.013 C 
ATOM     34  C   UNL     1       0.359   0.586  -1.199  0.00  0.00    +0.012 C 
ENDBRANCH  26  33
ENDBRANCH  24  29
ENDBRANCH   1  24
TORSDOF 6
