REMARK  Name = ZINC39595481
REMARK  11 active torsions:
REMARK  status: ('A' for Active; 'I' for Inactive)
REMARK    1  A    between atoms: C_1  and  C_2
REMARK    2  A    between atoms: C_2  and  C_3
REMARK    3  A    between atoms: C_3  and  C_4
REMARK    4  A    between atoms: C_4  and  C_6
REMARK    5  A    between atoms: C_4  and  C_7
REMARK    6  A    between atoms: C_11  and  C_20
REMARK    7  A    between atoms: N_22  and  C_23
REMARK    8  A    between atoms: C_23  and  C_24
REMARK    9  A    between atoms: C_24  and  C_26
REMARK   10  A    between atoms: C_24  and  O_27
REMARK   11  A    between atoms: O_27  and  C_28
REMARK                            x       y       z     vdW  Elec       q    Type
REMARK                         _______ _______ _______ _____ _____    ______ ____
ROOT
ATOM      1  C   UNL     1      -2.843  -2.575   0.148  0.00  0.00    +0.218 C 
ATOM      2  O   UNL     1      -3.767  -1.795   0.248  0.00  0.00    -0.275 OA
ATOM      3  N   UNL     1      -3.077  -3.902   0.166  0.00  0.00    -0.300 N 
ATOM      4  C   UNL     1      -2.087  -5.000   0.063  0.00  0.00    +0.121 C 
ATOM      5  C   UNL     1      -2.585  -6.070   1.061  0.00  0.00    +0.100 C 
ATOM      6  C   UNL     1      -4.092  -5.799   1.206  0.00  0.00    -0.004 C 
ATOM      7  C   UNL     1      -4.382  -4.594   0.299  0.00  0.00    +0.115 C 
ATOM      8  C   UNL     1      -4.894  -7.013   0.745  0.00  0.00    -0.010 C 
ATOM      9  C   UNL     1      -6.386  -6.741   0.954  0.00  0.00    -0.082 C 
ATOM     10  N   UNL     1      -6.643  -6.471   2.373  0.00  0.00    +0.379 N 
ATOM     11  C   UNL     1      -5.942  -5.248   2.784  0.00  0.00    -0.082 C 
ATOM     12  C   UNL     1      -4.430  -5.457   2.654  0.00  0.00    -0.010 C 
ATOM     13  H   UNL     1      -7.635  -6.352   2.518  0.00  0.00    -0.086 HD
ATOM     14  H   UNL     1      -6.316  -7.247   2.927  0.00  0.00    -0.086 HD
ENDROOT
BRANCH   5  15
ATOM     15  C   UNL     1      -1.891  -5.912   2.389  0.00  0.00    +0.218 C 
ATOM     16  O   UNL     1      -1.446  -4.832   2.717  0.00  0.00    -0.275 OA
ATOM     17  N   UNL     1      -1.765  -6.971   3.213  0.00  0.00    -0.312 N 
ATOM     18  H   UNL     1      -2.120  -7.835   2.951  0.00  0.00    +0.149 HD
BRANCH  17  19
ATOM     19  C   UNL     1      -1.090  -6.818   4.505  0.00  0.00    +0.148 C 
BRANCH  19  20
ATOM     20  C   UNL     1      -1.082  -8.161   5.238  0.00  0.00    +0.187 C 
ATOM     21  C   UNL     1      -0.378  -8.001   6.587  0.00  0.00    +0.053 C 
BRANCH  20  22
ATOM     22  O   UNL     1      -2.427  -8.594   5.452  0.00  0.00    -0.488 OA
BRANCH  22  23
ATOM     23  C   UNL     1      -2.629  -9.931   5.597  0.00  0.00    +0.121 A 
ATOM     24  C   UNL     1      -3.919 -10.432   5.688  0.00  0.00    +0.048 A 
ATOM     25  C   UNL     1      -4.122 -11.791   5.835  0.00  0.00    +0.042 A 
ATOM     26  C   UNL     1      -3.040 -12.652   5.891  0.00  0.00    +0.124 A 
ATOM     27  C   UNL     1      -1.751 -12.152   5.801  0.00  0.00    +0.042 A 
ATOM     28  C   UNL     1      -1.545 -10.795   5.647  0.00  0.00    +0.048 A 
ATOM     29  F   UNL     1      -3.240 -13.980   6.036  0.00  0.00    -0.205 F 
ENDBRANCH  22  23
ENDBRANCH  20  22
ENDBRANCH  19  20
ENDBRANCH  17  19
ENDBRANCH   5  15
BRANCH   1  30
ATOM     30  C   UNL     1      -1.435  -2.060   0.003  0.00  0.00    +0.072 C 
ATOM     31  C   UNL     1      -0.843  -2.557  -1.318  0.00  0.00    +0.017 C 
BRANCH  30  32
ATOM     32  C   UNL     1      -1.448  -0.530   0.011  0.00  0.00    +0.012 C 
BRANCH  32  34
ATOM     33  C   UNL     1      -0.023   1.523  -0.002  0.00  0.00    +0.004 C 
ATOM     34  C   UNL     1      -0.010  -0.007  -0.011  0.00  0.00    -0.003 C 
ENDBRANCH  32  34
ENDBRANCH  30  32
ENDBRANCH   1  30
TORSDOF 8
