REMARK  Name = ZINC20882470
REMARK  7 active torsions:
REMARK  status: ('A' for Active; 'I' for Inactive)
REMARK    1  A    between atoms: C_1  and  C_2
REMARK    2  A    between atoms: C_2  and  C_3
REMARK    3  A    between atoms: C_2  and  C_4
REMARK    4  A    between atoms: C_4  and  O_5
REMARK    5  A    between atoms: O_5  and  C_6
REMARK    6  A    between atoms: C_9  and  C_12
REMARK    7  A    between atoms: C_17  and  C_27
REMARK                            x       y       z     vdW  Elec       q    Type
REMARK                         _______ _______ _______ _____ _____    ______ ____
ROOT
ATOM      1  C   UNL     1       3.713   5.556   3.759  0.00  0.00    +0.032 C 
ATOM      2  C   UNL     1       2.327   6.177   3.599  0.00  0.00    +0.059 C 
ATOM      3  C   UNL     1       1.856   6.030   2.162  0.00  0.00    +0.017 C 
ATOM      4  C   UNL     1       2.216   4.961   1.434  0.00  0.00    +0.036 C 
ATOM      5  C   UNL     1       1.801   4.678   0.009  0.00  0.00    +0.138 C 
ATOM      6  N   UNL     1       1.166   5.792  -0.662  0.00  0.00    -0.331 N 
ATOM      7  C   UNL     1      -0.060   6.292  -0.227  0.00  0.00    +0.049 A 
ATOM      8  C   UNL     1      -1.207   6.156  -0.991  0.00  0.00    +0.025 A 
ATOM      9  C   UNL     1      -2.422   6.571  -0.473  0.00  0.00    +0.002 A 
ATOM     10  C   UNL     1      -2.493   7.117   0.795  0.00  0.00    +0.002 A 
ATOM     11  C   UNL     1      -1.344   7.273   1.553  0.00  0.00    +0.025 A 
ATOM     12  C   UNL     1      -0.127   6.875   1.030  0.00  0.00    +0.052 A 
ATOM     13  N   UNL     1       1.069   7.043   1.718  0.00  0.00    -0.316 N 
ATOM     14  C   UNL     1       3.063   3.973   1.989  0.00  0.00    +0.163 C 
ATOM     15  O   UNL     1       3.360   3.008   1.312  0.00  0.00    -0.292 OA
ATOM     16  C   UNL     1       3.606   4.073   3.383  0.00  0.00    +0.088 C 
ATOM     17  H   UNL     1       1.651   6.259  -1.532  0.00  0.00    +0.147 HD
ATOM     18  H   UNL     1       1.364   8.088   1.897  0.00  0.00    +0.152 HD
ENDROOT
BRANCH   5  19
ATOM     19  C   UNL     1       0.844   3.513   0.013  0.00  0.00    +0.002 A 
ATOM     20  C   UNL     1       0.184   3.026   1.075  0.00  0.00    +0.089 A 
ATOM     21  N   UNL     1      -0.598   1.970   0.694  0.00  0.00    -0.360 N 
ATOM     22  H   UNL     1      -1.219   1.448   1.438  0.00  0.00    +0.165 HD
ATOM     23  C   UNL     1      -0.450   1.741  -0.656  0.00  0.00    +0.047 A 
ATOM     24  C   UNL     1       0.457   2.700  -1.142  0.00  0.00    +0.005 A 
ATOM     25  C   UNL     1       0.798   2.713  -2.496  0.00  0.00    +0.010 A 
ATOM     26  C   UNL     1       0.248   1.792  -3.343  0.00  0.00    +0.001 A 
ATOM     27  C   UNL     1      -0.648   0.844  -2.868  0.00  0.00    +0.002 A 
ATOM     28  C   UNL     1      -0.998   0.813  -1.536  0.00  0.00    +0.026 A 
ENDBRANCH   5  19
BRANCH   1  32
ATOM     29  C   UNL     1       5.009   5.930   7.814  0.00  0.00    +0.121 A 
ATOM     30  C   UNL     1       5.768   6.476   6.789  0.00  0.00    +0.046 A 
ATOM     31  C   UNL     1       5.347   6.354   5.479  0.00  0.00    +0.007 A 
ATOM     32  C   UNL     1       4.170   5.688   5.189  0.00  0.00    -0.043 A 
ATOM     33  C   UNL     1       3.410   5.147   6.210  0.00  0.00    +0.007 A 
ATOM     34  C   UNL     1       3.829   5.262   7.521  0.00  0.00    +0.046 A 
BRANCH  29  35
ATOM     35  O   UNL     1       5.421   6.049   9.104  0.00  0.00    -0.492 OA
BRANCH  35  36
ATOM     36  C   UNL     1       4.590   5.462  10.107  0.00  0.00    +0.232 C 
BRANCH  36  38
ATOM     37  C   UNL     1       5.221   7.194  11.793  0.00  0.00    +0.010 C 
ATOM     38  C   UNL     1       5.212   5.696  11.486  0.00  0.00    +0.020 C 
ATOM     39  C   UNL     1       4.390   4.962  12.547  0.00  0.00    +0.010 C 
ENDBRANCH  36  38
ENDBRANCH  35  36
ENDBRANCH  29  35
ENDBRANCH   1  32
TORSDOF 5
