REMARK  Name = ZINC40082036
REMARK  2 active torsions:
REMARK  status: ('A' for Active; 'I' for Inactive)
REMARK    1  A    between atoms: C_6  and  C_7
REMARK    2  A    between atoms: C_9  and  C_17
REMARK                            x       y       z     vdW  Elec       q    Type
REMARK                         _______ _______ _______ _____ _____    ______ ____
ROOT
ATOM      1  C   UNL     1      -1.267  -0.763   0.011  0.00  0.00    +0.142 A 
ATOM      2  N   UNL     1      -2.435  -0.297   0.384  0.00  0.00    -0.223 NA
ATOM      3  C   UNL     1      -3.362  -1.270   0.249  0.00  0.00    +0.147 A 
ATOM      4  C   UNL     1      -2.733  -2.380  -0.230  0.00  0.00    +0.051 A 
ATOM      5  N   UNL     1      -1.419  -2.065  -0.374  0.00  0.00    -0.327 N 
ATOM      6  C   UNL     1      -0.361  -2.967  -0.840  0.00  0.00    +0.123 C 
ATOM      7  C   UNL     1      -0.964  -4.021  -1.771  0.00  0.00    +0.022 C 
ATOM      8  C   UNL     1      -1.421  -5.231  -0.957  0.00  0.00    +0.002 C 
ATOM      9  C   UNL     1      -2.503  -4.827   0.039  0.00  0.00    +0.006 C 
ATOM     10  C   UNL     1      -3.358  -3.711  -0.556  0.00  0.00    +0.056 C 
ENDROOT
BRANCH   3  11
ATOM     11  C   UNL     1      -4.796  -1.154   0.565  0.00  0.00    +0.270 C 
ATOM     12  O   UNL     1      -5.535  -2.106   0.402  0.00  0.00    -0.268 OA
ATOM     13  N   UNL     1      -5.290   0.009   1.036  0.00  0.00    -0.260 N 
ATOM     14  C   UNL     1      -6.635   0.118   1.332  0.00  0.00    +0.156 C 
ATOM     15  N   UNL     1      -7.544  -0.805   1.217  0.00  0.00    -0.262 NA
ATOM     16  C   UNL     1      -8.933  -0.540   1.545  0.00  0.00    +0.155 C 
ATOM     17  C   UNL     1      -9.066   0.727   2.433  0.00  0.00    +0.100 C 
ATOM     18  S   UNL     1      -7.489   1.554   1.961  0.00  0.00    -0.089 S 
ATOM     19  H   UNL     1      -4.701   0.768   1.167  0.00  0.00    +0.157 HD
ENDBRANCH   3  11
BRANCH   1  25
ATOM     20  C   UNL     1      -0.017   1.391   0.011  0.00  0.00    +0.014 A 
ATOM     21  C   UNL     1       1.169   2.095   0.003  0.00  0.00    +0.039 A 
ATOM     22  C   UNL     1       2.379   1.418  -0.013  0.00  0.00    +0.123 A 
ATOM     23  C   UNL     1       2.403   0.032  -0.022  0.00  0.00    +0.039 A 
ATOM     24  C   UNL     1       1.222  -0.680  -0.015  0.00  0.00    +0.014 A 
ATOM     25  C   UNL     1       0.002  -0.004   0.002  0.00  0.00    +0.018 A 
ATOM     26  F   UNL     1       3.538   2.112  -0.020  0.00  0.00    -0.205 F 
ENDBRANCH   1  25
TORSDOF 2
