REMARK  Name = ZINC57519153
REMARK  10 active torsions:
REMARK  status: ('A' for Active; 'I' for Inactive)
REMARK    1  A    between atoms: C_1  and  C_2
REMARK    2  A    between atoms: C_2  and  N_3
REMARK    3  A    between atoms: N_3  and  C_4
REMARK    4  A    between atoms: C_4  and  C_5
REMARK    5  A    between atoms: C_9  and  C_12
REMARK    6  A    between atoms: C_12  and  N_13
REMARK    7  A    between atoms: C_14  and  C_16
REMARK    8  A    between atoms: C_21  and  S_22
REMARK    9  A    between atoms: S_22  and  C_23
REMARK   10  A    between atoms: C_23  and  C_24
REMARK                            x       y       z     vdW  Elec       q    Type
REMARK                         _______ _______ _______ _____ _____    ______ ____
ROOT
ATOM      1  N   UNL     1      -4.766  -0.339   5.272  0.00  0.00    -0.307 N 
ATOM      2  C   UNL     1      -5.508  -0.361   6.397  0.00  0.00    +0.245 C 
ATOM      3  O   UNL     1      -5.575  -1.377   7.061  0.00  0.00    -0.270 OA
ATOM      4  H   UNL     1      -4.712   0.472   4.742  0.00  0.00    +0.149 HD
ENDROOT
BRANCH   2   5
ATOM      5  C   UNL     1      -6.237   0.847   6.822  0.00  0.00    +0.050 A 
ATOM      6  C   UNL     1      -6.167   2.016   6.059  0.00  0.00    +0.014 A 
ATOM      7  C   UNL     1      -6.851   3.142   6.462  0.00  0.00    +0.001 A 
ATOM      8  C   UNL     1      -7.610   3.123   7.622  0.00  0.00    +0.001 A 
ATOM      9  C   UNL     1      -7.689   1.978   8.387  0.00  0.00    +0.015 A 
ATOM     10  C   UNL     1      -7.012   0.829   7.993  0.00  0.00    +0.020 A 
BRANCH  10  11
ATOM     11  S   UNL     1      -7.118  -0.638   8.963  0.00  0.00    -0.115 S 
BRANCH  11  12
ATOM     12  C   UNL     1      -8.206  -0.177  10.339  0.00  0.00    +0.169 C 
BRANCH  12  13
ATOM     13  C   UNL     1      -8.382  -1.359  11.258  0.00  0.00    +0.221 C 
ATOM     14  O   UNL     1      -7.829  -2.409  11.008  0.00  0.00    -0.275 OA
ATOM     15  N   UNL     1      -9.155  -1.249  12.356  0.00  0.00    -0.329 N 
ATOM     16  H   UNL     1      -9.598  -0.409  12.556  0.00  0.00    +0.145 HD
ATOM     17  H   UNL     1      -9.269  -2.010  12.947  0.00  0.00    +0.145 HD
ENDBRANCH  12  13
ENDBRANCH  11  12
ENDBRANCH  10  11
ENDBRANCH   2   5
BRANCH   1  18
ATOM     18  C   UNL     1      -4.041  -1.540   4.849  0.00  0.00    +0.141 C 
BRANCH  18  23
ATOM     19  N   UNL     1      -1.372  -0.511   0.012  0.00  0.00    -0.317 N 
ATOM     20  C   UNL     1      -2.013  -0.758   1.221  0.00  0.00    +0.099 A 
ATOM     21  C   UNL     1      -1.345  -0.516   2.417  0.00  0.00    +0.042 A 
ATOM     22  C   UNL     1      -1.994  -0.766   3.613  0.00  0.00    +0.010 A 
ATOM     23  C   UNL     1      -3.295  -1.252   3.571  0.00  0.00    -0.014 A 
ATOM     24  C   UNL     1      -3.897  -1.469   2.349  0.00  0.00    +0.089 A 
ATOM     25  N   UNL     1      -3.255  -1.216   1.224  0.00  0.00    -0.349 N 
ATOM     26  H   UNL     1      -3.703  -1.374   0.378  0.00  0.00    +0.167 HD
BRANCH  19  28
ATOM     27  C   UNL     1      -0.019   1.526   0.010  0.00  0.00    +0.024 C 
ATOM     28  C   UNL     1       0.002  -0.004   0.002  0.00  0.00    +0.103 C 
ENDBRANCH  19  28
BRANCH  19  29
ATOM     29  C   UNL     1      -2.072  -0.758  -1.251  0.00  0.00    +0.103 C 
ATOM     30  C   UNL     1      -1.816  -2.197  -1.703  0.00  0.00    +0.024 C 
ENDBRANCH  19  29
ENDBRANCH  18  23
ENDBRANCH   1  18
TORSDOF 8
