REMARK  Name = ZINC39694744
REMARK  8 active torsions:
REMARK  status: ('A' for Active; 'I' for Inactive)
REMARK    1  A    between atoms: C_1  and  C_2
REMARK    2  A    between atoms: C_4  and  C_36
REMARK    3  A    between atoms: C_6  and  C_8
REMARK    4  A    between atoms: C_8  and  N_9
REMARK    5  A    between atoms: C_10  and  C_12
REMARK    6  A    between atoms: C_23  and  C_25
REMARK    7  A    between atoms: C_28  and  O_31
REMARK    8  A    between atoms: O_31  and  C_32
REMARK                            x       y       z     vdW  Elec       q    Type
REMARK                         _______ _______ _______ _____ _____    ______ ____
ROOT
ATOM      1  C   UNL     1       2.762  -4.491   4.191  0.00  0.00    +0.100 C 
ATOM      2  C   UNL     1       3.742  -5.258   3.276  0.00  0.00    +0.121 C 
ATOM      3  N   UNL     1       4.612  -6.013   4.208  0.00  0.00    -0.296 N 
ATOM      4  C   UNL     1       3.693  -6.481   5.274  0.00  0.00    +0.115 C 
ATOM      5  C   UNL     1       2.732  -5.297   5.501  0.00  0.00    -0.004 C 
ATOM      6  C   UNL     1       1.321  -5.810   5.774  0.00  0.00    -0.010 C 
ATOM      7  C   UNL     1       1.304  -6.558   7.110  0.00  0.00    -0.082 C 
ATOM      8  N   UNL     1       1.734  -5.654   8.184  0.00  0.00    +0.379 N 
ATOM      9  C   UNL     1       3.125  -5.240   7.962  0.00  0.00    -0.082 C 
ATOM     10  C   UNL     1       3.219  -4.436   6.662  0.00  0.00    -0.010 C 
ATOM     11  C   UNL     1       5.940  -6.226   4.110  0.00  0.00    +0.247 C 
ATOM     12  O   UNL     1       6.582  -5.667   3.242  0.00  0.00    -0.270 OA
ATOM     13  H   UNL     1       1.140  -4.840   8.195  0.00  0.00    -0.086 HD
ATOM     14  H   UNL     1       1.664  -6.131   9.071  0.00  0.00    -0.086 HD
ENDROOT
BRANCH  11  15
ATOM     15  C   UNL     1       6.613  -7.137   5.057  0.00  0.00    +0.037 A 
ATOM     16  C   UNL     1       5.873  -8.096   5.752  0.00  0.00    +0.016 A 
ATOM     17  C   UNL     1       6.505  -8.944   6.634  0.00  0.00    +0.047 A 
ATOM     18  C   UNL     1       7.877  -8.847   6.833  0.00  0.00    +0.130 A 
ATOM     19  C   UNL     1       8.617  -7.894   6.143  0.00  0.00    +0.047 A 
ATOM     20  C   UNL     1       7.993  -7.046   5.255  0.00  0.00    +0.016 A 
BRANCH  18  21
ATOM     21  O   UNL     1       8.496  -9.684   7.703  0.00  0.00    -0.406 OA
BRANCH  21  22
ATOM     22  C   UNL     1       9.908  -9.530   7.859  0.00  0.00    +0.575 C 
ATOM     23  F   UNL     1      10.187  -8.238   8.317  0.00  0.00    -0.133 F 
ATOM     24  F   UNL     1      10.379 -10.465   8.786  0.00  0.00    -0.133 F 
ATOM     25  F   UNL     1      10.538  -9.735   6.628  0.00  0.00    -0.133 F 
ENDBRANCH  21  22
ENDBRANCH  18  21
ENDBRANCH  11  15
BRANCH   1  27
ATOM     26  N   UNL     1       0.571  -3.406   3.816  0.00  0.00    -0.311 N 
ATOM     27  C   UNL     1       1.389  -4.448   3.570  0.00  0.00    +0.218 C 
ATOM     28  O   UNL     1       1.021  -5.351   2.849  0.00  0.00    -0.275 OA
ATOM     29  H   UNL     1       0.866  -2.683   4.393  0.00  0.00    +0.149 HD
BRANCH  26  30
ATOM     30  C   UNL     1      -0.763  -3.363   3.213  0.00  0.00    +0.139 C 
BRANCH  30  36
ATOM     31  C   UNL     1      -3.733  -0.945   6.433  0.00  0.00    +0.044 C 
ATOM     32  C   UNL     1      -2.891  -0.947   5.184  0.00  0.00    -0.050 A 
ATOM     33  C   UNL     1      -2.767   0.207   4.432  0.00  0.00    +0.006 A 
ATOM     34  C   UNL     1      -1.994   0.205   3.286  0.00  0.00    -0.050 A 
ATOM     35  C   UNL     1      -1.346  -0.951   2.891  0.00  0.00    +0.008 A 
ATOM     36  C   UNL     1      -1.470  -2.104   3.643  0.00  0.00    -0.030 A 
ATOM     37  C   UNL     1      -2.239  -2.101   4.792  0.00  0.00    +0.008 A 
ATOM     38  C   UNL     1      -1.859   1.462   2.466  0.00  0.00    +0.044 C 
ENDBRANCH  30  36
ENDBRANCH  26  30
ENDBRANCH   1  27
TORSDOF 6
