REMARK  Name = ZINC15673695
REMARK  13 active torsions:
REMARK  status: ('A' for Active; 'I' for Inactive)
REMARK    1  A    between atoms: C_1  and  C_2
REMARK    2  A    between atoms: N_4  and  C_5
REMARK    3  A    between atoms: C_5  and  C_6
REMARK    4  A    between atoms: C_6  and  N_7
REMARK    5  A    between atoms: C_8  and  C_10
REMARK    6  A    between atoms: C_10  and  C_11
REMARK    7  A    between atoms: C_16  and  C_18
REMARK    8  A    between atoms: C_18  and  C_19
REMARK    9  A    between atoms: C_21  and  C_24
REMARK   10  A    between atoms: C_27  and  C_30
REMARK   11  A    between atoms: C_30  and  C_31
REMARK   12  A    between atoms: C_30  and  C_32
REMARK   13  A    between atoms: C_30  and  C_33
REMARK                            x       y       z     vdW  Elec       q    Type
REMARK                         _______ _______ _______ _____ _____    ______ ____
ROOT
ATOM      1  C   UNL     1       3.706  -4.006  10.284  0.00  0.00    -0.002 C 
ATOM      2  C   UNL     1       4.884  -4.984  10.266  0.00  0.00    -0.015 C 
ATOM      3  C   UNL     1       6.194  -4.196  10.213  0.00  0.00    -0.082 C 
ATOM      4  C   UNL     1       5.120  -2.378   9.025  0.00  0.00    -0.079 C 
ATOM      5  C   UNL     1       3.777  -3.112   9.043  0.00  0.00    -0.019 C 
ATOM      6  N   UNL     1       6.222  -3.358   9.000  0.00  0.00    +0.379 N 
ATOM      7  H   UNL     1       6.122  -3.957   8.172  0.00  0.00    -0.086 HD
ATOM      8  H   UNL     1       7.118  -2.858   8.954  0.00  0.00    -0.086 HD
ENDROOT
BRANCH   1   9
ATOM      9  C   UNL     1       3.779  -3.140  11.543  0.00  0.00    +0.099 C 
BRANCH   9  11
ATOM     10  N   UNL     1       3.611  -3.457  13.990  0.00  0.00    -0.314 N 
ATOM     11  C   UNL     1       3.585  -4.007  12.760  0.00  0.00    +0.213 C 
ATOM     12  O   UNL     1       3.407  -5.200  12.633  0.00  0.00    -0.276 OA
ATOM     13  H   UNL     1       3.753  -2.503  14.092  0.00  0.00    +0.149 HD
BRANCH  10  14
ATOM     14  C   UNL     1       3.423  -4.300  15.174  0.00  0.00    +0.123 C 
BRANCH  14  15
ATOM     15  C   UNL     1       3.496  -3.434  16.433  0.00  0.00    +0.123 C 
BRANCH  15  19
ATOM     16  C   UNL     1       3.140  -4.593  20.064  0.00  0.00    +0.109 C 
ATOM     17  C   UNL     1       3.333  -3.726  18.847  0.00  0.00    +0.210 C 
ATOM     18  O   UNL     1       3.511  -2.533  18.974  0.00  0.00    -0.276 OA
ATOM     19  N   UNL     1       3.308  -4.277  17.617  0.00  0.00    -0.314 N 
ATOM     20  H   UNL     1       3.165  -5.231  17.515  0.00  0.00    +0.149 HD
ENDBRANCH  15  19
ENDBRANCH  14  15
ENDBRANCH  10  14
ENDBRANCH   9  11
ENDBRANCH   1   9
BRANCH   5  21
ATOM     21  C   UNL     1       2.637  -2.092   9.082  0.00  0.00    +0.061 C 
BRANCH  21  22
ATOM     22  C   UNL     1       2.634  -1.293   7.804  0.00  0.00    +0.084 A 
ATOM     23  C   UNL     1       1.551  -1.129   6.916  0.00  0.00    +0.076 A 
ATOM     24  C   UNL     1       2.054  -0.328   5.929  0.00  0.00    +0.167 A 
ATOM     25  O   UNL     1       3.333  -0.080   6.264  0.00  0.00    -0.354 OA
ATOM     26  N   UNL     1       3.630  -0.618   7.305  0.00  0.00    -0.083 NA
BRANCH  24  27
ATOM     27  C   UNL     1       1.339   0.163   4.731  0.00  0.00    +0.020 A 
ATOM     28  C   UNL     1       1.995   0.979   3.809  0.00  0.00    +0.012 A 
ATOM     29  C   UNL     1       1.322   1.433   2.693  0.00  0.00    +0.005 A 
ATOM     30  C   UNL     1       0.000   1.080   2.488  0.00  0.00    -0.042 A 
ATOM     31  C   UNL     1      -0.657   0.275   3.401  0.00  0.00    +0.005 A 
ATOM     32  C   UNL     1       0.006  -0.190   4.518  0.00  0.00    +0.012 A 
BRANCH  30  33
ATOM     33  C   UNL     1      -0.729   1.579   1.267  0.00  0.00    -0.013 C 
ATOM     34  C   UNL     1      -0.013   1.086   0.008  0.00  0.00    +0.015 C 
ATOM     35  C   UNL     1      -0.750   3.109   1.275  0.00  0.00    +0.015 C 
ATOM     36  C   UNL     1      -2.164   1.050   1.278  0.00  0.00    +0.015 C 
ENDBRANCH  30  33
ENDBRANCH  24  27
ENDBRANCH  21  22
ENDBRANCH   5  21
TORSDOF 9
