REMARK  Name = ZINC00729426
REMARK  7 active torsions:
REMARK  status: ('A' for Active; 'I' for Inactive)
REMARK    1  A    between atoms: C_1  and  C_2
REMARK    2  A    between atoms: C_5  and  C_8
REMARK    3  A    between atoms: C_13  and  C_23
REMARK    4  A    between atoms: C_25  and  O_32
REMARK    5  A    between atoms: C_26  and  O_30
REMARK    6  A    between atoms: O_30  and  C_31
REMARK    7  A    between atoms: O_32  and  C_33
REMARK                            x       y       z     vdW  Elec       q    Type
REMARK                         _______ _______ _______ _____ _____    ______ ____
ROOT
ATOM      1  C   UNL     1      -3.471   2.239   1.315  0.00  0.00    +0.032 C 
ATOM      2  C   UNL     1      -2.522   1.108   0.924  0.00  0.00    +0.059 C 
ATOM      3  C   UNL     1      -1.433   1.636  -0.001  0.00  0.00    +0.017 C 
ATOM      4  C   UNL     1      -1.686   2.652  -0.838  0.00  0.00    +0.036 C 
ATOM      5  C   UNL     1      -0.701   3.267  -1.804  0.00  0.00    +0.136 C 
ATOM      6  N   UNL     1       0.524   2.516  -1.970  0.00  0.00    -0.331 N 
ATOM      7  C   UNL     1       1.409   2.348  -0.908  0.00  0.00    +0.049 A 
ATOM      8  C   UNL     1       2.668   2.929  -0.920  0.00  0.00    +0.025 A 
ATOM      9  C   UNL     1       3.485   2.805   0.190  0.00  0.00    +0.002 A 
ATOM     10  C   UNL     1       3.054   2.107   1.304  0.00  0.00    +0.002 A 
ATOM     11  C   UNL     1       1.807   1.505   1.310  0.00  0.00    +0.025 A 
ATOM     12  C   UNL     1       0.998   1.611   0.192  0.00  0.00    +0.052 A 
ATOM     13  N   UNL     1      -0.243   0.989   0.107  0.00  0.00    -0.316 N 
ATOM     14  C   UNL     1      -2.969   3.246  -0.874  0.00  0.00    +0.163 C 
ATOM     15  O   UNL     1      -3.176   4.149  -1.661  0.00  0.00    -0.292 OA
ATOM     16  C   UNL     1      -4.083   2.801   0.025  0.00  0.00    +0.088 C 
ATOM     17  H   UNL     1       0.733   2.125  -2.833  0.00  0.00    +0.147 HD
ATOM     18  H   UNL     1      -0.260   0.019   0.123  0.00  0.00    +0.152 HD
ENDROOT
BRANCH   1  23
ATOM     19  C   UNL     1      -7.652   0.192   4.739  0.00  0.00    +0.044 C 
ATOM     20  C   UNL     1      -6.562   0.727   3.845  0.00  0.00    -0.050 A 
ATOM     21  C   UNL     1      -5.741   1.746   4.291  0.00  0.00    +0.003 A 
ATOM     22  C   UNL     1      -4.741   2.235   3.472  0.00  0.00    +0.004 A 
ATOM     23  C   UNL     1      -4.561   1.706   2.207  0.00  0.00    -0.043 A 
ATOM     24  C   UNL     1      -5.386   0.690   1.760  0.00  0.00    +0.004 A 
ATOM     25  C   UNL     1      -6.383   0.198   2.581  0.00  0.00    +0.003 A 
ENDBRANCH   1  23
BRANCH   5  26
ATOM     26  C   UNL     1      -0.352   4.649  -1.315  0.00  0.00    -0.018 A 
ATOM     27  C   UNL     1      -0.712   5.757  -2.061  0.00  0.00    +0.055 A 
ATOM     28  C   UNL     1      -0.392   7.028  -1.613  0.00  0.00    +0.163 A 
ATOM     29  C   UNL     1       0.291   7.188  -0.411  0.00  0.00    +0.175 A 
ATOM     30  C   UNL     1       0.649   6.074   0.332  0.00  0.00    +0.063 A 
ATOM     31  C   UNL     1       0.322   4.807  -0.119  0.00  0.00    +0.025 A 
ATOM     32 BR   UNL     1       1.578   6.285   1.966  0.00  0.00    -0.046 Br
BRANCH  29  33
ATOM     33  O   UNL     1       0.608   8.434   0.033  0.00  0.00    -0.490 OA
ATOM     34  C   UNL     1      -0.349   9.088   0.867  0.00  0.00    +0.277 C 
ENDBRANCH  29  33
BRANCH  28  35
ATOM     35  O   UNL     1      -0.745   8.118  -2.346  0.00  0.00    -0.491 OA
ATOM     36  C   UNL     1      -1.445   7.878  -3.569  0.00  0.00    +0.277 C 
ENDBRANCH  28  35
ENDBRANCH   5  26
TORSDOF 4
