REMARK  Name = ZINC64735134
REMARK  12 active torsions:
REMARK  status: ('A' for Active; 'I' for Inactive)
REMARK    1  A    between atoms: C_1  and  C_2
REMARK    2  A    between atoms: C_5  and  S_8
REMARK    3  A    between atoms: S_8  and  N_11
REMARK    4  A    between atoms: N_11  and  C_12
REMARK    5  A    between atoms: C_12  and  C_14
REMARK    6  A    between atoms: C_12  and  C_18
REMARK    7  A    between atoms: C_14  and  C_15
REMARK    8  A    between atoms: C_15  and  C_16
REMARK    9  A    between atoms: C_15  and  C_17
REMARK   10  A    between atoms: N_20  and  N_21
REMARK   11  A    between atoms: C_22  and  C_24
REMARK   12  A    between atoms: C_24  and  C_25
REMARK                            x       y       z     vdW  Elec       q    Type
REMARK                         _______ _______ _______ _____ _____    ______ ____
ROOT
ATOM      1  C   UNL     1       3.975  -4.219   0.613  0.00  0.00    +0.248 C 
ATOM      2  O   UNL     1       4.183  -4.157  -0.580  0.00  0.00    -0.273 OA
ATOM      3  N   UNL     1       4.962  -3.932   1.485  0.00  0.00    -0.233 N 
ATOM      4  H   UNL     1       4.796  -3.982   2.439  0.00  0.00    +0.173 HD
ENDROOT
BRANCH   3   5
ATOM      5  N   UNL     1       6.228  -3.562   1.013  0.00  0.00    -0.234 N 
ATOM      6  C   UNL     1       7.215  -3.275   1.885  0.00  0.00    +0.233 C 
ATOM      7  O   UNL     1       7.008  -3.337   3.078  0.00  0.00    -0.274 OA
ATOM      8  H   UNL     1       6.394  -3.512   0.058  0.00  0.00    +0.173 HD
BRANCH   6   9
ATOM      9  C   UNL     1       8.577  -2.876   1.376  0.00  0.00    +0.130 C 
BRANCH   9  10
ATOM     10  C   UNL     1       9.491  -2.611   2.545  0.00  0.00    -0.033 C 
ATOM     11  C   UNL     1      10.360  -3.479   3.111  0.00  0.00    -0.001 A 
ATOM     12  C   UNL     1      10.701  -4.877   2.820  0.00  0.00    +0.010 A 
ATOM     13  C   UNL     1      11.633  -5.497   3.579  0.00  0.00    +0.001 A 
ATOM     14  C   UNL     1      12.280  -4.839   4.635  0.00  0.00    +0.002 A 
ATOM     15  C   UNL     1      12.021  -3.555   4.962  0.00  0.00    +0.026 A 
ATOM     16  C   UNL     1      11.058  -2.807   4.230  0.00  0.00    +0.043 A 
ATOM     17  N   UNL     1      10.637  -1.572   4.351  0.00  0.00    -0.380 N 
ATOM     18  C   UNL     1       9.627  -1.318   3.317  0.00  0.00    +0.145 C 
ATOM     19  H   UNL     1      10.944  -0.931   5.012  0.00  0.00    +0.160 HD
ENDBRANCH   9  10
ENDBRANCH   6   9
ENDBRANCH   3   5
BRANCH   1  20
ATOM     20  C   UNL     1       2.614  -4.617   1.121  0.00  0.00    +0.164 C 
BRANCH  20  21
ATOM     21  N   UNL     1       1.725  -4.875  -0.014  0.00  0.00    -0.178 NA
ATOM     22  H   UNL     1       1.737  -5.741  -0.453  0.00  0.00    +0.149 HD
BRANCH  21  23
ATOM     23  S   UNL     1       0.700  -3.690  -0.550  0.00  0.00    +0.059 S 
ATOM     24  O   UNL     1       0.010  -3.203   0.593  0.00  0.00    -0.153 OA
ATOM     25  O   UNL     1       0.023  -4.219  -1.681  0.00  0.00    -0.153 OA
BRANCH  23  30
ATOM     26  C   UNL     1       4.121   0.855  -2.561  0.00  0.00    +0.044 C 
ATOM     27  C   UNL     1       3.267  -0.280  -2.059  0.00  0.00    -0.050 A 
ATOM     28  C   UNL     1       2.882  -1.290  -2.921  0.00  0.00    +0.005 A 
ATOM     29  C   UNL     1       2.099  -2.331  -2.460  0.00  0.00    +0.029 A 
ATOM     30  C   UNL     1       1.700  -2.363  -1.137  0.00  0.00    +0.105 A 
ATOM     31  C   UNL     1       2.086  -1.354  -0.274  0.00  0.00    +0.029 A 
ATOM     32  C   UNL     1       2.873  -0.315  -0.734  0.00  0.00    +0.005 A 
ENDBRANCH  23  30
ENDBRANCH  21  23
ENDBRANCH  20  21
BRANCH  20  33
ATOM     33  C   UNL     1       2.737  -5.884   1.971  0.00  0.00    +0.033 C 
BRANCH  33  34
ATOM     34  C   UNL     1       1.373  -6.228   2.574  0.00  0.00    -0.015 C 
ATOM     35  C   UNL     1       1.461  -7.572   3.300  0.00  0.00    +0.007 C 
ATOM     36  C   UNL     1       0.964  -5.138   3.566  0.00  0.00    +0.007 C 
ENDBRANCH  33  34
ENDBRANCH  20  33
ENDBRANCH   1  20
TORSDOF 9
