REMARK  Name = ZINC63373634
REMARK  12 active torsions:
REMARK  status: ('A' for Active; 'I' for Inactive)
REMARK    1  A    between atoms: C_1  and  C_2
REMARK    2  A    between atoms: C_2  and  C_3
REMARK    3  A    between atoms: C_2  and  C_4
REMARK    4  A    between atoms: C_4  and  C_5
REMARK    5  A    between atoms: C_5  and  N_6
REMARK    6  A    between atoms: C_7  and  C_9
REMARK    7  A    between atoms: C_9  and  C_11
REMARK    8  A    between atoms: C_9  and  N_15
REMARK    9  A    between atoms: C_11  and  C_12
REMARK   10  A    between atoms: C_12  and  C_13
REMARK   11  A    between atoms: C_12  and  C_14
REMARK   12  A    between atoms: C_18  and  C_34
REMARK                            x       y       z     vdW  Elec       q    Type
REMARK                         _______ _______ _______ _____ _____    ______ ____
ROOT
ATOM      1  N   UNL     1      -4.418  -5.869  -0.335  0.00  0.00    -0.212 N 
ATOM      2  C   UNL     1      -5.000  -6.548  -1.345  0.00  0.00    +0.249 C 
ATOM      3  O   UNL     1      -5.644  -6.086  -2.263  0.00  0.00    -0.273 OA
ATOM      4  C   UNL     1      -4.684  -8.005  -1.093  0.00  0.00    +0.136 C 
ATOM      5  C   UNL     1      -5.969  -8.818  -0.941  0.00  0.00    +0.139 C 
ATOM      6  C   UNL     1      -6.061  -9.255   0.514  0.00  0.00    -0.034 C 
ATOM      7  C   UNL     1      -7.234  -8.813   0.960  0.00  0.00    -0.001 A 
ATOM      8  C   UNL     1      -7.910  -8.978   2.257  0.00  0.00    +0.010 A 
ATOM      9  C   UNL     1      -9.122  -8.375   2.381  0.00  0.00    +0.001 A 
ATOM     10  C   UNL     1      -9.720  -7.633   1.358  0.00  0.00    +0.002 A 
ATOM     11  C   UNL     1      -9.173  -7.434   0.133  0.00  0.00    +0.026 A 
ATOM     12  C   UNL     1      -7.900  -8.024  -0.120  0.00  0.00    +0.043 A 
ATOM     13  N   UNL     1      -7.161  -8.011  -1.207  0.00  0.00    -0.375 N 
ATOM     14  C   UNL     1      -4.954  -9.977   1.242  0.00  0.00    +0.052 C 
ATOM     15  C   UNL     1      -3.663  -9.165   1.017  0.00  0.00    +0.115 C 
ATOM     16  N   UNL     1      -4.006  -7.984   0.220  0.00  0.00    -0.269 N 
ATOM     17  C   UNL     1      -3.817  -6.694   0.533  0.00  0.00    +0.313 C 
ATOM     18  O   UNL     1      -3.177  -6.317   1.495  0.00  0.00    -0.252 OA
ATOM     19  C   UNL     1      -3.773  -8.574  -2.183  0.00  0.00    +0.044 C 
ATOM     20  H   UNL     1      -7.360  -7.549  -2.037  0.00  0.00    +0.160 HD
ENDROOT
BRANCH   1  21
ATOM     21  C   UNL     1      -4.435  -4.410  -0.207  0.00  0.00    +0.171 C 
BRANCH  21  23
ATOM     22  N   UNL     1      -2.790  -2.565  -0.111  0.00  0.00    -0.314 N 
ATOM     23  C   UNL     1      -3.021  -3.888  -0.217  0.00  0.00    +0.234 C 
ATOM     24  O   UNL     1      -2.091  -4.660  -0.322  0.00  0.00    -0.274 OA
ATOM     25  H   UNL     1      -3.534  -1.948  -0.027  0.00  0.00    +0.149 HD
BRANCH  22  26
ATOM     26  C   UNL     1      -1.416  -2.058  -0.121  0.00  0.00    +0.104 C 
BRANCH  26  27
ATOM     27  C   UNL     1      -1.433  -0.534   0.013  0.00  0.00    +0.022 C 
BRANCH  27  29
ATOM     28  C   UNL     1      -0.019   1.526   0.010  0.00  0.00    +0.007 C 
ATOM     29  C   UNL     1       0.002  -0.004   0.002  0.00  0.00    -0.016 C 
ATOM     30  C   UNL     1       0.742  -0.511   1.242  0.00  0.00    +0.007 C 
ENDBRANCH  27  29
ENDBRANCH  26  27
ENDBRANCH  22  26
ENDBRANCH  21  23
BRANCH  21  31
ATOM     31  C   UNL     1      -5.112  -4.021   1.109  0.00  0.00    +0.035 C 
BRANCH  31  32
ATOM     32  C   UNL     1      -6.582  -4.441   1.069  0.00  0.00    -0.015 C 
ATOM     33  C   UNL     1      -7.228  -4.167   2.429  0.00  0.00    +0.007 C 
ATOM     34  C   UNL     1      -7.312  -3.642  -0.012  0.00  0.00    +0.007 C 
ENDBRANCH  31  32
ENDBRANCH  21  31
ENDBRANCH   1  21
TORSDOF 7
