REMARK  Name = ZINC64562449
REMARK  7 active torsions:
REMARK  status: ('A' for Active; 'I' for Inactive)
REMARK    1  A    between atoms: C_1  and  C_2
REMARK    2  A    between atoms: C_2  and  C_3
REMARK    3  A    between atoms: C_2  and  N_13
REMARK    4  A    between atoms: C_6  and  S_9
REMARK    5  A    between atoms: S_9  and  N_12
REMARK    6  A    between atoms: N_16  and  C_17
REMARK    7  A    between atoms: N_26  and  C_27
REMARK                            x       y       z     vdW  Elec       q    Type
REMARK                         _______ _______ _______ _____ _____    ______ ____
ROOT
ATOM      1  N   UNL     1      -1.373  -0.507   0.012  0.00  0.00    -0.293 N 
ATOM      2  C   UNL     1      -2.027  -0.658   1.181  0.00  0.00    +0.304 C 
ATOM      3  O   UNL     1      -1.476  -0.374   2.227  0.00  0.00    -0.252 OA
ATOM      4  N   UNL     1      -3.292  -1.123   1.190  0.00  0.00    -0.269 N 
ATOM      5  H   UNL     1      -1.813  -0.733  -0.822  0.00  0.00    +0.151 HD
ATOM      6  H   UNL     1      -3.756  -1.285   0.354  0.00  0.00    +0.156 HD
ENDROOT
BRANCH   4   7
ATOM      7  C   UNL     1      -3.938  -1.372   2.409  0.00  0.00    +0.035 A 
ATOM      8  C   UNL     1      -3.696  -0.552   3.504  0.00  0.00    +0.025 A 
ATOM      9  C   UNL     1      -4.333  -0.800   4.702  0.00  0.00    +0.025 A 
ATOM     10  C   UNL     1      -5.216  -1.869   4.815  0.00  0.00    +0.033 A 
ATOM     11  C   UNL     1      -5.462  -2.687   3.723  0.00  0.00    -0.025 A 
ATOM     12  C   UNL     1      -4.824  -2.433   2.521  0.00  0.00    +0.028 A 
ATOM     13  C   UNL     1      -6.420  -3.845   3.808  0.00  0.00    +0.038 C 
ATOM     14  C   UNL     1      -6.625  -4.266   5.263  0.00  0.00    +0.024 C 
ATOM     15  C   UNL     1      -6.990  -3.026   6.091  0.00  0.00    +0.105 C 
ATOM     16  N   UNL     1      -5.848  -2.104   6.044  0.00  0.00    -0.333 N 
ATOM     17  C   UNL     1      -5.376  -1.440   7.263  0.00  0.00    +0.129 C 
ENDBRANCH   4   7
BRANCH   1  19
ATOM     18  C   UNL     1      -0.017   1.528   0.020  0.00  0.00    +0.033 C 
ATOM     19  C   UNL     1       0.002  -0.001   0.002  0.00  0.00    +0.102 C 
BRANCH  19  20
ATOM     20  C   UNL     1       0.704  -0.480  -1.243  0.00  0.00    -0.027 A 
ATOM     21  C   UNL     1       0.031  -0.503  -2.450  0.00  0.00    +0.007 A 
ATOM     22  C   UNL     1       0.675  -0.943  -3.592  0.00  0.00    +0.029 A 
ATOM     23  C   UNL     1       1.992  -1.359  -3.526  0.00  0.00    +0.105 A 
ATOM     24  C   UNL     1       2.664  -1.335  -2.319  0.00  0.00    +0.029 A 
ATOM     25  C   UNL     1       2.022  -0.891  -1.178  0.00  0.00    +0.007 A 
BRANCH  23  26
ATOM     26  S   UNL     1       2.812  -1.920  -4.981  0.00  0.00    +0.056 S 
ATOM     27  O   UNL     1       3.868  -2.767  -4.550  0.00  0.00    -0.153 OA
ATOM     28  O   UNL     1       1.798  -2.360  -5.874  0.00  0.00    -0.153 OA
BRANCH  26  29
ATOM     29  N   UNL     1       3.521  -0.599  -5.683  0.00  0.00    -0.204 NA
ATOM     30  H   UNL     1       3.431   0.276  -5.273  0.00  0.00    +0.144 HD
ATOM     31  H   UNL     1       4.027  -0.699  -6.505  0.00  0.00    +0.144 HD
ENDBRANCH  26  29
ENDBRANCH  23  26
ENDBRANCH  19  20
ENDBRANCH   1  19
TORSDOF 5
