REMARK  Name = ZINC43221527
REMARK  7 active torsions:
REMARK  status: ('A' for Active; 'I' for Inactive)
REMARK    1  A    between atoms: C_1  and  C_2
REMARK    2  A    between atoms: C_7  and  N_8
REMARK    3  A    between atoms: C_13  and  C_30
REMARK    4  A    between atoms: C_16  and  C_21
REMARK    5  A    between atoms: C_16  and  C_27
REMARK    6  A    between atoms: C_33  and  O_40
REMARK    7  A    between atoms: O_40  and  C_41
REMARK                            x       y       z     vdW  Elec       q    Type
REMARK                         _______ _______ _______ _____ _____    ______ ____
ROOT
ATOM      1  N   UNL     1      -0.733   0.446   2.733  0.00  0.00    -0.210 N 
ATOM      2  C   UNL     1      -1.658   0.958   3.608  0.00  0.00    +0.229 C 
ATOM      3  O   UNL     1      -2.857   0.780   3.607  0.00  0.00    -0.275 OA
ATOM      4  C   UNL     1      -0.885   1.755   4.532  0.00  0.00    +0.078 C 
ATOM      5  C   UNL     1      -0.994   2.355   5.869  0.00  0.00    -0.026 C 
ATOM      6  N   UNL     1       0.426   2.629   6.269  0.00  0.00    +0.398 N 
ATOM      7  C   UNL     1       1.313   2.064   5.200  0.00  0.00    +0.074 C 
ATOM      8  C   UNL     1       0.449   0.914   4.640  0.00  0.00    +0.090 C 
ATOM      9  C   UNL     1       0.551   0.597   3.174  0.00  0.00    +0.229 C 
ATOM     10  O   UNL     1       1.566   0.498   2.517  0.00  0.00    -0.275 OA
ATOM     11  H   UNL     1       0.574   3.624   6.346  0.00  0.00    -0.083 HD
ATOM     12  H   UNL     1       0.626   2.183   7.152  0.00  0.00    -0.083 HD
ENDROOT
BRANCH   5  13
ATOM     13  C   UNL     1      -1.637   1.388   6.830  0.00  0.00    -0.053 A 
ATOM     14  C   UNL     1      -0.865   0.546   7.571  0.00  0.00    +0.006 A 
ATOM     15  C   UNL     1      -1.439  -0.354   8.464  0.00  0.00    +0.046 A 
ATOM     16  C   UNL     1      -2.795  -0.419   8.623  0.00  0.00    +0.128 A 
ATOM     17  C   UNL     1      -3.624   0.438   7.872  0.00  0.00    +0.024 A 
ATOM     18  C   UNL     1      -3.035   1.357   6.968  0.00  0.00    -0.013 A 
ATOM     19  C   UNL     1      -3.861   2.215   6.222  0.00  0.00    +0.009 A 
ATOM     20  C   UNL     1      -5.212   2.156   6.381  0.00  0.00    +0.001 A 
ATOM     21  C   UNL     1      -5.790   1.256   7.275  0.00  0.00    +0.001 A 
ATOM     22  C   UNL     1      -5.021   0.402   8.005  0.00  0.00    +0.012 A 
BRANCH  16  23
ATOM     23  O   UNL     1      -3.339  -1.304   9.498  0.00  0.00    -0.495 OA
ATOM     24  C   UNL     1      -2.435  -2.140  10.222  0.00  0.00    +0.277 C 
ENDBRANCH  16  23
ENDBRANCH   5  13
BRANCH   1  31
ATOM     25  C   UNL     1      -0.916   2.072   0.404  0.00  0.00    +0.045 C 
ATOM     26  C   UNL     1      -1.170   0.587   0.360  0.00  0.00    -0.029 A 
ATOM     27  C   UNL     1      -1.496  -0.024  -0.835  0.00  0.00    +0.005 A 
ATOM     28  C   UNL     1      -1.728  -1.386  -0.877  0.00  0.00    +0.000 A 
ATOM     29  C   UNL     1      -1.634  -2.142   0.278  0.00  0.00    +0.002 A 
ATOM     30  C   UNL     1      -1.308  -1.537   1.476  0.00  0.00    +0.024 A 
ATOM     31  C   UNL     1      -1.069  -0.170   1.519  0.00  0.00    +0.047 A 
ENDBRANCH   1  31
BRANCH   7  32
ATOM     32  C   UNL     1       1.611   3.102   4.149  0.00  0.00    -0.047 A 
ATOM     33  C   UNL     1       0.887   4.279   4.116  0.00  0.00    +0.003 A 
ATOM     34  C   UNL     1       1.161   5.231   3.152  0.00  0.00    +0.000 A 
ATOM     35  C   UNL     1       2.157   5.006   2.220  0.00  0.00    +0.000 A 
ATOM     36  C   UNL     1       2.880   3.829   2.254  0.00  0.00    +0.000 A 
ATOM     37  C   UNL     1       2.610   2.878   3.221  0.00  0.00    +0.003 A 
ENDBRANCH   7  32
BRANCH   7  38
ATOM     38  C   UNL     1       2.588   1.523   5.795  0.00  0.00    +0.350 C 
ATOM     39  O   UNL     1       2.786   1.611   6.995  0.00  0.00    -0.248 OA
ATOM     40  O   UNL     1       3.421   0.999   5.077  0.00  0.00    -0.248 OA
ENDBRANCH   7  38
TORSDOF 5
