REMARK  Name = ZINC04880199
REMARK  18 active torsions:
REMARK  status: ('A' for Active; 'I' for Inactive)
REMARK    1  A    between atoms: C_1  and  C_2
REMARK    2  A    between atoms: C_2  and  C_3
REMARK    3  A    between atoms: C_2  and  C_4
REMARK    4  A    between atoms: C_4  and  C_5
REMARK    5  A    between atoms: N_7  and  C_8
REMARK    6  A    between atoms: N_7  and  C_14
REMARK    7  A    between atoms: C_8  and  C_9
REMARK    8  A    between atoms: C_9  and  C_10
REMARK    9  A    between atoms: C_10  and  C_11
REMARK   10  A    between atoms: C_11  and  C_12
REMARK   11  A    between atoms: C_12  and  C_13
REMARK   12  A    between atoms: C_13  and  N_69
REMARK   13  A    between atoms: C_14  and  C_16
REMARK   14  A    between atoms: C_14  and  C_17
REMARK   15  A    between atoms: N_27  and  C_28
REMARK   16  A    between atoms: C_28  and  C_29
REMARK   17  A    between atoms: C_29  and  O_30
REMARK   18  A    between atoms: O_30  and  C_31
REMARK                            x       y       z     vdW  Elec       q    Type
REMARK                         _______ _______ _______ _____ _____    ______ ____
ROOT
ATOM      1  C   UNL     1      -0.932   3.593   1.479  0.00  0.00    +0.216 C 
ATOM      2  O   UNL     1      -0.331   2.906   2.277  0.00  0.00    -0.276 OA
ATOM      3  N   UNL     1      -0.334   3.973   0.333  0.00  0.00    -0.292 N 
ENDROOT
BRANCH   3   4
ATOM      4  C   UNL     1       1.042   3.557   0.051  0.00  0.00    +0.139 C 
ATOM      5  C   UNL     1       1.970   4.088   1.145  0.00  0.00    +0.036 C 
BRANCH   4   6
ATOM      6  C   UNL     1       1.114   2.052   0.017  0.00  0.00    +0.133 A 
ATOM      7  N   UNL     1       0.136   1.376   0.539  0.00  0.00    -0.232 NA
ATOM      8  C   UNL     1       0.132   0.020   0.544  0.00  0.00    +0.078 A 
ATOM      9  C   UNL     1      -0.920  -0.707   1.105  0.00  0.00    +0.028 A 
ATOM     10  C   UNL     1      -0.883  -2.083   1.088  0.00  0.00    +0.002 A 
ATOM     11  C   UNL     1       0.189  -2.759   0.521  0.00  0.00    +0.001 A 
ATOM     12  C   UNL     1       1.239  -2.064  -0.038  0.00  0.00    +0.015 A 
ATOM     13  C   UNL     1       1.221  -0.671  -0.032  0.00  0.00    +0.065 A 
ATOM     14  C   UNL     1       2.312   0.124  -0.614  0.00  0.00    +0.262 A 
ATOM     15  O   UNL     1       3.280  -0.409  -1.125  0.00  0.00    -0.267 OA
ATOM     16  N   UNL     1       2.200   1.472  -0.558  0.00  0.00    -0.292 N 
BRANCH  16  17
ATOM     17  C   UNL     1       3.259   2.312  -1.122  0.00  0.00    +0.154 C 
BRANCH  17  18
ATOM     18  C   UNL     1       3.036   2.470  -2.628  0.00  0.00    +0.181 C 
BRANCH  18  19
ATOM     19  O   UNL     1       1.822   3.186  -2.858  0.00  0.00    -0.381 OA
ATOM     20  C   UNL     1       1.519   3.389  -4.240  0.00  0.00    +0.194 C 
ENDBRANCH  18  19
ENDBRANCH  17  18
ENDBRANCH  16  17
ENDBRANCH   4   6
ENDBRANCH   3   4
BRANCH   1  21
ATOM     21  C   UNL     1      -2.347   4.021   1.769  0.00  0.00    +0.099 C 
BRANCH  21  23
ATOM     22  C   UNL     1      -4.172   3.995   3.476  0.00  0.00    +0.008 C 
ATOM     23  C   UNL     1      -2.783   3.459   3.124  0.00  0.00    -0.008 C 
ATOM     24  C   UNL     1      -2.829   1.932   3.051  0.00  0.00    +0.008 C 
ENDBRANCH  21  23
ENDBRANCH   1  21
BRANCH   3  25
ATOM     25  C   UNL     1      -1.060   4.803  -0.632  0.00  0.00    +0.108 C 
BRANCH  25  26
ATOM     26  C   UNL     1      -1.806   3.904  -1.619  0.00  0.00    +0.019 C 
BRANCH  26  27
ATOM     27  C   UNL     1      -2.565   4.771  -2.626  0.00  0.00    +0.001 C 
BRANCH  27  28
ATOM     28  C   UNL     1      -3.311   3.871  -3.614  0.00  0.00    -0.002 C 
BRANCH  28  29
ATOM     29  C   UNL     1      -4.069   4.738  -4.620  0.00  0.00    -0.020 C 
BRANCH  29  30
ATOM     30  C   UNL     1      -4.815   3.838  -5.608  0.00  0.00    -0.086 C 
BRANCH  30  33
ATOM     31  H   UNL     1      -6.045   4.099  -7.238  0.00  0.00    -0.090 HD
ATOM     32  H   UNL     1      -6.166   5.310  -6.105  0.00  0.00    -0.090 HD
ATOM     33  N   UNL     1      -5.524   4.683  -6.586  0.00  0.00    +0.378 N 
ATOM     34  H   UNL     1      -4.839   5.241  -7.108  0.00  0.00    -0.090 HD
ENDBRANCH  30  33
ENDBRANCH  29  30
ENDBRANCH  28  29
ENDBRANCH  27  28
ENDBRANCH  26  27
ENDBRANCH  25  26
ENDBRANCH   3  25
TORSDOF 14
