REMARK  Name = ZINC39677280
REMARK  10 active torsions:
REMARK  status: ('A' for Active; 'I' for Inactive)
REMARK    1  A    between atoms: C_1  and  C_2
REMARK    2  A    between atoms: C_6  and  C_7
REMARK    3  A    between atoms: C_7  and  N_8
REMARK    4  A    between atoms: C_9  and  C_11
REMARK    5  A    between atoms: C_22  and  C_24
REMARK    6  A    between atoms: C_26  and  C_33
REMARK    7  A    between atoms: N_28  and  C_29
REMARK    8  A    between atoms: C_29  and  C_30
REMARK    9  A    between atoms: C_29  and  C_31
REMARK   10  A    between atoms: C_29  and  C_32
REMARK                            x       y       z     vdW  Elec       q    Type
REMARK                         _______ _______ _______ _____ _____    ______ ____
ROOT
ATOM      1  C   UNL     1      -3.265   0.361   5.012  0.00  0.00    +0.100 C 
ATOM      2  C   UNL     1      -3.896   1.265   3.929  0.00  0.00    +0.121 C 
ATOM      3  N   UNL     1      -4.763   2.202   4.683  0.00  0.00    -0.295 N 
ATOM      4  C   UNL     1      -3.984   2.526   5.902  0.00  0.00    +0.115 C 
ATOM      5  C   UNL     1      -3.324   1.192   6.304  0.00  0.00    -0.004 C 
ATOM      6  C   UNL     1      -1.916   1.441   6.838  0.00  0.00    -0.010 C 
ATOM      7  C   UNL     1      -2.003   2.218   8.154  0.00  0.00    -0.082 C 
ATOM      8  N   UNL     1      -2.788   1.450   9.127  0.00  0.00    +0.379 N 
ATOM      9  C   UNL     1      -4.167   1.295   8.648  0.00  0.00    -0.082 C 
ATOM     10  C   UNL     1      -4.172   0.479   7.353  0.00  0.00    -0.010 C 
ATOM     11  C   UNL     1      -5.984   2.656   4.338  0.00  0.00    +0.265 C 
ATOM     12  O   UNL     1      -6.579   3.420   5.073  0.00  0.00    -0.268 OA
ATOM     13  H   UNL     1      -2.372   0.539   9.249  0.00  0.00    -0.086 HD
ATOM     14  H   UNL     1      -2.793   1.935  10.012  0.00  0.00    -0.086 HD
ENDROOT
BRANCH  11  15
ATOM     15  C   UNL     1      -6.598   2.226   3.071  0.00  0.00    +0.124 A 
ATOM     16  C   UNL     1      -5.980   1.542   2.038  0.00  0.00    +0.057 A 
ATOM     17  C   UNL     1      -6.968   1.368   1.067  0.00  0.00    +0.061 A 
ATOM     18  N   UNL     1      -8.071   1.913   1.513  0.00  0.00    -0.175 NA
ATOM     19  N   UNL     1      -7.893   2.418   2.681  0.00  0.00    -0.254 N 
ATOM     20  C   UNL     1      -6.795   0.675  -0.260  0.00  0.00    +0.067 C 
BRANCH  19  21
ATOM     21  C   UNL     1      -8.921   3.099   3.472  0.00  0.00    +0.056 C 
ATOM     22  C   UNL     1      -8.527   4.564   3.667  0.00  0.00    +0.036 C 
ATOM     23  C   UNL     1     -10.261   3.024   2.739  0.00  0.00    +0.036 C 
ATOM     24  C   UNL     1      -9.047   2.419   4.837  0.00  0.00    +0.036 C 
ENDBRANCH  19  21
ENDBRANCH  11  15
BRANCH   1  26
ATOM     25  N   UNL     1      -1.293  -1.132   5.046  0.00  0.00    -0.310 N 
ATOM     26  C   UNL     1      -1.835   0.040   4.659  0.00  0.00    +0.218 C 
ATOM     27  O   UNL     1      -1.173   0.836   4.028  0.00  0.00    -0.275 OA
ATOM     28  H   UNL     1      -1.797  -1.736   5.612  0.00  0.00    +0.149 HD
BRANCH  25  29
ATOM     29  C   UNL     1       0.059  -1.492   4.611  0.00  0.00    +0.147 C 
BRANCH  29  35
ATOM     30  C   UNL     1      -0.431  -4.226   3.298  0.00  0.00    +0.044 C 
ATOM     31  C   UNL     1       0.234  -4.071   4.642  0.00  0.00    -0.039 A 
ATOM     32  C   UNL     1       0.663  -5.181   5.344  0.00  0.00    +0.011 A 
ATOM     33  C   UNL     1       1.257  -5.007   6.550  0.00  0.00    +0.046 A 
ATOM     34  S   UNL     1       1.225  -3.230   6.724  0.00  0.00    -0.100 S 
ATOM     35  C   UNL     1       0.426  -2.840   5.176  0.00  0.00    +0.010 A 
ENDBRANCH  29  35
ENDBRANCH  25  29
ENDBRANCH   1  26
TORSDOF 5
