REMARK  Name = ZINC16157495
REMARK  5 active torsions:
REMARK  status: ('A' for Active; 'I' for Inactive)
REMARK    1  A    between atoms: C_3  and  S_27
REMARK    2  A    between atoms: C_6  and  C_7
REMARK    3  A    between atoms: C_10  and  C_12
REMARK    4  A    between atoms: N_17  and  C_20
REMARK    5  A    between atoms: S_27  and  N_30
REMARK                            x       y       z     vdW  Elec       q    Type
REMARK                         _______ _______ _______ _____ _____    ______ ____
ROOT
ATOM      1  C   UNL     1      -0.566   6.963   2.912  0.00  0.00    +0.136 A 
ATOM      2  C   UNL     1      -0.721   7.165   4.268  0.00  0.00    +0.050 A 
ATOM      3  C   UNL     1      -0.413   8.501   4.520  0.00  0.00    +0.050 A 
ATOM      4  C   UNL     1      -0.087   9.074   3.298  0.00  0.00    +0.129 A 
ATOM      5  O   UNL     1      -0.188   8.121   2.346  0.00  0.00    -0.455 OA
ENDROOT
BRANCH   4   6
ATOM      6  C   UNL     1       0.284  10.411   3.089  0.00  0.00    +0.064 C 
ATOM      7  C   UNL     1       0.586  10.856   1.807  0.00  0.00    +0.105 C 
ATOM      8  C   UNL     1       0.577  10.070   0.562  0.00  0.00    +0.266 C 
ATOM      9  O   UNL     1       0.300   8.890   0.452  0.00  0.00    -0.268 OA
ATOM     10  N   UNL     1       0.929  10.908  -0.432  0.00  0.00    -0.223 N 
ATOM     11  N   UNL     1       1.179  12.184   0.071  0.00  0.00    -0.184 N 
ATOM     12  C   UNL     1       0.990  12.212   1.404  0.00  0.00    +0.272 C 
ATOM     13  O   UNL     1       1.127  13.175   2.135  0.00  0.00    -0.268 OA
ATOM     14  H   UNL     1       1.003  10.657  -1.366  0.00  0.00    +0.174 HD
BRANCH  11  15
ATOM     15  C   UNL     1       1.572  13.282  -0.702  0.00  0.00    +0.056 A 
ATOM     16  C   UNL     1       1.790  14.515  -0.099  0.00  0.00    +0.026 A 
ATOM     17  C   UNL     1       2.183  15.596  -0.863  0.00  0.00    +0.017 A 
ATOM     18  C   UNL     1       2.348  15.455  -2.230  0.00  0.00    +0.018 A 
ATOM     19  C   UNL     1       2.127  14.230  -2.834  0.00  0.00    +0.017 A 
ATOM     20  C   UNL     1       1.739  13.144  -2.073  0.00  0.00    +0.026 A 
ATOM     21 BR   UNL     1       2.879  16.939  -3.274  0.00  0.00    -0.050 Br
ENDBRANCH  11  15
ENDBRANCH   4   6
BRANCH   1  27
ATOM     22  C   UNL     1      -0.599   5.615   0.818  0.00  0.00    +0.013 A 
ATOM     23  C   UNL     1      -0.805   4.420   0.161  0.00  0.00    +0.029 A 
ATOM     24  C   UNL     1      -1.195   3.296   0.867  0.00  0.00    +0.105 A 
ATOM     25  C   UNL     1      -1.387   3.363   2.236  0.00  0.00    +0.029 A 
ATOM     26  C   UNL     1      -1.179   4.549   2.908  0.00  0.00    +0.013 A 
ATOM     27  C   UNL     1      -0.785   5.689   2.201  0.00  0.00    +0.017 A 
BRANCH  24  28
ATOM     28  S   UNL     1      -1.456   1.774   0.019  0.00  0.00    +0.056 S 
ATOM     29  O   UNL     1      -1.746   2.107  -1.332  0.00  0.00    -0.153 OA
ATOM     30  O   UNL     1      -2.344   1.008   0.822  0.00  0.00    -0.153 OA
BRANCH  28  31
ATOM     31  N   UNL     1      -0.011   0.966   0.007  0.00  0.00    -0.204 NA
ATOM     32  H   UNL     1       0.002  -0.004   0.002  0.00  0.00    +0.144 HD
ATOM     33  H   UNL     1       0.822   1.462   0.002  0.00  0.00    +0.144 HD
ENDBRANCH  28  31
ENDBRANCH  24  28
ENDBRANCH   1  27
TORSDOF 5
