REMARK  Name = ZINC64179076
REMARK  8 active torsions:
REMARK  status: ('A' for Active; 'I' for Inactive)
REMARK    1  A    between atoms: C_1  and  C_2
REMARK    2  A    between atoms: C_2  and  C_4
REMARK    3  A    between atoms: C_2  and  N_21
REMARK    4  A    between atoms: C_9  and  C_12
REMARK    5  A    between atoms: N_21  and  S_22
REMARK    6  A    between atoms: S_22  and  C_25
REMARK    7  A    between atoms: C_28  and  N_31
REMARK    8  A    between atoms: C_32  and  C_34
REMARK                            x       y       z     vdW  Elec       q    Type
REMARK                         _______ _______ _______ _____ _____    ______ ____
ROOT
ATOM      1  C   UNL     1      -0.784   1.980  -0.202  0.00  0.00    +0.035 C 
ATOM      2  C   UNL     1      -0.240   0.558  -0.059  0.00  0.00    +0.159 C 
ENDROOT
BRANCH   2   3
ATOM      3  C   UNL     1       0.363   0.386   1.312  0.00  0.00    +0.234 C 
ATOM      4  O   UNL     1      -0.272  -0.160   2.189  0.00  0.00    -0.274 OA
ATOM      5  N   UNL     1       1.607   0.840   1.562  0.00  0.00    -0.300 N 
ATOM      6  C   UNL     1       2.343   1.607   0.548  0.00  0.00    +0.108 C 
ATOM      7  C   UNL     1       3.705   0.944   0.321  0.00  0.00    +0.027 C 
ATOM      8  C   UNL     1       4.434   0.813   1.661  0.00  0.00    +0.020 C 
ATOM      9  C   UNL     1       3.616  -0.073   2.603  0.00  0.00    +0.027 C 
ATOM     10  C   UNL     1       2.251   0.583   2.858  0.00  0.00    +0.108 C 
BRANCH   8  11
ATOM     11  C   UNL     1       5.788   0.192   1.437  0.00  0.00    -0.038 C 
ATOM     12  C   UNL     1       6.991   0.736   1.732  0.00  0.00    -0.001 A 
ATOM     13  C   UNL     1       7.383   2.020   2.327  0.00  0.00    +0.010 A 
ATOM     14  C   UNL     1       8.696   2.288   2.503  0.00  0.00    +0.001 A 
ATOM     15  C   UNL     1       9.691   1.373   2.131  0.00  0.00    +0.002 A 
ATOM     16  C   UNL     1       9.410   0.174   1.579  0.00  0.00    +0.026 A 
ATOM     17  C   UNL     1       8.060  -0.213   1.349  0.00  0.00    +0.043 A 
ATOM     18  N   UNL     1       7.539  -1.301   0.836  0.00  0.00    -0.380 N 
ATOM     19  C   UNL     1       6.078  -1.167   0.842  0.00  0.00    +0.145 C 
ATOM     20  H   UNL     1       8.037  -2.068   0.511  0.00  0.00    +0.160 HD
ENDBRANCH   8  11
ENDBRANCH   2   3
BRANCH   2  21
ATOM     21  N   UNL     1      -1.332  -0.403  -0.236  0.00  0.00    -0.178 NA
ATOM     22  H   UNL     1      -1.894  -0.642   0.517  0.00  0.00    +0.149 HD
BRANCH  21  23
ATOM     23  S   UNL     1      -1.605  -1.081  -1.722  0.00  0.00    +0.059 S 
ATOM     24  O   UNL     1      -2.697  -1.977  -1.565  0.00  0.00    -0.153 OA
ATOM     25  O   UNL     1      -1.625  -0.013  -2.658  0.00  0.00    -0.153 OA
BRANCH  23  26
ATOM     26  C   UNL     1      -0.198  -2.067  -2.111  0.00  0.00    +0.105 A 
ATOM     27  C   UNL     1       0.872  -1.506  -2.785  0.00  0.00    +0.030 A 
ATOM     28  C   UNL     1       1.977  -2.276  -3.092  0.00  0.00    +0.025 A 
ATOM     29  C   UNL     1       2.013  -3.614  -2.723  0.00  0.00    +0.033 A 
ATOM     30  C   UNL     1       0.937  -4.174  -2.046  0.00  0.00    +0.025 A 
ATOM     31  C   UNL     1      -0.162  -3.398  -1.738  0.00  0.00    +0.030 A 
BRANCH  29  32
ATOM     32  N   UNL     1       3.131  -4.397  -3.033  0.00  0.00    -0.286 N 
ATOM     33  C   UNL     1       4.359  -3.844  -3.041  0.00  0.00    +0.214 C 
ATOM     34  O   UNL     1       4.508  -2.692  -2.691  0.00  0.00    -0.276 OA
ATOM     35  C   UNL     1       5.549  -4.656  -3.486  0.00  0.00    +0.109 C 
ATOM     36  H   UNL     1       3.021  -5.338  -3.242  0.00  0.00    +0.155 HD
ENDBRANCH  29  32
ENDBRANCH  23  26
ENDBRANCH  21  23
ENDBRANCH   2  21
TORSDOF 6
