REMARK  Name = ZINC63383516
REMARK  8 active torsions:
REMARK  status: ('A' for Active; 'I' for Inactive)
REMARK    1  A    between atoms: C_1  and  C_2
REMARK    2  A    between atoms: C_2  and  C_3
REMARK    3  A    between atoms: C_2  and  C_4
REMARK    4  A    between atoms: C_4  and  C_5
REMARK    5  A    between atoms: C_5  and  C_7
REMARK    6  A    between atoms: C_5  and  N_13
REMARK    7  A    between atoms: N_9  and  C_10
REMARK    8  A    between atoms: C_14  and  C_16
REMARK                            x       y       z     vdW  Elec       q    Type
REMARK                         _______ _______ _______ _____ _____    ______ ____
ROOT
ATOM      1  C   UNL     1      -1.953   3.211  -2.102  0.00  0.00    +0.167 C 
ATOM      2  C   UNL     1      -3.335   3.367  -2.768  0.00  0.00    +0.065 C 
ATOM      3  C   UNL     1      -3.392   4.758  -3.348  0.00  0.00    -0.034 C 
ATOM      4  C   UNL     1      -4.287   5.728  -3.190  0.00  0.00    -0.001 A 
ATOM      5  C   UNL     1      -5.578   5.760  -2.483  0.00  0.00    +0.010 A 
ATOM      6  C   UNL     1      -6.244   6.945  -2.506  0.00  0.00    +0.001 A 
ATOM      7  C   UNL     1      -5.760   8.087  -3.153  0.00  0.00    +0.002 A 
ATOM      8  C   UNL     1      -4.588   8.144  -3.834  0.00  0.00    +0.026 A 
ATOM      9  C   UNL     1      -3.802   6.956  -3.888  0.00  0.00    +0.043 A 
ATOM     10  N   UNL     1      -2.668   6.724  -4.479  0.00  0.00    -0.375 N 
ATOM     11  C   UNL     1      -2.319   5.316  -4.276  0.00  0.00    +0.131 C 
ATOM     12  C   UNL     1      -0.984   5.165  -3.539  0.00  0.00    +0.134 C 
ATOM     13  N   UNL     1      -0.940   3.791  -2.993  0.00  0.00    -0.276 N 
ATOM     14  C   UNL     1       0.164   3.177  -3.458  0.00  0.00    +0.248 C 
ATOM     15  O   UNL     1       0.534   2.067  -3.129  0.00  0.00    -0.270 OA
ATOM     16  C   UNL     1       0.855   4.042  -4.417  0.00  0.00    +0.042 A 
ATOM     17  C   UNL     1       0.166   5.293  -4.485  0.00  0.00    -0.013 A 
ATOM     18  C   UNL     1       0.574   6.326  -5.299  0.00  0.00    +0.006 A 
ATOM     19  C   UNL     1       1.716   6.113  -6.066  0.00  0.00    +0.000 A 
ATOM     20  C   UNL     1       2.413   4.922  -6.018  0.00  0.00    +0.001 A 
ATOM     21  C   UNL     1       2.000   3.818  -5.186  0.00  0.00    +0.013 A 
ATOM     22  H   UNL     1      -2.141   7.373  -4.971  0.00  0.00    +0.160 HD
ENDROOT
BRANCH   1  24
ATOM     23  N   UNL     1      -1.612   1.253  -0.629  0.00  0.00    -0.302 N 
ATOM     24  C   UNL     1      -1.659   1.749  -1.881  0.00  0.00    +0.235 C 
ATOM     25  O   UNL     1      -1.464   1.020  -2.830  0.00  0.00    -0.274 OA
ATOM     26  H   UNL     1      -1.839   1.819   0.126  0.00  0.00    +0.150 HD
BRANCH  23  27
ATOM     27  C   UNL     1      -1.218  -0.141  -0.408  0.00  0.00    +0.159 C 
BRANCH  27  28
ATOM     28  C   UNL     1      -1.878  -0.656   0.845  0.00  0.00    +0.234 C 
ATOM     29  O   UNL     1      -2.305   0.123   1.670  0.00  0.00    -0.274 OA
ATOM     30  N   UNL     1      -1.993  -1.984   1.048  0.00  0.00    -0.311 N 
ATOM     31  H   UNL     1      -1.589  -2.607   0.425  0.00  0.00    +0.149 HD
BRANCH  30  32
ATOM     32  C   UNL     1      -2.729  -2.485   2.212  0.00  0.00    +0.073 C 
ATOM     33  C   UNL     1      -2.106  -3.641   2.997  0.00  0.00    +0.024 C 
ATOM     34  C   UNL     1      -3.332  -3.888   2.116  0.00  0.00    +0.024 C 
ENDBRANCH  30  32
ENDBRANCH  27  28
BRANCH  27  35
ATOM     35  C   UNL     1       0.302  -0.223  -0.255  0.00  0.00    +0.034 C 
BRANCH  35  37
ATOM     36  C   UNL     1       0.454  -2.389  -1.490  0.00  0.00    +0.007 C 
ATOM     37  C   UNL     1       0.726  -1.690  -0.157  0.00  0.00    -0.015 C 
ATOM     38  C   UNL     1       2.220  -1.768   0.165  0.00  0.00    +0.007 C 
ENDBRANCH  35  37
ENDBRANCH  27  35
ENDBRANCH  23  27
ENDBRANCH   1  24
TORSDOF 6
