REMARK  Name = ZINC39440384
REMARK  13 active torsions:
REMARK  status: ('A' for Active; 'I' for Inactive)
REMARK    1  A    between atoms: C_1  and  C_2
REMARK    2  A    between atoms: C_2  and  N_3
REMARK    3  A    between atoms: N_3  and  C_4
REMARK    4  A    between atoms: N_3  and  S_6
REMARK    5  A    between atoms: C_4  and  C_5
REMARK    6  A    between atoms: S_6  and  C_9
REMARK    7  A    between atoms: C_13  and  C_15
REMARK    8  A    between atoms: C_18  and  S_20
REMARK    9  A    between atoms: S_20  and  C_21
REMARK   10  A    between atoms: C_21  and  C_23
REMARK   11  A    between atoms: C_21  and  C_24
REMARK   12  A    between atoms: C_24  and  C_26
REMARK   13  A    between atoms: C_34  and  C_36
REMARK                            x       y       z     vdW  Elec       q    Type
REMARK                         _______ _______ _______ _____ _____    ______ ____
ROOT
ATOM      1  C   UNL     1       5.601   2.220   4.249  0.00  0.00    +0.249 A 
ATOM      2  N   UNL     1       5.288   1.435   5.251  0.00  0.00    -0.106 NA
ATOM      3  N   UNL     1       5.571   2.022   6.360  0.00  0.00    -0.101 NA
ATOM      4  C   UNL     1       6.076   3.208   6.109  0.00  0.00    +0.278 A 
ATOM      5  O   UNL     1       6.111   3.358   4.771  0.00  0.00    -0.411 OA
ENDROOT
BRANCH   1  10
ATOM      6  C   UNL     1       4.736   0.414   1.073  0.00  0.00    +0.106 A 
ATOM      7  C   UNL     1       5.119   1.344   0.122  0.00  0.00    +0.028 A 
ATOM      8  C   UNL     1       5.658   2.558   0.510  0.00  0.00    +0.003 A 
ATOM      9  C   UNL     1       5.817   2.849   1.849  0.00  0.00    +0.013 A 
ATOM     10  C   UNL     1       5.433   1.915   2.813  0.00  0.00    +0.040 A 
ATOM     11  C   UNL     1       4.884   0.695   2.415  0.00  0.00    +0.041 A 
BRANCH   6  12
ATOM     12  S   UNL     1       4.050  -1.128   0.568  0.00  0.00    +0.061 S 
ATOM     13  O   UNL     1       4.272  -2.040   1.635  0.00  0.00    -0.153 OA
ATOM     14  O   UNL     1       4.521  -1.370  -0.751  0.00  0.00    -0.153 OA
BRANCH  12  15
ATOM     15  N   UNL     1       2.411  -0.922   0.454  0.00  0.00    -0.177 NA
BRANCH  15  17
ATOM     16  C   UNL     1       1.635   1.030  -0.798  0.00  0.00    +0.022 C 
ATOM     17  C   UNL     1       1.813  -0.490  -0.811  0.00  0.00    +0.106 C 
ENDBRANCH  15  17
BRANCH  15  18
ATOM     18  C   UNL     1       1.559  -1.173   1.620  0.00  0.00    +0.106 C 
ATOM     19  C   UNL     1       1.016  -2.602   1.557  0.00  0.00    +0.022 C 
ENDBRANCH  15  18
ENDBRANCH  12  15
ENDBRANCH   6  12
ENDBRANCH   1  10
BRANCH   4  20
ATOM     20  S   UNL     1       6.614   4.386   7.304  0.00  0.00    -0.055 S 
BRANCH  20  21
ATOM     21  C   UNL     1       6.304   3.571   8.895  0.00  0.00    +0.123 C 
ATOM     22  C   UNL     1       4.799   3.370   9.080  0.00  0.00    +0.028 C 
BRANCH  21  23
ATOM     23  C   UNL     1       6.838   4.429  10.012  0.00  0.00    +0.175 C 
ATOM     24  O   UNL     1       6.952   5.628   9.855  0.00  0.00    -0.291 OA
BRANCH  23  25
ATOM     25  C   UNL     1       7.206   3.841  11.240  0.00  0.00    +0.027 C 
ATOM     26  C   UNL     1       7.037   2.521  11.619  0.00  0.00    +0.006 A 
ATOM     27  C   UNL     1       6.482   1.396  10.966  0.00  0.00    +0.010 A 
ATOM     28  C   UNL     1       6.444   0.196  11.588  0.00  0.00    +0.001 A 
ATOM     29  C   UNL     1       6.941   0.005  12.887  0.00  0.00    +0.002 A 
ATOM     30  C   UNL     1       7.490   1.014  13.598  0.00  0.00    +0.026 A 
ATOM     31  C   UNL     1       7.571   2.354  12.993  0.00  0.00    +0.043 A 
ATOM     32  N   UNL     1       8.040   3.483  13.441  0.00  0.00    -0.377 N 
ATOM     33  C   UNL     1       7.875   4.518  12.416  0.00  0.00    +0.111 C 
ATOM     34  C   UNL     1       9.238   5.073  11.999  0.00  0.00    +0.035 C 
ATOM     35  H   UNL     1       8.439   3.618  14.315  0.00  0.00    +0.160 HD
ENDBRANCH  23  25
ENDBRANCH  21  23
ENDBRANCH  20  21
ENDBRANCH   4  20
TORSDOF 9
