REMARK  Name = ZINC39449436
REMARK  2 active torsions:
REMARK  status: ('A' for Active; 'I' for Inactive)
REMARK    1  A    between atoms: C_4  and  O_26
REMARK    2  A    between atoms: C_5  and  C_7
REMARK                            x       y       z     vdW  Elec       q    Type
REMARK                         _______ _______ _______ _____ _____    ______ ____
ROOT
ATOM      1  C   UNL     1       1.227  -2.187  -0.022  0.00  0.00    +0.112 C 
ATOM      2  C   UNL     1       1.484  -2.708   1.397  0.00  0.00    +0.108 C 
ATOM      3  C   UNL     1       0.289  -2.407   2.263  0.00  0.00    +0.185 C 
ATOM      4  O   UNL     1       0.442  -2.221   3.454  0.00  0.00    -0.290 OA
ATOM      5  C   UNL     1      -1.008  -2.337   1.704  0.00  0.00    +0.127 A 
ATOM      6  C   UNL     1      -1.177  -2.490   0.341  0.00  0.00    +0.083 A 
ATOM      7  C   UNL     1      -2.525  -2.425  -0.239  0.00  0.00    +0.099 A 
ATOM      8  C   UNL     1      -3.614  -2.195   0.630  0.00  0.00    +0.069 A 
ATOM      9  C   UNL     1      -4.904  -2.128   0.102  0.00  0.00    +0.031 A 
ATOM     10  C   UNL     1      -5.057  -2.292  -1.264  0.00  0.00    +0.032 A 
ATOM     11  C   UNL     1      -3.939  -2.516  -2.057  0.00  0.00    +0.125 A 
ATOM     12  N   UNL     1      -2.730  -2.575  -1.541  0.00  0.00    -0.252 NA
ATOM     13  I   UNL     1      -6.962  -2.204  -2.130  0.00  0.00    -0.042 I 
ATOM     14  C   UNL     1      -3.354  -2.033   2.067  0.00  0.00    +0.276 A 
ATOM     15  O   UNL     1      -4.279  -1.832   2.833  0.00  0.00    -0.266 OA
ATOM     16  N   UNL     1      -2.096  -2.108   2.537  0.00  0.00    -0.213 N 
ATOM     17 CL   UNL     1      -1.826  -1.913   4.214  0.00  0.00    +0.022 Cl
ATOM     18  N   UNL     1      -0.077  -2.697  -0.472  0.00  0.00    -0.333 N 
ATOM     19  H   UNL     1      -0.163  -3.167  -1.316  0.00  0.00    +0.147 HD
ENDROOT
BRANCH   1  24
ATOM     20  C   UNL     1      -0.016   1.379  -0.029  0.00  0.00    +0.001 A 
ATOM     21  C   UNL     1       1.170   2.088   0.002  0.00  0.00    +0.004 A 
ATOM     22  C   UNL     1       2.377   1.417   0.026  0.00  0.00    +0.046 A 
ATOM     23  C   UNL     1       2.399   0.030   0.018  0.00  0.00    +0.122 A 
ATOM     24  C   UNL     1       1.207  -0.680  -0.013  0.00  0.00    +0.014 A 
ATOM     25  C   UNL     1       0.002  -0.004  -0.037  0.00  0.00    +0.009 A 
BRANCH  23  26
ATOM     26  O   UNL     1       3.585  -0.633   0.041  0.00  0.00    -0.506 OA
ATOM     27  H   UNL     1       3.909  -0.829   0.931  0.00  0.00    +0.292 HD
ENDBRANCH  23  26
ENDBRANCH   1  24
TORSDOF 2
