REMARK  Name = ZINC52634391
REMARK  12 active torsions:
REMARK  status: ('A' for Active; 'I' for Inactive)
REMARK    1  A    between atoms: C_1  and  C_2
REMARK    2  A    between atoms: C_2  and  C_3
REMARK    3  A    between atoms: C_2  and  C_4
REMARK    4  A    between atoms: C_2  and  C_8
REMARK    5  A    between atoms: C_4  and  C_5
REMARK    6  A    between atoms: C_12  and  C_19
REMARK    7  A    between atoms: C_21  and  O_25
REMARK    8  A    between atoms: O_25  and  C_26
REMARK    9  A    between atoms: C_26  and  C_27
REMARK   10  A    between atoms: C_27  and  C_29
REMARK   11  A    between atoms: C_27  and  N_39
REMARK   12  A    between atoms: C_29  and  C_30
REMARK                            x       y       z     vdW  Elec       q    Type
REMARK                         _______ _______ _______ _____ _____    ______ ____
ROOT
ATOM      1  C   UNL     1       4.741   2.697  -1.303  0.00  0.00    +0.004 A 
ATOM      2  C   UNL     1       6.131   2.832  -1.319  0.00  0.00    +0.057 A 
ATOM      3  C   UNL     1       6.667   4.113  -1.331  0.00  0.00    +0.139 A 
ATOM      4  C   UNL     1       5.811   5.205  -1.327  0.00  0.00    +0.156 A 
ATOM      5  N   UNL     1       4.503   5.041  -1.312  0.00  0.00    -0.259 NA
ATOM      6  C   UNL     1       3.951   3.845  -1.306  0.00  0.00    +0.119 A 
ENDROOT
BRANCH   1  10
ATOM      7  C   UNL     1       0.718  -0.497  -1.257  0.00  0.00    +0.113 C 
ATOM      8  C   UNL     1       2.154  -0.026  -1.268  0.00  0.00    -0.013 A 
ATOM      9  C   UNL     1       2.726   1.224  -1.280  0.00  0.00    +0.014 A 
ATOM     10  C   UNL     1       4.115   1.352  -1.290  0.00  0.00    -0.016 A 
ATOM     11  C   UNL     1       4.911   0.207  -1.287  0.00  0.00    +0.010 A 
ATOM     12  C   UNL     1       4.331  -1.041  -1.275  0.00  0.00    +0.024 A 
ATOM     13  C   UNL     1       2.942  -1.172  -1.266  0.00  0.00    +0.037 A 
ATOM     14  N   UNL     1       2.136  -2.310  -1.254  0.00  0.00    -0.285 N 
ATOM     15  C   UNL     1       0.824  -2.008  -1.250  0.00  0.00    +0.225 C 
ATOM     16  O   UNL     1      -0.099  -2.794  -1.240  0.00  0.00    -0.275 OA
ATOM     17  H   UNL     1       2.481  -3.216  -1.250  0.00  0.00    +0.155 HD
BRANCH   7  19
ATOM     18  C   UNL     1      -0.019   1.526   0.010  0.00  0.00    +0.012 C 
ATOM     19  C   UNL     1       0.002  -0.004   0.002  0.00  0.00    -0.019 C 
ATOM     20  C   UNL     1       0.742  -0.511   1.242  0.00  0.00    +0.012 C 
BRANCH  19  21
ATOM     21  C   UNL     1      -1.433  -0.534   0.013  0.00  0.00    +0.011 C 
BRANCH  21  22
ATOM     22  C   UNL     1      -2.149  -0.040   1.272  0.00  0.00    -0.010 C 
ATOM     23  C   UNL     1      -2.610  -1.094   2.281  0.00  0.00    +0.004 C 
ATOM     24  C   UNL     1      -3.638  -0.366   1.411  0.00  0.00    +0.004 C 
ENDBRANCH  21  22
ENDBRANCH  19  21
ENDBRANCH   7  19
ENDBRANCH   1  10
BRANCH   3  25
ATOM     25  O   UNL     1       8.014   4.295  -1.345  0.00  0.00    -0.492 OA
BRANCH  25  26
ATOM     26  C   UNL     1       8.486   5.644  -1.357  0.00  0.00    +0.213 C 
BRANCH  26  27
ATOM     27  C   UNL     1      10.016   5.648  -1.373  0.00  0.00    -0.033 C 
BRANCH  27  28
ATOM     28  N   UNL     1      10.495   5.058  -2.630  0.00  0.00    +0.382 N 
ATOM     29  H   UNL     1      10.149   5.598  -3.408  0.00  0.00    -0.089 HD
ATOM     30  H   UNL     1      11.504   5.061  -2.640  0.00  0.00    -0.089 HD
ATOM     31  H   UNL     1      10.161   4.109  -2.705  0.00  0.00    -0.089 HD
ENDBRANCH  27  28
BRANCH  27  32
ATOM     32  C   UNL     1      10.523   7.087  -1.259  0.00  0.00    +0.020 C 
BRANCH  32  33
ATOM     33  C   UNL     1      12.027   7.083  -1.151  0.00  0.00    -0.043 C 
ATOM     34  C   UNL     1      12.915   7.238  -2.160  0.00  0.00    -0.001 A 
ATOM     35  C   UNL     1      12.754   7.447  -3.603  0.00  0.00    +0.010 A 
ATOM     36  C   UNL     1      13.857   7.568  -4.376  0.00  0.00    +0.001 A 
ATOM     37  C   UNL     1      15.148   7.498  -3.834  0.00  0.00    +0.002 A 
ATOM     38  C   UNL     1      15.376   7.309  -2.517  0.00  0.00    +0.026 A 
ATOM     39  C   UNL     1      14.288   7.169  -1.611  0.00  0.00    +0.043 A 
ATOM     40  N   UNL     1      14.251   6.979  -0.315  0.00  0.00    -0.380 N 
ATOM     41  C   UNL     1      12.847   6.912   0.107  0.00  0.00    +0.144 C 
ATOM     42  H   UNL     1      15.022   6.900   0.268  0.00  0.00    +0.160 HD
ENDBRANCH  32  33
ENDBRANCH  27  32
ENDBRANCH  26  27
ENDBRANCH  25  26
ENDBRANCH   3  25
TORSDOF 10
