REMARK  Name = ZINC11851156
REMARK  8 active torsions:
REMARK  status: ('A' for Active; 'I' for Inactive)
REMARK    1  A    between atoms: C_1  and  C_2
REMARK    2  A    between atoms: C_4  and  C_22
REMARK    3  A    between atoms: C_6  and  S_8
REMARK    4  A    between atoms: S_8  and  C_9
REMARK    5  A    between atoms: C_10  and  C_21
REMARK    6  A    between atoms: C_11  and  C_20
REMARK    7  A    between atoms: N_13  and  C_14
REMARK    8  A    between atoms: C_21  and  N_42
REMARK                            x       y       z     vdW  Elec       q    Type
REMARK                         _______ _______ _______ _____ _____    ______ ____
ROOT
ATOM      1  C   UNL     1      -1.729  -0.334   0.017  0.00  0.00    +0.109 A 
ATOM      2  C   UNL     1      -2.514  -0.567  -1.071  0.00  0.00    -0.010 A 
ATOM      3  C   UNL     1      -3.819  -0.784  -0.620  0.00  0.00    +0.063 A 
ATOM      4  N   UNL     1      -3.830  -0.679   0.685  0.00  0.00    -0.170 NA
ATOM      5  N   UNL     1      -2.528  -0.396   1.117  0.00  0.00    -0.225 N 
ATOM      6  C   UNL     1      -5.013  -1.082  -1.489  0.00  0.00    +0.068 C 
ENDROOT
BRANCH   5   7
ATOM      7  C   UNL     1      -2.121  -0.210   2.445  0.00  0.00    +0.067 A 
ATOM      8  C   UNL     1      -0.869  -0.647   2.857  0.00  0.00    +0.028 A 
ATOM      9  C   UNL     1      -0.469  -0.458   4.165  0.00  0.00    +0.002 A 
ATOM     10  C   UNL     1      -1.318   0.156   5.068  0.00  0.00    +0.000 A 
ATOM     11  C   UNL     1      -2.567   0.588   4.662  0.00  0.00    +0.002 A 
ATOM     12  C   UNL     1      -2.971   0.406   3.354  0.00  0.00    +0.028 A 
ENDBRANCH   5   7
BRANCH   1  13
ATOM     13  S   UNL     1       0.002  -0.004   0.002  0.00  0.00    -0.030 S 
BRANCH  13  19
ATOM     14  C   UNL     1      -2.569   4.420   0.049  0.00  0.00    +0.066 C 
ATOM     15  C   UNL     1      -1.240   3.710   0.033  0.00  0.00    +0.043 A 
ATOM     16  C   UNL     1      -0.058   4.435   0.025  0.00  0.00    +0.046 A 
ATOM     17  C   UNL     1       1.143   3.743   0.011  0.00  0.00    +0.043 A 
ATOM     18  N   UNL     1       1.126   2.421   0.004  0.00  0.00    -0.227 NA
ATOM     19  C   UNL     1      -0.022   1.758   0.012  0.00  0.00    +0.195 A 
ATOM     20  N   UNL     1      -1.187   2.389   0.021  0.00  0.00    -0.227 NA
ATOM     21  C   UNL     1       2.453   4.489   0.003  0.00  0.00    +0.066 C 
ENDBRANCH  13  19
ENDBRANCH   1  13
BRANCH   2  22
ATOM     22  C   UNL     1      -2.057  -0.591  -2.507  0.00  0.00    -0.046 C 
BRANCH  22  25
ATOM     23  H   UNL     1      -1.339  -1.997  -3.828  0.00  0.00    -0.090 HD
ATOM     24  H   UNL     1      -0.937  -2.298  -2.242  0.00  0.00    -0.090 HD
ATOM     25  N   UNL     1      -1.672  -1.967  -2.866  0.00  0.00    +0.381 N 
ATOM     26  H   UNL     1      -2.490  -2.581  -2.775  0.00  0.00    -0.090 HD
ENDBRANCH  22  25
ENDBRANCH   2  22
TORSDOF 5
