REMARK  Name = ZINC40743542
REMARK  10 active torsions:
REMARK  status: ('A' for Active; 'I' for Inactive)
REMARK    1  A    between atoms: C_4  and  N_7
REMARK    2  A    between atoms: C_8  and  S_12
REMARK    3  A    between atoms: S_12  and  C_13
REMARK    4  A    between atoms: C_13  and  C_14
REMARK    5  A    between atoms: C_14  and  N_15
REMARK    6  A    between atoms: N_15  and  C_16
REMARK    7  A    between atoms: C_16  and  C_17
REMARK    8  A    between atoms: C_22  and  O_23
REMARK    9  A    between atoms: O_23  and  C_24
REMARK   10  A    between atoms: C_24  and  C_25
REMARK                            x       y       z     vdW  Elec       q    Type
REMARK                         _______ _______ _______ _____ _____    ______ ____
ROOT
ATOM      1  N   UNL     1       3.813  -6.330   3.303  0.00  0.00    +0.382 N 
ATOM      2  H   UNL     1       4.135  -6.819   2.481  0.00  0.00    -0.085 HD
ATOM      3  H   UNL     1       4.608  -6.007   3.835  0.00  0.00    -0.085 HD
ENDROOT
BRANCH   1   4
ATOM      4  C   UNL     1       2.995  -5.179   2.898  0.00  0.00    -0.071 C 
BRANCH   4   5
ATOM      5  C   UNL     1       3.835  -4.234   2.038  0.00  0.00    +0.058 C 
BRANCH   5   6
ATOM      6  S   UNL     1       2.824  -2.812   1.538  0.00  0.00    -0.086 S 
BRANCH   6   8
ATOM      7  N   UNL     1       3.624  -0.652  -0.037  0.00  0.00    -0.187 N 
ATOM      8  C   UNL     1       3.918  -1.831   0.567  0.00  0.00    +0.214 A 
ATOM      9  N   UNL     1       5.176  -2.102   0.291  0.00  0.00    -0.101 NA
ATOM     10  N   UNL     1       5.685  -1.178  -0.441  0.00  0.00    -0.022 NA
ATOM     11  N   UNL     1       4.809  -0.266  -0.689  0.00  0.00    -0.038 NA
BRANCH   7  15
ATOM     12  C   UNL     1      -0.017   1.379   0.010  0.00  0.00    +0.000 A 
ATOM     13  C   UNL     1       1.170   2.089   0.002  0.00  0.00    +0.002 A 
ATOM     14  C   UNL     1       2.377   1.419  -0.013  0.00  0.00    +0.028 A 
ATOM     15  C   UNL     1       2.399   0.031  -0.021  0.00  0.00    +0.070 A 
ATOM     16  C   UNL     1       1.207  -0.680  -0.013  0.00  0.00    +0.028 A 
ATOM     17  C   UNL     1       0.002  -0.004   0.002  0.00  0.00    +0.002 A 
ENDBRANCH   7  15
ENDBRANCH   6   8
ENDBRANCH   5   6
ENDBRANCH   4   5
ENDBRANCH   1   4
BRANCH   1  18
ATOM     18  C   UNL     1       3.007  -7.238   4.129  0.00  0.00    -0.043 C 
BRANCH  18  19
ATOM     19  C   UNL     1       3.847  -8.419   4.544  0.00  0.00    -0.021 A 
ATOM     20  C   UNL     1       3.737  -9.618   3.867  0.00  0.00    +0.025 A 
ATOM     21  C   UNL     1       4.507 -10.702   4.248  0.00  0.00    +0.041 A 
ATOM     22  C   UNL     1       5.390 -10.588   5.307  0.00  0.00    +0.023 A 
ATOM     23  C   UNL     1       5.503  -9.390   5.987  0.00  0.00    +0.047 A 
ATOM     24  C   UNL     1       4.736  -8.300   5.603  0.00  0.00    +0.122 A 
ATOM     25 CL   UNL     1       4.367 -12.208   3.395  0.00  0.00    -0.084 Cl
BRANCH  24  26
ATOM     26  O   UNL     1       4.850  -7.120   6.266  0.00  0.00    -0.487 OA
BRANCH  26  27
ATOM     27  C   UNL     1       5.785  -7.070   7.346  0.00  0.00    +0.264 C 
BRANCH  27  28
ATOM     28  C   UNL     1       5.774  -5.693   7.957  0.00  0.00    -0.009 A 
ATOM     29  C   UNL     1       6.624  -4.716   7.474  0.00  0.00    +0.007 A 
ATOM     30  C   UNL     1       6.615  -3.452   8.034  0.00  0.00    +0.002 A 
ATOM     31  C   UNL     1       5.756  -3.165   9.078  0.00  0.00    +0.020 A 
ATOM     32  C   UNL     1       4.905  -4.142   9.562  0.00  0.00    +0.041 A 
ATOM     33  C   UNL     1       4.910  -5.405   8.997  0.00  0.00    +0.027 A 
ATOM     34 CL   UNL     1       3.825  -3.782  10.873  0.00  0.00    -0.084 Cl
ENDBRANCH  27  28
ENDBRANCH  26  27
ENDBRANCH  24  26
ENDBRANCH  18  19
ENDBRANCH   1  18
TORSDOF 10
