REMARK  Name = ZINC27496693
REMARK  3 active torsions:
REMARK  status: ('A' for Active; 'I' for Inactive)
REMARK    1  A    between atoms: C_8  and  C_22
REMARK    2  A    between atoms: N_10  and  N_11
REMARK    3  A    between atoms: C_12  and  C_14
REMARK                            x       y       z     vdW  Elec       q    Type
REMARK                         _______ _______ _______ _____ _____    ______ ____
ROOT
ATOM      1  C   UNL     1       1.064   1.355  -0.125  0.00  0.00    +0.001 A 
ATOM      2  C   UNL     1       1.176   2.697  -0.459  0.00  0.00    +0.004 A 
ATOM      3  C   UNL     1       0.059   3.510  -0.487  0.00  0.00    +0.047 A 
ATOM      4  C   UNL     1      -1.186   2.986  -0.182  0.00  0.00    +0.137 A 
ATOM      5  C   UNL     1      -1.306   1.624   0.148  0.00  0.00    +0.018 A 
ATOM      6  C   UNL     1      -0.166   0.814   0.180  0.00  0.00    +0.011 A 
ATOM      7  C   UNL     1      -2.628   1.069   0.458  0.00  0.00    +0.030 A 
ATOM      8  C   UNL     1      -3.728   1.835   0.147  0.00  0.00    +0.098 A 
ATOM      9  C   UNL     1      -3.480   3.156  -0.473  0.00  0.00    +0.224 A 
ATOM     10  N   UNL     1      -4.371   3.713  -1.248  0.00  0.00    -0.273 N 
ATOM     11  O   UNL     1      -2.291   3.774  -0.200  0.00  0.00    -0.437 OA
ATOM     12  H   UNL     1      -4.239   4.755  -1.577  0.00  0.00    +0.188 HD
ENDROOT
BRANCH   8  13
ATOM     13  C   UNL     1      -5.095   1.361   0.421  0.00  0.00    +0.247 C 
ATOM     14  O   UNL     1      -5.364   0.181   0.302  0.00  0.00    -0.270 OA
ATOM     15  N   UNL     1      -6.047   2.234   0.805  0.00  0.00    -0.325 N 
ATOM     16  H   UNL     1      -7.068   1.880   1.010  0.00  0.00    +0.145 HD
ATOM     17  H   UNL     1      -5.803   3.301   0.914  0.00  0.00    +0.145 HD
ENDBRANCH   8  13
BRANCH  10  18
ATOM     18  N   UNL     1      -5.494   2.985  -1.661  0.00  0.00    -0.223 N 
ATOM     19  C   UNL     1      -6.475   3.595  -2.356  0.00  0.00    +0.262 C 
ATOM     20  O   UNL     1      -6.384   4.779  -2.625  0.00  0.00    -0.269 OA
ATOM     21  H   UNL     1      -5.576   1.916  -1.417  0.00  0.00    +0.175 HD
BRANCH  19  22
ATOM     22  C   UNL     1      -7.660   2.828  -2.791  0.00  0.00    +0.038 A 
ATOM     23  C   UNL     1      -7.764   1.468  -2.489  0.00  0.00    +0.014 A 
ATOM     24  C   UNL     1      -8.875   0.759  -2.893  0.00  0.00    +0.016 A 
ATOM     25  C   UNL     1      -9.881   1.388  -3.607  0.00  0.00    +0.018 A 
ATOM     26  C   UNL     1      -9.780   2.735  -3.915  0.00  0.00    +0.016 A 
ATOM     27  C   UNL     1      -8.677   3.457  -3.511  0.00  0.00    +0.014 A 
ATOM     28 BR   UNL     1     -11.397   0.406  -4.164  0.00  0.00    -0.050 Br
ENDBRANCH  19  22
ENDBRANCH  10  18
TORSDOF 3
