REMARK  Name = ZINC63478577
REMARK  6 active torsions:
REMARK  status: ('A' for Active; 'I' for Inactive)
REMARK    1  A    between atoms: C_1  and  C_2
REMARK    2  A    between atoms: C_2  and  C_3
REMARK    3  A    between atoms: C_2  and  C_4
REMARK    4  A    between atoms: C_2  and  N_5
REMARK    5  A    between atoms: C_10  and  C_28
REMARK    6  A    between atoms: C_28  and  C_29
REMARK                            x       y       z     vdW  Elec       q    Type
REMARK                         _______ _______ _______ _____ _____    ______ ____
ROOT
ATOM      1  N   UNL     1       0.688  -0.476  -1.203  0.00  0.00    -0.236 N 
ATOM      2  C   UNL     1       0.091  -1.247  -2.120  0.00  0.00    +0.228 C 
ATOM      3  O   UNL     1      -1.056  -1.635  -2.069  0.00  0.00    -0.275 OA
ATOM      4  C   UNL     1       1.070  -1.557  -3.230  0.00  0.00    +0.107 C 
ATOM      5  C   UNL     1       1.427  -3.058  -3.184  0.00  0.00    +0.072 C 
ATOM      6  N   UNL     1       2.907  -3.102  -3.322  0.00  0.00    -0.295 NA
ATOM      7  C   UNL     1       3.378  -1.950  -2.531  0.00  0.00    +0.136 C 
ATOM      8  C   UNL     1       2.360  -0.811  -2.788  0.00  0.00    +0.122 C 
ATOM      9  C   UNL     1       1.960  -0.168  -1.480  0.00  0.00    +0.229 C 
ATOM     10  O   UNL     1       2.681   0.517  -0.787  0.00  0.00    -0.275 OA
ATOM     11  C   UNL     1       4.768  -1.540  -2.930  0.00  0.00    +0.005 A 
ATOM     12  C   UNL     1       5.328  -1.121  -4.115  0.00  0.00    +0.027 A 
ATOM     13  C   UNL     1       6.676  -0.806  -4.171  0.00  0.00    +0.041 A 
ATOM     14  C   UNL     1       7.455  -0.914  -3.033  0.00  0.00    +0.022 A 
ATOM     15  C   UNL     1       6.896  -1.333  -1.843  0.00  0.00    +0.025 A 
ATOM     16  C   UNL     1       5.542  -1.651  -1.779  0.00  0.00    +0.039 A 
ATOM     17  N   UNL     1       4.758  -2.091  -0.710  0.00  0.00    -0.283 N 
ATOM     18  C   UNL     1       3.475  -2.291  -1.069  0.00  0.00    +0.243 C 
ATOM     19  O   UNL     1       2.573  -2.671  -0.353  0.00  0.00    -0.273 OA
ATOM     20 CL   UNL     1       7.385  -0.278  -5.665  0.00  0.00    -0.084 Cl
ATOM     21  H   UNL     1       3.279  -3.967  -2.958  0.00  0.00    +0.124 HD
ATOM     22  H   UNL     1       5.097  -2.236   0.187  0.00  0.00    +0.155 HD
ENDROOT
BRANCH   1  24
ATOM     23  C   UNL     1      -0.019   1.526   0.010  0.00  0.00    +0.031 C 
ATOM     24  C   UNL     1       0.002  -0.004   0.002  0.00  0.00    +0.036 C 
ATOM     25  C   UNL     1       0.742  -0.511   1.242  0.00  0.00    +0.031 C 
ATOM     26  C   UNL     1      -1.433  -0.534   0.013  0.00  0.00    +0.031 C 
ENDBRANCH   1  24
BRANCH   5  27
ATOM     27  C   UNL     1       0.760  -3.800  -4.344  0.00  0.00    +0.052 C 
BRANCH  27  28
ATOM     28  C   UNL     1       1.021  -5.278  -4.211  0.00  0.00    -0.040 C 
ATOM     29  C   UNL     1       0.211  -6.198  -3.639  0.00  0.00    -0.001 A 
ATOM     30  C   UNL     1      -1.103  -6.101  -2.993  0.00  0.00    +0.010 A 
ATOM     31  C   UNL     1      -1.678  -7.223  -2.502  0.00  0.00    +0.001 A 
ATOM     32  C   UNL     1      -1.050  -8.473  -2.595  0.00  0.00    +0.002 A 
ATOM     33  C   UNL     1       0.157  -8.642  -3.174  0.00  0.00    +0.026 A 
ATOM     34  C   UNL     1       0.852  -7.530  -3.724  0.00  0.00    +0.043 A 
ATOM     35  N   UNL     1       2.013  -7.437  -4.326  0.00  0.00    -0.380 N 
ATOM     36  C   UNL     1       2.237  -6.035  -4.697  0.00  0.00    +0.144 C 
ATOM     37  H   UNL     1       2.620  -8.172  -4.501  0.00  0.00    +0.160 HD
ENDBRANCH  27  28
ENDBRANCH   5  27
TORSDOF 3
