REMARK  Name = ZINC09332041
REMARK  5 active torsions:
REMARK  status: ('A' for Active; 'I' for Inactive)
REMARK    1  A    between atoms: C_1  and  C_2
REMARK    2  A    between atoms: C_2  and  C_3
REMARK    3  A    between atoms: C_2  and  C_4
REMARK    4  A    between atoms: N_12  and  C_15
REMARK    5  A    between atoms: C_19  and  N_21
REMARK                            x       y       z     vdW  Elec       q    Type
REMARK                         _______ _______ _______ _____ _____    ______ ____
ROOT
ATOM      1  C   UNL     1       1.283   1.309   0.173  0.00  0.00    -0.055 C 
ATOM      2  C   UNL     1       2.233   0.994   1.349  0.00  0.00    +0.073 C 
ATOM      3  C   UNL     1       3.111   2.267   1.502  0.00  0.00    +0.088 C 
ATOM      4  C   UNL     1       4.495   1.782   1.134  0.00  0.00    +0.229 C 
ATOM      5  O   UNL     1       5.495   2.466   1.118  0.00  0.00    -0.275 OA
ATOM      6  N   UNL     1       4.443   0.480   0.829  0.00  0.00    -0.210 N 
ATOM      7  C   UNL     1       3.213  -0.075   0.921  0.00  0.00    +0.228 C 
ATOM      8  O   UNL     1       2.933  -1.234   0.700  0.00  0.00    -0.275 OA
ATOM      9  C   UNL     1       2.593   3.227   0.425  0.00  0.00    +0.050 C 
ATOM     10  C   UNL     1       2.632   4.654   0.893  0.00  0.00    -0.028 A 
ATOM     11  C   UNL     1       2.056   5.321   1.951  0.00  0.00    +0.004 A 
ATOM     12  C   UNL     1       2.286   6.675   2.123  0.00  0.00    +0.000 A 
ATOM     13  C   UNL     1       3.095   7.355   1.231  0.00  0.00    +0.002 A 
ATOM     14  C   UNL     1       3.674   6.690   0.170  0.00  0.00    +0.023 A 
ATOM     15  C   UNL     1       3.448   5.328  -0.011  0.00  0.00    +0.036 A 
ATOM     16  N   UNL     1       3.914   4.447  -0.990  0.00  0.00    -0.286 N 
ATOM     17  C   UNL     1       3.458   3.193  -0.804  0.00  0.00    +0.211 C 
ATOM     18  O   UNL     1       3.699   2.226  -1.495  0.00  0.00    -0.277 OA
ATOM     19  H   UNL     1       4.498   4.709  -1.719  0.00  0.00    +0.155 HD
ATOM     20  N   UNL     1       1.244   2.772   0.129  0.00  0.00    +0.394 N 
ATOM     21  H   UNL     1       0.586   3.131   0.831  0.00  0.00    -0.083 HD
ATOM     22  H   UNL     1       0.959   3.092  -0.804  0.00  0.00    -0.083 HD
ENDROOT
BRANCH   6  23
ATOM     23  C   UNL     1       5.576  -0.254   0.448  0.00  0.00    +0.046 A 
ATOM     24  C   UNL     1       5.681  -0.750  -0.845  0.00  0.00    +0.025 A 
ATOM     25  C   UNL     1       6.799  -1.469  -1.218  0.00  0.00    +0.024 A 
ATOM     26  C   UNL     1       7.809  -1.705  -0.302  0.00  0.00    +0.071 A 
ATOM     27  C   UNL     1       7.704  -1.217   0.989  0.00  0.00    +0.146 A 
ATOM     28  C   UNL     1       6.590  -0.493   1.365  0.00  0.00    +0.058 A 
ATOM     29 CL   UNL     1       9.210  -2.616  -0.772  0.00  0.00    -0.081 Cl
BRANCH  27  30
ATOM     30  N   UNL     1       8.786  -1.472   1.966  0.00  0.00    +0.058 N 
ATOM     31  O   UNL     1       8.694  -1.042   3.102  0.00  0.00    -0.126 OA
ATOM     32  O   UNL     1       9.769  -2.110   1.634  0.00  0.00    -0.126 OA
ENDBRANCH  27  30
ENDBRANCH   6  23
BRANCH   1  34
ATOM     33  C   UNL     1      -1.004   0.970  -0.775  0.00  0.00    +0.005 C 
ATOM     34  C   UNL     1      -0.105   0.721   0.438  0.00  0.00    -0.031 C 
ATOM     35  C   UNL     1      -0.716   1.391   1.671  0.00  0.00    +0.005 C 
ENDBRANCH   1  34
TORSDOF 3
