REMARK  Name = ZINC39495544
REMARK  11 active torsions:
REMARK  status: ('A' for Active; 'I' for Inactive)
REMARK    1  A    between atoms: C_4  and  O_7
REMARK    2  A    between atoms: O_7  and  S_8
REMARK    3  A    between atoms: S_8  and  C_11
REMARK    4  A    between atoms: C_14  and  C_31
REMARK    5  A    between atoms: C_15  and  C_24
REMARK    6  A    between atoms: C_16  and  C_17
REMARK    7  A    between atoms: C_22  and  O_23
REMARK    8  A    between atoms: C_29  and  O_30
REMARK    9  A    between atoms: C_31  and  C_33
REMARK   10  A    between atoms: C_31  and  N_36
REMARK   11  A    between atoms: C_33  and  C_34
REMARK                            x       y       z     vdW  Elec       q    Type
REMARK                         _______ _______ _______ _____ _____    ______ ____
ROOT
ATOM      1  C   UNL     1       3.263  -2.502   1.836  0.00  0.00    +0.136 A 
ATOM      2  C   UNL     1       2.147  -2.099   2.540  0.00  0.00    +0.031 A 
ATOM      3  C   UNL     1       1.247  -3.035   3.022  0.00  0.00    +0.008 A 
ATOM      4  C   UNL     1       1.457  -4.382   2.803  0.00  0.00    -0.018 A 
ATOM      5  C   UNL     1       2.578  -4.806   2.094  0.00  0.00    +0.000 A 
ATOM      6  C   UNL     1       3.487  -3.856   1.601  0.00  0.00    +0.022 A 
ENDROOT
BRANCH   6   7
ATOM      7  C   UNL     1       4.681  -4.293   0.840  0.00  0.00    +0.026 A 
ATOM      8  C   UNL     1       5.871  -4.579   1.508  0.00  0.00    +0.012 A 
ATOM      9  C   UNL     1       6.980  -4.986   0.794  0.00  0.00    +0.001 A 
ATOM     10  C   UNL     1       6.916  -5.110  -0.583  0.00  0.00    +0.004 A 
ATOM     11  C   UNL     1       5.742  -4.828  -1.255  0.00  0.00    +0.046 A 
ATOM     12  C   UNL     1       4.619  -4.425  -0.551  0.00  0.00    +0.125 A 
BRANCH  12  13
ATOM     13  O   UNL     1       3.462  -4.154  -1.210  0.00  0.00    -0.506 OA
ATOM     14  H   UNL     1       3.377  -3.233  -1.492  0.00  0.00    +0.292 HD
ENDBRANCH  12  13
ENDBRANCH   6   7
BRANCH   5  15
ATOM     15  C   UNL     1       2.807  -6.251   1.857  0.00  0.00    +0.025 A 
ATOM     16  C   UNL     1       3.645  -6.975   2.704  0.00  0.00    +0.012 A 
ATOM     17  C   UNL     1       3.855  -8.320   2.478  0.00  0.00    +0.001 A 
ATOM     18  C   UNL     1       3.237  -8.953   1.415  0.00  0.00    +0.004 A 
ATOM     19  C   UNL     1       2.405  -8.245   0.569  0.00  0.00    +0.046 A 
ATOM     20  C   UNL     1       2.179  -6.895   0.786  0.00  0.00    +0.125 A 
BRANCH  20  21
ATOM     21  O   UNL     1       1.356  -6.199  -0.041  0.00  0.00    -0.506 OA
ATOM     22  H   UNL     1       1.788  -5.872  -0.841  0.00  0.00    +0.292 HD
ENDBRANCH  20  21
ENDBRANCH   5  15
BRANCH   1  23
ATOM     23  S   UNL     1       4.402  -1.303   1.228  0.00  0.00    +0.152 S 
ATOM     24  O   UNL     1       5.646  -1.969   1.066  0.00  0.00    -0.131 OA
ATOM     25  O   UNL     1       4.255  -0.151   2.048  0.00  0.00    -0.131 OA
BRANCH  23  26
ATOM     26  O   UNL     1       3.936  -0.906  -0.166  0.00  0.00    -0.342 OA
BRANCH  26  30
ATOM     27  C   UNL     1       0.637   1.571  -0.193  0.00  0.00    +0.000 A 
ATOM     28  C   UNL     1       1.908   2.114  -0.156  0.00  0.00    +0.004 A 
ATOM     29  C   UNL     1       3.014   1.287  -0.147  0.00  0.00    +0.048 A 
ATOM     30  C   UNL     1       2.849  -0.090  -0.175  0.00  0.00    +0.157 A 
ATOM     31  C   UNL     1       1.573  -0.633  -0.212  0.00  0.00    +0.048 A 
ATOM     32  C   UNL     1       0.470   0.198  -0.221  0.00  0.00    +0.004 A 
ENDBRANCH  26  30
ENDBRANCH  23  26
ENDBRANCH   1  23
BRANCH   4  33
ATOM     33  C   UNL     1       0.472  -5.394   3.331  0.00  0.00    +0.110 C 
BRANCH  33  34
ATOM     34  N   UNL     1      -0.855  -4.781   3.424  0.00  0.00    -0.311 N 
ATOM     35  C   UNL     1      -1.959  -5.553   3.375  0.00  0.00    +0.326 C 
ATOM     36  O   UNL     1      -1.853  -6.755   3.255  0.00  0.00    -0.280 OA
ATOM     37  H   UNL     1      -0.940  -3.819   3.521  0.00  0.00    +0.149 HD
ENDBRANCH  33  34
BRANCH  33  38
ATOM     38  C   UNL     1       0.916  -5.861   4.719  0.00  0.00    +0.097 C 
BRANCH  38  39
ATOM     39  C   UNL     1       0.011  -6.971   5.189  0.00  0.00    +0.225 C 
ATOM     40  O   UNL     1       0.481  -8.030   5.527  0.00  0.00    -0.301 OA
ENDBRANCH  38  39
ENDBRANCH  33  38
ENDBRANCH   4  33
TORSDOF 11
