REMARK  Name = ZINC11539480
REMARK  9 active torsions:
REMARK  status: ('A' for Active; 'I' for Inactive)
REMARK    1  A    between atoms: C_1  and  C_2
REMARK    2  A    between atoms: C_2  and  O_3
REMARK    3  A    between atoms: O_3  and  C_4
REMARK    4  A    between atoms: C_4  and  C_6
REMARK    5  A    between atoms: C_7  and  C_21
REMARK    6  A    between atoms: C_12  and  C_14
REMARK    7  A    between atoms: C_21  and  O_22
REMARK    8  A    between atoms: O_22  and  C_23
REMARK    9  A    between atoms: C_23  and  C_25
REMARK                            x       y       z     vdW  Elec       q    Type
REMARK                         _______ _______ _______ _____ _____    ______ ____
ROOT
ATOM      1  C   UNL     1       8.041   0.257   1.033  0.00  0.00    +0.081 C 
ATOM      2  C   UNL     1       7.338   0.077  -0.106  0.00  0.00    +0.061 C 
ATOM      3  N   UNL     1       7.605   0.815  -1.224  0.00  0.00    -0.269 N 
ATOM      4  C   UNL     1       8.553   1.759  -1.281  0.00  0.00    +0.304 C 
ATOM      5  O   UNL     1       8.714   2.368  -2.321  0.00  0.00    -0.252 OA
ATOM      6  N   UNL     1       9.338   2.052  -0.225  0.00  0.00    -0.288 N 
ATOM      7  C   UNL     1       9.133   1.308   1.029  0.00  0.00    +0.144 C 
ATOM      8  H   UNL     1       7.077   0.648  -2.019  0.00  0.00    +0.156 HD
ATOM      9  H   UNL     1      10.021   2.738  -0.290  0.00  0.00    +0.151 HD
ENDROOT
BRANCH   7  10
ATOM     10  C   UNL     1      10.431   0.631   1.385  0.00  0.00    -0.022 A 
ATOM     11  C   UNL     1      11.126  -0.080   0.424  0.00  0.00    +0.007 A 
ATOM     12  C   UNL     1      12.320  -0.696   0.748  0.00  0.00    +0.020 A 
ATOM     13  C   UNL     1      12.813  -0.611   2.038  0.00  0.00    +0.041 A 
ATOM     14  C   UNL     1      12.115   0.095   3.001  0.00  0.00    +0.020 A 
ATOM     15  C   UNL     1      10.924   0.716   2.674  0.00  0.00    +0.007 A 
ATOM     16 CL   UNL     1      14.310  -1.391   2.448  0.00  0.00    -0.084 Cl
ENDBRANCH   7  10
BRANCH   1  17
ATOM     17  C   UNL     1       7.768  -0.510   2.190  0.00  0.00    +0.339 C 
ATOM     18  O   UNL     1       7.116  -0.030   3.098  0.00  0.00    -0.245 OA
BRANCH  17  19
ATOM     19  O   UNL     1       8.232  -1.773   2.287  0.00  0.00    -0.462 OA
BRANCH  19  21
ATOM     20  C   UNL     1       8.524  -3.892   3.411  0.00  0.00    +0.048 C 
ATOM     21  C   UNL     1       7.919  -2.489   3.483  0.00  0.00    +0.229 C 
ENDBRANCH  19  21
ENDBRANCH  17  19
ENDBRANCH   1  17
BRANCH   2  22
ATOM     22  C   UNL     1       6.244  -0.958  -0.145  0.00  0.00    +0.283 C 
BRANCH  22  23
ATOM     23  O   UNL     1       4.963  -0.302  -0.335  0.00  0.00    -0.455 OA
BRANCH  23  24
ATOM     24  C   UNL     1       3.873  -1.092  -0.393  0.00  0.00    +0.340 C 
ATOM     25  O   UNL     1       3.990  -2.297  -0.288  0.00  0.00    -0.245 OA
BRANCH  24  26
ATOM     26  C   UNL     1       2.537  -0.495  -0.585  0.00  0.00    +0.062 A 
ATOM     27  C   UNL     1       1.406  -1.312  -0.645  0.00  0.00    +0.018 A 
ATOM     28  C   UNL     1       0.160  -0.749  -0.824  0.00  0.00    +0.042 A 
ATOM     29  C   UNL     1       0.027   0.625  -0.943  0.00  0.00    +0.158 A 
ATOM     30  C   UNL     1       1.148   1.443  -0.884  0.00  0.00    +0.159 A 
ATOM     31  C   UNL     1       2.400   0.890  -0.706  0.00  0.00    +0.056 A 
ATOM     32  F   UNL     1       1.012   2.783  -1.001  0.00  0.00    -0.202 F 
ATOM     33  F   UNL     1      -1.196   1.170  -1.123  0.00  0.00    -0.202 F 
ENDBRANCH  24  26
ENDBRANCH  23  24
ENDBRANCH  22  23
ENDBRANCH   2  22
TORSDOF 8
