REMARK  Name = ZINC15946848
REMARK  10 active torsions:
REMARK  status: ('A' for Active; 'I' for Inactive)
REMARK    1  A    between atoms: C_1  and  C_2
REMARK    2  A    between atoms: C_2  and  O_3
REMARK    3  A    between atoms: O_3  and  C_4
REMARK    4  A    between atoms: C_7  and  N_10
REMARK    5  A    between atoms: C_11  and  C_13
REMARK    6  A    between atoms: C_17  and  N_18
REMARK    7  A    between atoms: C_19  and  C_21
REMARK    8  A    between atoms: C_21  and  N_68
REMARK    9  A    between atoms: C_26  and  C_28
REMARK   10  A    between atoms: C_30  and  C_34
REMARK                            x       y       z     vdW  Elec       q    Type
REMARK                         _______ _______ _______ _____ _____    ______ ____
ROOT
ATOM      1  C   UNL     1      -2.458   0.616   0.477  0.00  0.00    +0.069 A 
ATOM      2  C   UNL     1      -3.622   1.468   0.657  0.00  0.00    -0.023 A 
ATOM      3  C   UNL     1      -3.362   2.792   0.711  0.00  0.00    -0.004 A 
ATOM      4  S   UNL     1      -1.605   2.917   0.533  0.00  0.00    -0.077 S 
ATOM      5  C   UNL     1      -1.218   1.234   0.390  0.00  0.00    +0.084 A 
ATOM      6  C   UNL     1      -4.355   3.901   0.883  0.00  0.00    +0.046 C 
ATOM      7  C   UNL     1      -5.679   3.293   1.367  0.00  0.00    -0.009 C 
ATOM      8  C   UNL     1      -6.019   2.087   0.486  0.00  0.00    +0.008 C 
ATOM      9  C   UNL     1      -5.047   0.942   0.774  0.00  0.00    +0.037 C 
ATOM     10  C   UNL     1      -6.792   4.337   1.259  0.00  0.00    +0.008 C 
ENDROOT
BRANCH   1  12
ATOM     11  N   UNL     1      -2.767  -1.436  -0.800  0.00  0.00    -0.281 N 
ATOM     12  C   UNL     1      -2.588  -0.842   0.396  0.00  0.00    +0.251 C 
ATOM     13  O   UNL     1      -2.534  -1.515   1.408  0.00  0.00    -0.270 OA
ATOM     14  H   UNL     1      -2.867  -0.897  -1.600  0.00  0.00    +0.155 HD
BRANCH  11  18
ATOM     15  C   UNL     1      -2.890  -5.596  -1.063  0.00  0.00    +0.121 A 
ATOM     16  C   UNL     1      -3.428  -4.955   0.043  0.00  0.00    +0.047 A 
ATOM     17  C   UNL     1      -3.388  -3.577   0.131  0.00  0.00    +0.027 A 
ATOM     18  C   UNL     1      -2.808  -2.834  -0.888  0.00  0.00    +0.034 A 
ATOM     19  C   UNL     1      -2.275  -3.475  -1.998  0.00  0.00    +0.027 A 
ATOM     20  C   UNL     1      -2.311  -4.853  -2.082  0.00  0.00    +0.047 A 
BRANCH  15  21
ATOM     21  O   UNL     1      -2.929  -6.952  -1.149  0.00  0.00    -0.492 OA
BRANCH  21  23
ATOM     22  C   UNL     1      -2.494  -9.067  -2.234  0.00  0.00    +0.048 C 
ATOM     23  C   UNL     1      -2.357  -7.546  -2.316  0.00  0.00    +0.225 C 
ENDBRANCH  21  23
ENDBRANCH  15  21
ENDBRANCH  11  18
ENDBRANCH   1  12
BRANCH   5  24
ATOM     24  N   UNL     1       0.027   0.648   0.222  0.00  0.00    -0.281 N 
ATOM     25  C   UNL     1       1.130   1.418   0.147  0.00  0.00    +0.201 C 
ATOM     26  O   UNL     1       1.034   2.624   0.230  0.00  0.00    -0.278 OA
ATOM     27  H   UNL     1       0.103  -0.317   0.155  0.00  0.00    +0.155 HD
BRANCH  25  28
ATOM     28  C   UNL     1       2.483   0.781  -0.042  0.00  0.00    +0.019 C 
BRANCH  28  35
ATOM     29  C   UNL     1       3.195   2.655  -1.399  0.00  0.00    -0.078 C 
ATOM     30  C   UNL     1       4.342   3.638  -1.642  0.00  0.00    -0.019 C 
ATOM     31  C   UNL     1       4.519   4.523  -0.405  0.00  0.00    -0.003 C 
ATOM     32  C   UNL     1       4.785   3.635   0.814  0.00  0.00    -0.016 C 
ATOM     33  C   UNL     1       3.624   2.652   0.986  0.00  0.00    -0.071 C 
ATOM     34  C   UNL     1       3.894   1.750   2.191  0.00  0.00    -0.013 C 
ATOM     35  N   UNL     1       3.522   1.814  -0.228  0.00  0.00    +0.387 N 
ATOM     36  H   UNL     1       4.425   1.353  -0.391  0.00  0.00    -0.081 HD
ENDBRANCH  28  35
ENDBRANCH  25  28
ENDBRANCH   5  24
TORSDOF 7
