REMARK  Name = ZINC12947591
REMARK  6 active torsions:
REMARK  status: ('A' for Active; 'I' for Inactive)
REMARK    1  A    between atoms: C_1  and  N_2
REMARK    2  A    between atoms: N_2  and  C_3
REMARK    3  A    between atoms: C_6  and  C_11
REMARK    4  A    between atoms: C_11  and  C_25
REMARK    5  A    between atoms: C_12  and  C_13
REMARK    6  A    between atoms: C_16  and  C_18
REMARK                            x       y       z     vdW  Elec       q    Type
REMARK                         _______ _______ _______ _____ _____    ______ ____
ROOT
ATOM      1  C   UNL     1       6.317   2.645  -0.045  0.00  0.00    +0.098 C 
ATOM      2  C   UNL     1       6.110   1.285  -0.051  0.00  0.00    +0.051 C 
ENDROOT
BRANCH   1   8
ATOM      3  C   UNL     1      10.706   6.880  -0.067  0.00  0.00    +0.132 C 
ATOM      4  N   UNL     1       9.341   6.347  -0.056  0.00  0.00    -0.306 N 
ATOM      5  C   UNL     1       8.197   7.263  -0.039  0.00  0.00    +0.132 C 
ATOM      6  C   UNL     1       9.132   4.983  -0.061  0.00  0.00    +0.222 A 
ATOM      7  N   UNL     1       7.894   4.500  -0.056  0.00  0.00    -0.194 NA
ATOM      8  C   UNL     1       7.693   3.183  -0.056  0.00  0.00    +0.177 A 
ATOM      9  N   UNL     1       8.734   2.352  -0.071  0.00  0.00    -0.194 NA
ATOM     10  C   UNL     1       9.971   2.837  -0.082  0.00  0.00    +0.217 A 
ATOM     11  N   UNL     1      10.170   4.152  -0.076  0.00  0.00    -0.181 NA
ATOM     12  N   UNL     1      11.050   1.976  -0.097  0.00  0.00    -0.327 N 
ATOM     13  H   UNL     1      10.905   1.017  -0.101  0.00  0.00    +0.145 HD
ATOM     14  H   UNL     1      11.953   2.330  -0.105  0.00  0.00    +0.145 HD
ENDBRANCH   1   8
BRANCH   2  15
ATOM     15  C   UNL     1       4.748   0.752  -0.040  0.00  0.00    +0.073 A 
ATOM     16  C   UNL     1       4.523  -0.619  -0.046  0.00  0.00    +0.075 A 
ATOM     17  S   UNL     1       2.788  -0.685  -0.022  0.00  0.00    -0.075 S 
ATOM     18  C   UNL     1       2.478   1.074  -0.016  0.00  0.00    +0.109 A 
ATOM     19  N   UNL     1       3.702   1.568  -0.025  0.00  0.00    -0.240 NA
BRANCH  18  20
ATOM     20  C   UNL     1       1.186   1.791   0.000  0.00  0.00    +0.007 A 
ATOM     21  C   UNL     1      -0.013   1.076   0.008  0.00  0.00    +0.012 A 
ATOM     22  C   UNL     1      -1.216   1.750   0.017  0.00  0.00    +0.020 A 
ATOM     23  C   UNL     1      -1.236   3.135   0.030  0.00  0.00    +0.041 A 
ATOM     24  C   UNL     1      -0.050   3.850   0.023  0.00  0.00    +0.020 A 
ATOM     25  C   UNL     1       1.159   3.187   0.008  0.00  0.00    +0.012 A 
ATOM     26 CL   UNL     1      -2.754   3.978   0.048  0.00  0.00    -0.084 Cl
ENDBRANCH  18  20
ENDBRANCH   2  15
BRANCH   1  27
ATOM     27  C   UNL     1       5.199   3.539  -0.029  0.00  0.00    +0.103 C 
ATOM     28  N   UNL     1       4.312   4.249  -0.015  0.00  0.00    -0.191 NA
ENDBRANCH   1  27
TORSDOF 4
