REMARK  Name = ZINC13567607
REMARK  5 active torsions:
REMARK  status: ('A' for Active; 'I' for Inactive)
REMARK    1  A    between atoms: C_2  and  C_3
REMARK    2  A    between atoms: C_3  and  N_4
REMARK    3  A    between atoms: C_14  and  C_31
REMARK    4  A    between atoms: C_15  and  N_30
REMARK    5  A    between atoms: N_16  and  C_24
REMARK                            x       y       z     vdW  Elec       q    Type
REMARK                         _______ _______ _______ _____ _____    ______ ____
ROOT
ATOM      1  N   UNL     1       1.455   1.886  -0.554  0.00  0.00    -0.266 N 
ATOM      2  C   UNL     1       0.254   1.398  -1.037  0.00  0.00    +0.041 A 
ATOM      3  C   UNL     1      -0.843   2.092  -1.551  0.00  0.00    +0.024 A 
ATOM      4  C   UNL     1      -1.929   1.339  -1.970  0.00  0.00    +0.002 A 
ATOM      5  C   UNL     1      -1.941  -0.038  -1.883  0.00  0.00    +0.000 A 
ATOM      6  C   UNL     1      -0.857  -0.741  -1.369  0.00  0.00    +0.007 A 
ATOM      7  C   UNL     1       0.228   0.001  -0.953  0.00  0.00    -0.001 A 
ATOM      8  C   UNL     1       1.540  -0.411  -0.359  0.00  0.00    +0.141 C 
ATOM      9  C   UNL     1       2.272   0.898  -0.136  0.00  0.00    +0.240 C 
ATOM     10  O   UNL     1       3.384   1.031   0.330  0.00  0.00    -0.274 OA
ATOM     11  C   UNL     1       1.337  -1.112   0.951  0.00  0.00    +0.089 C 
ATOM     12  C   UNL     1       1.491  -2.458   1.053  0.00  0.00    +0.108 C 
ATOM     13  N   UNL     1       1.847  -3.197  -0.052  0.00  0.00    -0.259 N 
ATOM     14  C   UNL     1       2.430  -2.596  -1.137  0.00  0.00    +0.025 C 
ATOM     15  C   UNL     1       2.314  -1.264  -1.329  0.00  0.00    +0.037 C 
ATOM     16  C   UNL     1       2.910  -0.637  -2.438  0.00  0.00    +0.162 C 
ATOM     17  O   UNL     1       2.800   0.565  -2.573  0.00  0.00    -0.292 OA
ATOM     18  C   UNL     1       3.680  -1.428  -3.459  0.00  0.00    +0.080 C 
ATOM     19  C   UNL     1       3.122  -2.855  -3.509  0.00  0.00    +0.014 C 
ATOM     20  C   UNL     1       3.205  -3.456  -2.104  0.00  0.00    +0.052 C 
ENDROOT
BRANCH  13  21
ATOM     21  C   UNL     1       1.611  -4.577  -0.069  0.00  0.00    +0.058 A 
ATOM     22  C   UNL     1       2.573  -5.465   0.407  0.00  0.00    +0.027 A 
ATOM     23  C   UNL     1       2.293  -6.820   0.370  0.00  0.00    +0.021 A 
ATOM     24  C   UNL     1       1.077  -7.245  -0.134  0.00  0.00    +0.111 A 
ATOM     25  N   UNL     1       0.188  -6.379  -0.578  0.00  0.00    -0.261 NA
ATOM     26  C   UNL     1       0.411  -5.080  -0.555  0.00  0.00    +0.134 A 
ENDBRANCH  13  21
BRANCH  12  27
ATOM     27  N   UNL     1       1.293  -3.082   2.261  0.00  0.00    -0.345 N 
ATOM     28  H   UNL     1       1.488  -4.027   2.357  0.00  0.00    +0.144 HD
ATOM     29  H   UNL     1       0.957  -2.578   3.019  0.00  0.00    +0.144 HD
ENDBRANCH  12  27
BRANCH  11  30
ATOM     30  C   UNL     1       0.974  -0.352   2.110  0.00  0.00    +0.100 C 
ATOM     31  N   UNL     1       0.686   0.250   3.029  0.00  0.00    -0.191 NA
ENDBRANCH  11  30
BRANCH   1  32
ATOM     32  C   UNL     1       1.799   3.309  -0.503  0.00  0.00    +0.140 C 
BRANCH  32  34
ATOM     33  C   UNL     1       2.221   4.506   1.583  0.00  0.00    +0.005 C 
ATOM     34  C   UNL     1       1.357   3.886   0.817  0.00  0.00    -0.015 C 
ENDBRANCH  32  34
ENDBRANCH   1  32
TORSDOF 5
