REMARK  Name = ZINC14544155
REMARK  8 active torsions:
REMARK  status: ('A' for Active; 'I' for Inactive)
REMARK    1  A    between atoms: C_1  and  C_2
REMARK    2  A    between atoms: C_4  and  C_40
REMARK    3  A    between atoms: C_6  and  N_8
REMARK    4  A    between atoms: N_8  and  S_9
REMARK    5  A    between atoms: S_9  and  C_12
REMARK    6  A    between atoms: C_25  and  C_28
REMARK    7  A    between atoms: C_37  and  O_38
REMARK    8  A    between atoms: O_38  and  C_39
REMARK                            x       y       z     vdW  Elec       q    Type
REMARK                         _______ _______ _______ _____ _____    ______ ____
ROOT
ATOM      1  C   UNL     1       1.573   1.635  -0.409  0.00  0.00    +0.109 A 
ATOM      2  C   UNL     1       1.531   0.257  -0.528  0.00  0.00    +0.030 A 
ATOM      3  C   UNL     1       0.312  -0.387  -0.592  0.00  0.00    +0.025 A 
ATOM      4  C   UNL     1      -0.866   0.348  -0.536  0.00  0.00    +0.031 A 
ATOM      5  C   UNL     1      -0.829   1.726  -0.420  0.00  0.00    -0.018 A 
ATOM      6  C   UNL     1       0.403   2.364  -0.355  0.00  0.00    +0.034 A 
ATOM      7  C   UNL     1      -2.069   2.577  -0.366  0.00  0.00    +0.049 C 
ATOM      8  C   UNL     1      -2.019   3.538  -1.543  0.00  0.00    -0.023 C 
ATOM      9  C   UNL     1      -2.716   3.068  -2.546  0.00  0.00    -0.030 C 
ATOM     10  C   UNL     1      -3.334   1.730  -2.183  0.00  0.00    +0.033 C 
ATOM     11  C   UNL     1      -3.349   1.765  -0.636  0.00  0.00    +0.029 C 
ATOM     12  C   UNL     1      -3.273   0.364  -0.059  0.00  0.00    +0.109 C 
ATOM     13  N   UNL     1      -2.092  -0.323  -0.593  0.00  0.00    -0.336 N 
ATOM     14  H   UNL     1      -2.160  -1.213  -0.973  0.00  0.00    +0.147 HD
ENDROOT
BRANCH  12  15
ATOM     15  C   UNL     1      -3.170   0.445   1.443  0.00  0.00    +0.022 A 
ATOM     16  C   UNL     1      -2.723  -0.663   2.181  0.00  0.00    -0.009 A 
ATOM     17  C   UNL     1      -2.363  -1.864   1.546  0.00  0.00    +0.009 A 
ATOM     18  C   UNL     1      -1.934  -2.918   2.292  0.00  0.00    +0.001 A 
ATOM     19  C   UNL     1      -1.844  -2.825   3.680  0.00  0.00    +0.001 A 
ATOM     20  C   UNL     1      -2.184  -1.678   4.329  0.00  0.00    +0.008 A 
ATOM     21  C   UNL     1      -2.632  -0.569   3.592  0.00  0.00    -0.017 A 
ATOM     22  C   UNL     1      -2.991   0.632   4.229  0.00  0.00    +0.012 A 
ATOM     23  C   UNL     1      -3.421   1.687   3.486  0.00  0.00    +0.046 A 
ATOM     24  C   UNL     1      -3.506   1.598   2.093  0.00  0.00    +0.126 A 
BRANCH  24  25
ATOM     25  O   UNL     1      -3.933   2.672   1.378  0.00  0.00    -0.495 OA
ATOM     26  C   UNL     1      -4.171   3.881   2.101  0.00  0.00    +0.277 C 
ENDBRANCH  24  25
ENDBRANCH  12  15
BRANCH   1  27
ATOM     27  S   UNL     1       3.127   2.461  -0.325  0.00  0.00    +0.072 S 
ATOM     28  O   UNL     1       2.875   3.744   0.232  0.00  0.00    -0.150 OA
ATOM     29  O   UNL     1       4.043   1.544   0.258  0.00  0.00    -0.150 OA
BRANCH  27  30
ATOM     30  N   UNL     1       3.634   2.711  -1.881  0.00  0.00    -0.216 N 
ATOM     31  H   UNL     1       3.769   3.614  -2.208  0.00  0.00    +0.174 HD
BRANCH  30  37
ATOM     32  C   UNL     1       5.616  -1.727  -2.608  0.00  0.00    +0.044 C 
ATOM     33  C   UNL     1       4.824  -0.544  -3.103  0.00  0.00    -0.048 A 
ATOM     34  C   UNL     1       4.327  -0.536  -4.393  0.00  0.00    +0.006 A 
ATOM     35  C   UNL     1       3.600   0.547  -4.851  0.00  0.00    -0.048 A 
ATOM     36  C   UNL     1       3.368   1.626  -4.021  0.00  0.00    +0.028 A 
ATOM     37  C   UNL     1       3.866   1.621  -2.724  0.00  0.00    +0.049 A 
ATOM     38  C   UNL     1       4.600   0.534  -2.269  0.00  0.00    +0.028 A 
ATOM     39  C   UNL     1       3.061   0.551  -6.258  0.00  0.00    +0.044 C 
ENDBRANCH  30  37
ENDBRANCH  27  30
ENDBRANCH   1  27
TORSDOF 5
