REMARK  Name = ZINC14572444
REMARK  12 active torsions:
REMARK  status: ('A' for Active; 'I' for Inactive)
REMARK    1  A    between atoms: C_1  and  C_2
REMARK    2  A    between atoms: C_2  and  C_3
REMARK    3  A    between atoms: C_3  and  C_5
REMARK    4  A    between atoms: C_3  and  C_6
REMARK    5  A    between atoms: C_6  and  C_7
REMARK    6  A    between atoms: C_8  and  C_31
REMARK    7  A    between atoms: C_16  and  S_18
REMARK    8  A    between atoms: S_18  and  C_19
REMARK    9  A    between atoms: C_19  and  C_21
REMARK   10  A    between atoms: C_19  and  C_22
REMARK   11  A    between atoms: N_24  and  C_25
REMARK   12  A    between atoms: C_27  and  C_30
REMARK                            x       y       z     vdW  Elec       q    Type
REMARK                         _______ _______ _______ _____ _____    ______ ____
ROOT
ATOM      1  C   UNL     1      -2.144  -0.453   1.393  0.00  0.00    -0.023 A 
ATOM      2  C   UNL     1      -2.160  -1.041   2.599  0.00  0.00    -0.007 A 
ATOM      3  S   UNL     1      -2.127  -2.780   2.211  0.00  0.00    -0.073 S 
ATOM      4  C   UNL     1      -2.094  -2.668   0.441  0.00  0.00    +0.117 A 
ATOM      5  C   UNL     1      -2.115  -1.281   0.200  0.00  0.00    +0.075 A 
ATOM      6  C   UNL     1      -2.088  -0.888  -1.175  0.00  0.00    +0.261 A 
ATOM      7  O   UNL     1      -2.099   0.293  -1.480  0.00  0.00    -0.267 OA
ATOM      8  N   UNL     1      -2.055  -1.837  -2.128  0.00  0.00    -0.301 N 
ATOM      9  H   UNL     1      -2.041  -1.574  -3.061  0.00  0.00    +0.171 HD
ATOM     10  C   UNL     1      -2.042  -3.163  -1.806  0.00  0.00    +0.171 A 
ATOM     11  N   UNL     1      -2.062  -3.554  -0.547  0.00  0.00    -0.216 NA
ATOM     12  C   UNL     1      -2.196  -0.387   3.956  0.00  0.00    +0.052 C 
ENDROOT
BRANCH   1  13
ATOM     13  C   UNL     1      -2.164   1.050   1.278  0.00  0.00    +0.040 C 
BRANCH  13  14
ATOM     14  C   UNL     1      -0.729   1.579   1.267  0.00  0.00    -0.010 C 
ATOM     15  C   UNL     1      -0.013   1.086   0.008  0.00  0.00    +0.008 C 
BRANCH  14  17
ATOM     16  C   UNL     1       0.681   3.638   1.390  0.00  0.00    +0.004 C 
ATOM     17  C   UNL     1      -0.750   3.109   1.275  0.00  0.00    +0.000 C 
ENDBRANCH  14  17
ENDBRANCH  13  14
ENDBRANCH   1  13
BRANCH  10  18
ATOM     18  S   UNL     1      -2.000  -4.370  -3.089  0.00  0.00    -0.075 S 
BRANCH  18  19
ATOM     19  C   UNL     1      -1.997  -5.884  -2.098  0.00  0.00    +0.137 C 
ATOM     20  C   UNL     1      -3.319  -5.996  -1.335  0.00  0.00    +0.029 C 
BRANCH  19  21
ATOM     21  C   UNL     1      -1.839  -7.077  -3.004  0.00  0.00    +0.233 C 
ATOM     22  O   UNL     1      -2.096  -6.981  -4.185  0.00  0.00    -0.274 OA
ATOM     23  N   UNL     1      -1.410  -8.253  -2.502  0.00  0.00    -0.253 N 
ATOM     24  H   UNL     1      -1.204  -8.330  -1.557  0.00  0.00    +0.158 HD
BRANCH  23  25
ATOM     25  C   UNL     1      -1.264  -9.351  -3.336  0.00  0.00    +0.224 A 
ATOM     26  C   UNL     1      -0.843 -10.600  -2.980  0.00  0.00    +0.092 A 
ATOM     27  C   UNL     1      -0.875 -11.326  -4.188  0.00  0.00    +0.082 A 
ATOM     28  N   UNL     1      -1.287 -10.499  -5.107  0.00  0.00    -0.081 NA
ATOM     29  O   UNL     1      -1.513  -9.401  -4.654  0.00  0.00    -0.339 OA
ATOM     30  C   UNL     1      -0.506 -12.775  -4.379  0.00  0.00    +0.069 C 
ENDBRANCH  23  25
ENDBRANCH  19  21
ENDBRANCH  18  19
ENDBRANCH  10  18
TORSDOF 7
