REMARK  Name = ZINC06940679
REMARK  3 active torsions:
REMARK  status: ('A' for Active; 'I' for Inactive)
REMARK    1  A    between atoms: C_1  and  C_2
REMARK    2  A    between atoms: C_9  and  O_19
REMARK    3  A    between atoms: C_21  and  C_22
REMARK                            x       y       z     vdW  Elec       q    Type
REMARK                         _______ _______ _______ _____ _____    ______ ____
ROOT
ATOM      1  C   UNL     1       2.797  -0.276  -0.148  0.00  0.00    +0.048 C 
ATOM      2  C   UNL     1       1.357  -0.664   0.066  0.00  0.00    +0.008 A 
ATOM      3  C   UNL     1       0.763  -1.985  -0.134  0.00  0.00    +0.033 A 
ATOM      4  C   UNL     1      -0.598  -1.845   0.188  0.00  0.00    +0.137 A 
ATOM      5  C   UNL     1      -1.435  -2.950   0.089  0.00  0.00    +0.050 A 
ATOM      6  C   UNL     1      -0.929  -4.161  -0.325  0.00  0.00    +0.049 A 
ATOM      7  C   UNL     1       0.423  -4.304  -0.648  0.00  0.00    +0.128 A 
ATOM      8  C   UNL     1       1.270  -3.223  -0.550  0.00  0.00    +0.034 A 
ATOM      9  C   UNL     1       2.736  -3.339  -0.880  0.00  0.00    +0.152 C 
ATOM     10  C   UNL     1       2.980  -4.595  -1.721  0.00  0.00    +0.084 C 
ATOM     11  C   UNL     1       2.267  -5.772  -1.045  0.00  0.00    +0.113 C 
ATOM     12  O   UNL     1       0.863  -5.523  -1.060  0.00  0.00    -0.485 OA
ATOM     13  C   UNL     1       2.571  -7.059  -1.813  0.00  0.00    +0.048 C 
ATOM     14  C   UNL     1       1.862  -8.235  -1.139  0.00  0.00    +0.004 C 
ATOM     15  C   UNL     1       2.355  -8.370   0.303  0.00  0.00    +0.000 C 
ATOM     16  C   UNL     1       2.046  -7.083   1.070  0.00  0.00    +0.004 C 
ATOM     17  C   UNL     1       2.756  -5.906   0.397  0.00  0.00    +0.048 C 
ATOM     18  O   UNL     1      -0.801  -0.563   0.550  0.00  0.00    -0.450 OA
ATOM     19  C   UNL     1       0.348   0.142   0.485  0.00  0.00    +0.194 A 
ENDROOT
BRANCH  19  20
ATOM     20  C   UNL     1       0.484   1.568   0.813  0.00  0.00    +0.282 C 
ATOM     21  O   UNL     1       1.523   2.152   0.567  0.00  0.00    -0.267 OA
ATOM     22  N   UNL     1      -0.542   2.231   1.381  0.00  0.00    -0.295 N 
ATOM     23  C   UNL     1      -1.749   1.512   1.814  0.00  0.00    +0.108 C 
ATOM     24  C   UNL     1      -2.017   1.851   3.288  0.00  0.00    +0.019 C 
ATOM     25  C   UNL     1      -2.099   3.371   3.450  0.00  0.00    +0.003 C 
ATOM     26  C   UNL     1      -0.764   4.001   3.046  0.00  0.00    +0.019 C 
ATOM     27  C   UNL     1      -0.480   3.686   1.574  0.00  0.00    +0.108 C 
ENDBRANCH  19  20
BRANCH   9  28
ATOM     28  O   UNL     1       3.151  -2.187  -1.617  0.00  0.00    -0.387 OA
ATOM     29  H   UNL     1       2.700  -2.079  -2.466  0.00  0.00    +0.210 HD
ENDBRANCH   9  28
TORSDOF 2
