REMARK  Name = ZINC03978921
REMARK  8 active torsions:
REMARK  status: ('A' for Active; 'I' for Inactive)
REMARK    1  A    between atoms: C_1  and  C_2
REMARK    2  A    between atoms: C_2  and  C_39
REMARK    3  A    between atoms: C_6  and  O_38
REMARK    4  A    between atoms: C_8  and  C_37
REMARK    5  A    between atoms: C_11  and  C_18
REMARK    6  A    between atoms: C_15  and  O_17
REMARK    7  A    between atoms: C_21  and  C_36
REMARK    8  A    between atoms: C_29  and  C_31
REMARK                            x       y       z     vdW  Elec       q    Type
REMARK                         _______ _______ _______ _____ _____    ______ ____
ROOT
ATOM      1  C   UNL     1      -1.219   2.811   1.174  0.00  0.00    +0.014 C 
ATOM      2  C   UNL     1      -0.975   1.334   0.828  0.00  0.00    -0.005 C 
ATOM      3  C   UNL     1      -2.249   0.516   0.950  0.00  0.00    +0.013 C 
ATOM      4  C   UNL     1      -2.153  -0.761   0.115  0.00  0.00    +0.037 C 
ATOM      5  C   UNL     1      -3.537  -1.416   0.096  0.00  0.00    +0.124 C 
ATOM      6  C   UNL     1      -3.863  -1.945   1.476  0.00  0.00    +0.030 C 
ATOM      7  C   UNL     1      -3.751  -0.866   2.504  0.00  0.00    +0.014 C 
ATOM      8  C   UNL     1      -2.685   0.202   2.372  0.00  0.00    +0.033 C 
ATOM      9  C   UNL     1      -1.509  -0.082   3.269  0.00  0.00    +0.142 C 
ATOM     10  O   UNL     1      -1.539  -0.954   4.105  0.00  0.00    -0.297 OA
ATOM     11  C   UNL     1      -0.259   0.764   3.156  0.00  0.00    +0.106 C 
ATOM     12  C   UNL     1       0.164   0.800   1.690  0.00  0.00    +0.128 C 
ATOM     13  C   UNL     1      -3.370   1.478   2.936  0.00  0.00    +0.020 C 
ATOM     14  C   UNL     1      -4.008  -1.314   3.916  0.00  0.00    +0.006 C 
ATOM     15  C   UNL     1      -3.456  -2.648   4.325  0.00  0.00    +0.014 C 
ATOM     16  C   UNL     1      -3.069  -3.637   3.283  0.00  0.00    +0.042 C 
ATOM     17  C   UNL     1      -3.122  -3.225   1.831  0.00  0.00    +0.124 C 
ATOM     18  C   UNL     1      -3.182  -4.368   0.797  0.00  0.00    +0.260 C 
ATOM     19  O   UNL     1      -2.007  -3.596   1.003  0.00  0.00    -0.352 OA
ATOM     20  C   UNL     1      -3.248  -5.771   1.336  0.00  0.00    +0.340 C 
ATOM     21  O   UNL     1      -3.469  -6.689   0.587  0.00  0.00    -0.248 OA
ATOM     22  O   UNL     1      -3.059  -5.994   2.639  0.00  0.00    -0.454 OA
ATOM     23  C   UNL     1      -3.555  -5.040   3.567  0.00  0.00    +0.218 C 
ATOM     24  C   UNL     1      -1.564  -3.802   3.516  0.00  0.00    +0.018 C 
ATOM     25  C   UNL     1      -5.353  -2.326   1.426  0.00  0.00    +0.017 C 
ATOM     26  C   UNL     1      -0.481   1.333  -0.634  0.00  0.00    +0.014 C 
ENDROOT
BRANCH  23  27
ATOM     27  C   UNL     1      -3.089  -5.454   4.939  0.00  0.00    +0.031 A 
ATOM     28  C   UNL     1      -1.887  -6.130   5.252  0.00  0.00    +0.048 A 
ATOM     29  C   UNL     1      -1.872  -6.299   6.587  0.00  0.00    +0.195 A 
ATOM     30  O   UNL     1      -2.994  -5.764   7.095  0.00  0.00    -0.471 OA
ATOM     31  C   UNL     1      -3.733  -5.245   6.101  0.00  0.00    +0.202 A 
ENDBRANCH  23  27
BRANCH  12  32
ATOM     32  O   UNL     1       0.537  -0.508   1.259  0.00  0.00    -0.391 OA
ATOM     33  H   UNL     1       1.258  -0.900   1.770  0.00  0.00    +0.210 HD
ENDBRANCH  12  32
BRANCH   5  34
ATOM     34  O   UNL     1      -3.603  -2.388  -0.927  0.00  0.00    -0.391 OA
ATOM     35  H   UNL     1      -3.449  -2.036  -1.814  0.00  0.00    +0.210 HD
ENDBRANCH   5  34
TORSDOF 3
