REMARK  Name = ZINC41006247
REMARK  13 active torsions:
REMARK  status: ('A' for Active; 'I' for Inactive)
REMARK    1  A    between atoms: C_1  and  C_2
REMARK    2  A    between atoms: C_2  and  C_3
REMARK    3  A    between atoms: C_6  and  C_9
REMARK    4  A    between atoms: C_11  and  C_32
REMARK    5  A    between atoms: C_16  and  C_30
REMARK    6  A    between atoms: C_16  and  O_31
REMARK    7  A    between atoms: C_17  and  C_19
REMARK    8  A    between atoms: N_21  and  C_22
REMARK    9  A    between atoms: C_27  and  O_28
REMARK   10  A    between atoms: O_28  and  C_29
REMARK   11  A    between atoms: N_34  and  C_35
REMARK   12  A    between atoms: C_40  and  O_41
REMARK   13  A    between atoms: O_41  and  C_42
REMARK                            x       y       z     vdW  Elec       q    Type
REMARK                         _______ _______ _______ _____ _____    ______ ____
ROOT
ATOM      1  C   UNL     1      -5.264  -2.395   0.171  0.00  0.00    +0.053 C 
ATOM      2  C   UNL     1      -6.227  -1.499  -0.616  0.00  0.00    +0.149 C 
ATOM      3  C   UNL     1      -7.577  -2.179  -0.672  0.00  0.00    +0.148 C 
ATOM      4  O   UNL     1      -8.581  -1.589  -0.351  0.00  0.00    -0.296 OA
ATOM      5  C   UNL     1      -7.639  -3.615  -1.141  0.00  0.00    +0.110 C 
ATOM      6  C   UNL     1      -6.624  -4.434  -0.335  0.00  0.00    +0.082 C 
ATOM      7  C   UNL     1      -5.242  -3.790  -0.455  0.00  0.00    +0.115 C 
ATOM      8  C   UNL     1      -7.046  -4.466   1.135  0.00  0.00    +0.042 C 
ENDROOT
BRANCH   1  12
ATOM      9  C   UNL     1      -1.337  -0.718   0.048  0.00  0.00    -0.048 A 
ATOM     10  C   UNL     1      -1.971  -0.905   1.262  0.00  0.00    +0.004 A 
ATOM     11  C   UNL     1      -3.242  -1.447   1.302  0.00  0.00    +0.004 A 
ATOM     12  C   UNL     1      -3.879  -1.803   0.127  0.00  0.00    -0.042 A 
ATOM     13  C   UNL     1      -3.245  -1.615  -1.087  0.00  0.00    +0.004 A 
ATOM     14  C   UNL     1      -1.975  -1.069  -1.127  0.00  0.00    +0.004 A 
BRANCH   9  16
ATOM     15  C   UNL     1      -0.050   1.396  -0.096  0.00  0.00    +0.009 C 
ATOM     16  C   UNL     1       0.049  -0.127   0.005  0.00  0.00    +0.032 C 
ENDBRANCH   9  16
ENDBRANCH   1  12
BRANCH   7  17
ATOM     17  C   UNL     1      -4.228  -4.644   0.261  0.00  0.00    +0.224 C 
ATOM     18  O   UNL     1      -3.586  -4.181   1.181  0.00  0.00    -0.275 OA
ATOM     19  N   UNL     1      -4.033  -5.922  -0.120  0.00  0.00    -0.282 N 
ATOM     20  H   UNL     1      -4.588  -6.311  -0.814  0.00  0.00    +0.155 HD
BRANCH  19  21
ATOM     21  C   UNL     1      -3.028  -6.689   0.486  0.00  0.00    +0.076 A 
ATOM     22  C   UNL     1      -2.731  -6.510   1.829  0.00  0.00    +0.027 A 
ATOM     23  C   UNL     1      -1.740  -7.267   2.424  0.00  0.00    +0.002 A 
ATOM     24  C   UNL     1      -1.043  -8.204   1.684  0.00  0.00    +0.004 A 
ATOM     25  C   UNL     1      -1.334  -8.389   0.345  0.00  0.00    +0.047 A 
ATOM     26  C   UNL     1      -2.330  -7.637  -0.258  0.00  0.00    +0.141 A 
BRANCH  26  27
ATOM     27  O   UNL     1      -2.621  -7.821  -1.573  0.00  0.00    -0.493 OA
ATOM     28  C   UNL     1      -1.863  -8.811  -2.273  0.00  0.00    +0.277 C 
ENDBRANCH  26  27
ENDBRANCH  19  21
ENDBRANCH   7  17
BRANCH   2  29
ATOM     29  C   UNL     1      -6.355  -0.166   0.074  0.00  0.00    +0.228 C 
ATOM     30  O   UNL     1      -5.738   0.051   1.095  0.00  0.00    -0.275 OA
ATOM     31  N   UNL     1      -7.156   0.787  -0.444  0.00  0.00    -0.282 N 
ATOM     32  H   UNL     1      -7.700   0.592  -1.223  0.00  0.00    +0.155 HD
BRANCH  31  33
ATOM     33  C   UNL     1      -7.203   2.058   0.143  0.00  0.00    +0.076 A 
ATOM     34  C   UNL     1      -7.077   2.194   1.518  0.00  0.00    +0.027 A 
ATOM     35  C   UNL     1      -7.123   3.449   2.095  0.00  0.00    +0.002 A 
ATOM     36  C   UNL     1      -7.296   4.571   1.305  0.00  0.00    +0.004 A 
ATOM     37  C   UNL     1      -7.423   4.443  -0.066  0.00  0.00    +0.047 A 
ATOM     38  C   UNL     1      -7.372   3.189  -0.653  0.00  0.00    +0.141 A 
BRANCH  38  39
ATOM     39  O   UNL     1      -7.490   3.062  -2.001  0.00  0.00    -0.493 OA
ATOM     40  C   UNL     1      -7.660   4.265  -2.754  0.00  0.00    +0.277 C 
ENDBRANCH  38  39
ENDBRANCH  31  33
ENDBRANCH   2  29
BRANCH   6  41
ATOM     41  O   UNL     1      -6.575  -5.768  -0.847  0.00  0.00    -0.388 OA
ATOM     42  H   UNL     1      -7.419  -6.237  -0.803  0.00  0.00    +0.210 HD
ENDBRANCH   6  41
TORSDOF 9
