REMARK  Name = ZINC09235342
REMARK  13 active torsions:
REMARK  status: ('A' for Active; 'I' for Inactive)
REMARK    1  A    between atoms: C_1  and  N_64
REMARK    2  A    between atoms: C_4  and  C_5
REMARK    3  A    between atoms: C_8  and  O_13
REMARK    4  A    between atoms: C_9  and  O_11
REMARK    5  A    between atoms: O_11  and  C_12
REMARK    6  A    between atoms: O_13  and  C_14
REMARK    7  A    between atoms: C_18  and  C_26
REMARK    8  A    between atoms: C_20  and  C_24
REMARK    9  A    between atoms: C_21  and  N_23
REMARK   10  A    between atoms: C_29  and  O_34
REMARK   11  A    between atoms: C_30  and  O_32
REMARK   12  A    between atoms: O_32  and  C_33
REMARK   13  A    between atoms: O_34  and  C_35
REMARK                            x       y       z     vdW  Elec       q    Type
REMARK                         _______ _______ _______ _____ _____    ______ ____
ROOT
ATOM      1  C   UNL     1      -1.116  -4.256   5.760  0.00  0.00    -0.095 C 
ATOM      2  C   UNL     1       1.240  -4.332   6.333  0.00  0.00    -0.039 C 
ATOM      3  C   UNL     1       2.556  -3.664   5.994  0.00  0.00    -0.021 C 
ATOM      4  C   UNL     1       3.659  -4.388   5.733  0.00  0.00    +0.013 C 
ATOM      5  C   UNL     1       2.584  -2.187   5.960  0.00  0.00    +0.130 C 
ATOM      6  C   UNL     1       1.439  -1.504   6.007  0.00  0.00    -0.031 C 
ATOM      7  C   UNL     1       0.110  -2.205   6.122  0.00  0.00    -0.043 C 
ATOM      8  C   UNL     1       1.449   0.005   5.953  0.00  0.00    +0.092 C 
ATOM      9  C   UNL     1       2.815   0.533   6.290  0.00  0.00    +0.098 C 
ATOM     10  C   UNL     1       3.903  -0.275   6.234  0.00  0.00    +0.199 C 
ATOM     11  O   UNL     1       3.785  -1.565   5.874  0.00  0.00    -0.441 OA
ATOM     12  N   UNL     1       0.192  -3.580   5.605  0.00  0.00    +0.383 N 
ATOM     13  H   UNL     1       0.436  -3.548   4.608  0.00  0.00    -0.081 HD
ENDROOT
BRANCH   4  14
ATOM     14  C   UNL     1       3.646  -5.847   5.936  0.00  0.00    -0.021 A 
ATOM     15  C   UNL     1       2.874  -6.406   6.959  0.00  0.00    +0.012 A 
ATOM     16  C   UNL     1       2.864  -7.771   7.147  0.00  0.00    +0.050 A 
ATOM     17  C   UNL     1       3.618  -8.594   6.323  0.00  0.00    +0.162 A 
ATOM     18  C   UNL     1       4.391  -8.045   5.302  0.00  0.00    +0.162 A 
ATOM     19  C   UNL     1       4.403  -6.677   5.104  0.00  0.00    +0.057 A 
BRANCH  18  20
ATOM     20  O   UNL     1       5.128  -8.855   4.497  0.00  0.00    -0.491 OA
ATOM     21  C   UNL     1       5.896  -8.224   3.470  0.00  0.00    +0.277 C 
ENDBRANCH  18  20
BRANCH  17  22
ATOM     22  O   UNL     1       3.604  -9.940   6.513  0.00  0.00    -0.491 OA
ATOM     23  C   UNL     1       2.790 -10.437   7.577  0.00  0.00    +0.277 C 
ENDBRANCH  17  22
ENDBRANCH   4  14
BRANCH   8  24
ATOM     24  C   UNL     1       1.069   0.456   4.566  0.00  0.00    -0.031 A 
ATOM     25  C   UNL     1       1.849   0.092   3.484  0.00  0.00    +0.008 A 
ATOM     26  C   UNL     1       1.501   0.498   2.209  0.00  0.00    +0.050 A 
ATOM     27  C   UNL     1       0.376   1.282   2.015  0.00  0.00    +0.162 A 
ATOM     28  C   UNL     1      -0.409   1.650   3.104  0.00  0.00    +0.162 A 
ATOM     29  C   UNL     1      -0.058   1.234   4.378  0.00  0.00    +0.054 A 
BRANCH  28  30
ATOM     30  O   UNL     1      -1.517   2.416   2.918  0.00  0.00    -0.491 OA
ATOM     31  C   UNL     1      -2.274   2.755   4.082  0.00  0.00    +0.277 C 
ENDBRANCH  28  30
BRANCH  27  32
ATOM     32  O   UNL     1       0.035   1.688   0.762  0.00  0.00    -0.491 OA
ATOM     33  C   UNL     1       0.887   1.273  -0.307  0.00  0.00    +0.277 C 
ENDBRANCH  27  32
ENDBRANCH   8  24
BRANCH  10  34
ATOM     34  N   UNL     1       5.140   0.231   6.547  0.00  0.00    -0.328 N 
ATOM     35  H   UNL     1       5.231   1.161   6.807  0.00  0.00    +0.145 HD
ATOM     36  H   UNL     1       5.922  -0.342   6.509  0.00  0.00    +0.145 HD
ENDBRANCH  10  34
BRANCH   9  37
ATOM     37  C   UNL     1       2.970   1.903   6.675  0.00  0.00    +0.101 C 
ATOM     38  N   UNL     1       3.092   2.990   6.981  0.00  0.00    -0.191 NA
ENDBRANCH   9  37
TORSDOF 8
