REMARK  Name = ZINC20877085
REMARK  12 active torsions:
REMARK  status: ('A' for Active; 'I' for Inactive)
REMARK    1  A    between atoms: C_1  and  C_2
REMARK    2  A    between atoms: C_5  and  C_8
REMARK    3  A    between atoms: C_8  and  N_9
REMARK    4  A    between atoms: N_9  and  C_10
REMARK    5  A    between atoms: C_10  and  C_11
REMARK    6  A    between atoms: C_13  and  O_32
REMARK    7  A    between atoms: C_14  and  O_18
REMARK    8  A    between atoms: O_18  and  C_19
REMARK    9  A    between atoms: C_19  and  C_20
REMARK   10  A    between atoms: C_20  and  C_22
REMARK   11  A    between atoms: C_20  and  O_31
REMARK   12  A    between atoms: O_32  and  C_33
REMARK                            x       y       z     vdW  Elec       q    Type
REMARK                         _______ _______ _______ _____ _____    ______ ____
ROOT
ATOM      1  C   UNL     1       0.937   0.440   4.819  0.00  0.00    -0.060 A 
ATOM      2  C   UNL     1      -0.012  -0.365   4.215  0.00  0.00    +0.051 A 
ATOM      3  C   UNL     1      -0.561   0.005   2.998  0.00  0.00    +0.163 A 
ATOM      4  C   UNL     1      -0.148   1.182   2.381  0.00  0.00    +0.176 A 
ATOM      5  C   UNL     1       0.803   1.984   2.991  0.00  0.00    +0.063 A 
ATOM      6  C   UNL     1       1.344   1.611   4.208  0.00  0.00    +0.021 A 
ATOM      7 BR   UNL     1       1.362   3.587   2.159  0.00  0.00    -0.046 Br
ENDROOT
BRANCH   3   8
ATOM      8  O   UNL     1      -1.498  -0.783   2.406  0.00  0.00    -0.491 OA
ATOM      9  C   UNL     1      -1.873  -1.976   3.098  0.00  0.00    +0.277 C 
ENDBRANCH   3   8
BRANCH   1  10
ATOM     10  C   UNL     1       1.529   0.039   6.145  0.00  0.00    -0.046 C 
BRANCH  10  11
ATOM     11  N   UNL     1       0.718   0.600   7.234  0.00  0.00    +0.384 N 
ATOM     12  H   UNL     1      -0.309   0.214   7.143  0.00  0.00    -0.085 HD
ATOM     13  H   UNL     1       0.708   1.695   7.138  0.00  0.00    -0.085 HD
BRANCH  11  14
ATOM     14  C   UNL     1       1.266   0.228   8.545  0.00  0.00    -0.046 C 
BRANCH  14  19
ATOM     15  C   UNL     1      -2.019   2.498  12.722  0.00  0.00    +0.044 C 
ATOM     16  C   UNL     1      -1.162   1.906  11.633  0.00  0.00    -0.050 A 
ATOM     17  C   UNL     1      -1.447   0.648  11.136  0.00  0.00    +0.003 A 
ATOM     18  C   UNL     1      -0.661   0.105  10.137  0.00  0.00    +0.002 A 
ATOM     19  C   UNL     1       0.410   0.820   9.634  0.00  0.00    -0.064 A 
ATOM     20  C   UNL     1       0.697   2.076  10.134  0.00  0.00    +0.002 A 
ATOM     21  C   UNL     1      -0.091   2.621  11.130  0.00  0.00    +0.003 A 
ENDBRANCH  14  19
ENDBRANCH  11  14
ENDBRANCH  10  11
ENDBRANCH   1  10
BRANCH   4  22
ATOM     22  O   UNL     1      -0.682   1.547   1.184  0.00  0.00    -0.484 OA
BRANCH  22  23
ATOM     23  C   UNL     1      -0.013   1.086   0.008  0.00  0.00    +0.265 C 
BRANCH  23  24
ATOM     24  C   UNL     1      -0.753   1.593  -1.232  0.00  0.00    +0.182 C 
BRANCH  24  25
ATOM     25  C   UNL     1      -0.121   1.007  -2.468  0.00  0.00    -0.012 A 
ATOM     26  C   UNL     1       1.040   1.559  -2.977  0.00  0.00    +0.010 A 
ATOM     27  C   UNL     1       1.623   1.025  -4.111  0.00  0.00    +0.050 A 
ATOM     28  C   UNL     1       1.045  -0.065  -4.740  0.00  0.00    +0.166 A 
ATOM     29  C   UNL     1      -0.124  -0.621  -4.228  0.00  0.00    +0.167 A 
ATOM     30  C   UNL     1      -0.701  -0.084  -3.088  0.00  0.00    +0.055 A 
ATOM     31  O   UNL     1      -0.490  -1.673  -5.017  0.00  0.00    -0.453 OA
ATOM     32  C   UNL     1       0.685  -2.009  -5.778  0.00  0.00    +0.466 C 
ATOM     33  O   UNL     1       1.412  -0.768  -5.851  0.00  0.00    -0.453 OA
ENDBRANCH  24  25
BRANCH  24  34
ATOM     34  O   UNL     1      -0.672   3.018  -1.285  0.00  0.00    -0.384 OA
ATOM     35  H   UNL     1      -1.148   3.566  -2.111  0.00  0.00    +0.210 HD
ENDBRANCH  24  34
ENDBRANCH  23  24
ENDBRANCH  22  23
ENDBRANCH   4  22
TORSDOF 10
