REMARK  Name = ZINC09170707
REMARK  7 active torsions:
REMARK  status: ('A' for Active; 'I' for Inactive)
REMARK    1  A    between atoms: C_1  and  C_2
REMARK    2  A    between atoms: C_2  and  N_3
REMARK    3  A    between atoms: C_6  and  N_17
REMARK    4  A    between atoms: C_12  and  C_15
REMARK    5  A    between atoms: C_12  and  C_16
REMARK    6  A    between atoms: N_17  and  S_18
REMARK    7  A    between atoms: S_18  and  C_21
REMARK                            x       y       z     vdW  Elec       q    Type
REMARK                         _______ _______ _______ _____ _____    ______ ____
ROOT
ATOM      1  N   UNL     1      -1.843   8.622   3.618  0.00  0.00    -0.268 N 
ATOM      2  C   UNL     1      -1.256   7.756   2.685  0.00  0.00    +0.080 A 
ATOM      3  C   UNL     1      -1.870   6.562   2.348  0.00  0.00    +0.051 A 
ATOM      4  C   UNL     1      -1.270   5.713   1.427  0.00  0.00    +0.050 A 
ATOM      5  C   UNL     1      -0.054   6.059   0.853  0.00  0.00    +0.028 A 
ATOM      6  C   UNL     1       0.556   7.254   1.186  0.00  0.00    +0.049 A 
ATOM      7  C   UNL     1      -0.039   8.105   2.101  0.00  0.00    +0.142 A 
ATOM      8  O   UNL     1       0.554   9.284   2.432  0.00  0.00    -0.489 OA
ATOM      9  C   UNL     1      -0.005  10.473   1.879  0.00  0.00    +0.244 C 
ATOM     10  C   UNL     1      -1.530  10.436   1.966  0.00  0.00    +0.076 C 
ATOM     11  C   UNL     1      -1.959   9.936   3.321  0.00  0.00    +0.229 C 
ATOM     12  O   UNL     1      -2.407  10.709   4.142  0.00  0.00    -0.275 OA
ATOM     13  C   UNL     1      -2.077   9.502   0.884  0.00  0.00    +0.024 C 
ATOM     14  C   UNL     1      -2.082  11.845   1.747  0.00  0.00    +0.024 C 
ENDROOT
BRANCH   1  16
ATOM     15  C   UNL     1      -1.200   8.176   5.935  0.00  0.00    +0.025 C 
ATOM     16  C   UNL     1      -2.327   8.108   4.902  0.00  0.00    +0.110 C 
ENDBRANCH   1  16
BRANCH   4  17
ATOM     17  N   UNL     1      -1.889   4.506   1.082  0.00  0.00    -0.216 N 
ATOM     18  H   UNL     1      -2.255   3.934   1.774  0.00  0.00    +0.174 HD
BRANCH  17  19
ATOM     19  S   UNL     1      -1.994   4.055  -0.508  0.00  0.00    +0.073 S 
ATOM     20  O   UNL     1      -2.447   5.195  -1.225  0.00  0.00    -0.150 OA
ATOM     21  O   UNL     1      -2.686   2.814  -0.533  0.00  0.00    -0.150 OA
BRANCH  19  22
ATOM     22  C   UNL     1      -0.355   3.728  -1.066  0.00  0.00    +0.116 A 
ATOM     23  C   UNL     1       0.195   4.484  -2.056  0.00  0.00    +0.029 A 
ATOM     24  C   UNL     1       1.487   4.236  -2.514  0.00  0.00    +0.003 A 
ATOM     25  C   UNL     1       2.243   3.239  -1.977  0.00  0.00    +0.008 A 
ATOM     26  C   UNL     1       1.712   2.442  -0.949  0.00  0.00    -0.016 A 
ATOM     27  C   UNL     1       0.395   2.690  -0.487  0.00  0.00    +0.009 A 
ATOM     28  C   UNL     1      -0.136   1.893   0.542  0.00  0.00    +0.010 A 
ATOM     29  C   UNL     1       0.619   0.896   1.079  0.00  0.00    +0.001 A 
ATOM     30  C   UNL     1       1.914   0.653   0.625  0.00  0.00    +0.001 A 
ATOM     31  C   UNL     1       2.461   1.404  -0.369  0.00  0.00    +0.008 A 
ENDBRANCH  19  22
ENDBRANCH  17  19
ENDBRANCH   4  17
TORSDOF 4
