REMARK  Name = ZINC06720440
REMARK  5 active torsions:
REMARK  status: ('A' for Active; 'I' for Inactive)
REMARK    1  A    between atoms: C_1  and  C_2
REMARK    2  A    between atoms: C_2  and  C_3
REMARK    3  A    between atoms: C_3  and  C_4
REMARK    4  A    between atoms: C_4  and  C_5
REMARK    5  A    between atoms: C_17  and  C_19
REMARK                            x       y       z     vdW  Elec       q    Type
REMARK                         _______ _______ _______ _____ _____    ______ ____
ROOT
ATOM      1  C   UNL     1      -0.022   2.793  -2.031  0.00  0.00    +0.221 C 
ATOM      2  O   UNL     1       1.107   3.152  -1.769  0.00  0.00    -0.275 OA
ATOM      3  N   UNL     1      -0.675   1.961  -1.196  0.00  0.00    -0.257 N 
ATOM      4  C   UNL     1      -1.971   1.554  -1.508  0.00  0.00    +0.058 A 
ATOM      5  C   UNL     1      -2.230   0.754  -2.610  0.00  0.00    +0.025 A 
ATOM      6  C   UNL     1      -3.525   0.334  -2.858  0.00  0.00    +0.002 A 
ATOM      7  C   UNL     1      -4.556   0.703  -2.013  0.00  0.00    +0.002 A 
ATOM      8  C   UNL     1      -4.304   1.517  -0.921  0.00  0.00    +0.025 A 
ATOM      9  C   UNL     1      -3.013   1.956  -0.686  0.00  0.00    +0.053 A 
ATOM     10  N   UNL     1      -2.703   2.836   0.345  0.00  0.00    -0.316 N 
ATOM     11  C   UNL     1      -1.883   2.546   1.388  0.00  0.00    +0.017 C 
ATOM     12  C   UNL     1      -0.679   1.967   1.288  0.00  0.00    +0.038 C 
ATOM     13  C   UNL     1      -0.018   1.503   0.010  0.00  0.00    +0.153 C 
ATOM     14  C   UNL     1       0.107   1.746   2.446  0.00  0.00    +0.163 C 
ATOM     15  O   UNL     1       1.191   1.209   2.324  0.00  0.00    -0.292 OA
ATOM     16  C   UNL     1      -0.350   2.147   3.816  0.00  0.00    +0.080 C 
ATOM     17  C   UNL     1      -1.307   3.338   3.683  0.00  0.00    +0.014 C 
ATOM     18  C   UNL     1      -2.443   2.920   2.752  0.00  0.00    +0.051 C 
ATOM     19  H   UNL     1      -3.100   3.721   0.317  0.00  0.00    +0.152 HD
ENDROOT
BRANCH  13  20
ATOM     20  C   UNL     1       0.002  -0.004   0.002  0.00  0.00    +0.015 A 
ATOM     21  C   UNL     1       1.006  -0.846   0.348  0.00  0.00    +0.013 A 
ATOM     22  C   UNL     1       0.798  -2.210   0.261  0.00  0.00    +0.008 A 
ATOM     23  C   UNL     1      -0.405  -2.665  -0.168  0.00  0.00    +0.045 A 
ATOM     24  S   UNL     1      -1.293  -1.143  -0.459  0.00  0.00    -0.099 S 
ENDBRANCH  13  20
BRANCH   1  25
ATOM     25  C   UNL     1      -0.694   3.277  -3.290  0.00  0.00    +0.096 C 
BRANCH  25  26
ATOM     26  C   UNL     1       0.257   4.202  -4.053  0.00  0.00    +0.009 C 
BRANCH  26  28
ATOM     27  C   UNL     1       0.526   5.618  -6.093  0.00  0.00    +0.004 C 
ATOM     28  C   UNL     1      -0.425   4.693  -5.331  0.00  0.00    -0.003 C 
ENDBRANCH  26  28
ENDBRANCH  25  26
ENDBRANCH   1  25
TORSDOF 4
