REMARK  Name = ZINC12667450
REMARK  11 active torsions:
REMARK  status: ('A' for Active; 'I' for Inactive)
REMARK    1  A    between atoms: C_1  and  C_2
REMARK    2  A    between atoms: C_2  and  N_3
REMARK    3  A    between atoms: C_7  and  C_9
REMARK    4  A    between atoms: C_9  and  C_11
REMARK    5  A    between atoms: C_9  and  N_55
REMARK    6  A    between atoms: C_12  and  C_14
REMARK    7  A    between atoms: C_12  and  C_23
REMARK    8  A    between atoms: C_12  and  N_55
REMARK    9  A    between atoms: C_14  and  C_15
REMARK   10  A    between atoms: C_15  and  C_16
REMARK   11  A    between atoms: C_16  and  C_17
REMARK                            x       y       z     vdW  Elec       q    Type
REMARK                         _______ _______ _______ _____ _____    ______ ____
ROOT
ATOM      1  C   UNL     1       0.002  -0.004   0.002  0.00  0.00    -0.040 C 
ENDROOT
BRANCH   1   2
ATOM      2  C   UNL     1      -0.018   1.503   0.010  0.00  0.00    -0.061 A 
ATOM      3  C   UNL     1      -1.225   2.178   0.020  0.00  0.00    +0.002 A 
ATOM      4  C   UNL     1      -1.244   3.560   0.032  0.00  0.00    +0.000 A 
ATOM      5  C   UNL     1      -0.056   4.267   0.025  0.00  0.00    +0.000 A 
ATOM      6  C   UNL     1       1.151   3.592   0.010  0.00  0.00    +0.000 A 
ATOM      7  C   UNL     1       1.169   2.210   0.003  0.00  0.00    +0.002 A 
ENDBRANCH   1   2
BRANCH   1   8
ATOM      8  N   UNL     1      -1.070  -0.506  -0.877  0.00  0.00    +0.391 N 
ATOM      9  H   UNL     1      -1.339  -1.451  -0.579  0.00  0.00    -0.084 HD
ATOM     10  H   UNL     1      -1.883   0.118  -0.811  0.00  0.00    -0.084 HD
BRANCH   8  11
ATOM     11  C   UNL     1      -0.606  -0.552  -2.277  0.00  0.00    +0.014 C 
ATOM     12  C   UNL     1      -0.802   0.820  -2.925  0.00  0.00    -0.004 C 
BRANCH  11  17
ATOM     13  N   UNL     1      -1.633  -2.945  -6.318  0.00  0.00    -0.299 N 
ATOM     14  C   UNL     1      -1.877  -2.725  -5.011  0.00  0.00    +0.306 C 
ATOM     15  O   UNL     1      -2.744  -3.358  -4.440  0.00  0.00    -0.252 OA
ATOM     16  N   UNL     1      -1.161  -1.803  -4.337  0.00  0.00    -0.242 N 
ATOM     17  C   UNL     1      -1.406  -1.583  -3.030  0.00  0.00    +0.206 C 
ATOM     18  O   UNL     1      -2.270  -2.215  -2.461  0.00  0.00    -0.277 OA
ATOM     19  H   UNL     1      -0.941  -2.440  -6.774  0.00  0.00    +0.150 HD
ATOM     20  H   UNL     1      -0.470  -1.298  -4.793  0.00  0.00    +0.159 HD
BRANCH  13  22
ATOM     21  C   UNL     1      -1.937  -3.998  -8.504  0.00  0.00    +0.024 C 
ATOM     22  C   UNL     1      -2.411  -3.947  -7.050  0.00  0.00    +0.102 C 
ENDBRANCH  13  22
ENDBRANCH  11  17
ENDBRANCH   8  11
ENDBRANCH   1   8
BRANCH   1  23
ATOM     23  C   UNL     1      -0.228  -0.525   1.422  0.00  0.00    -0.011 C 
BRANCH  23  24
ATOM     24  C   UNL     1      -0.084  -2.048   1.436  0.00  0.00    +0.003 C 
BRANCH  24  25
ATOM     25  C   UNL     1      -0.314  -2.569   2.856  0.00  0.00    +0.035 C 
BRANCH  25  26
ATOM     26  C   UNL     1      -0.171  -4.069   2.870  0.00  0.00    -0.047 A 
ATOM     27  C   UNL     1      -1.276  -4.870   2.651  0.00  0.00    +0.003 A 
ATOM     28  C   UNL     1      -1.145  -6.247   2.659  0.00  0.00    +0.000 A 
ATOM     29  C   UNL     1       0.089  -6.822   2.896  0.00  0.00    +0.000 A 
ATOM     30  C   UNL     1       1.194  -6.021   3.120  0.00  0.00    +0.000 A 
ATOM     31  C   UNL     1       1.063  -4.644   3.107  0.00  0.00    +0.003 A 
ENDBRANCH  25  26
ENDBRANCH  24  25
ENDBRANCH  23  24
ENDBRANCH   1  23
TORSDOF 9
