REMARK  Name = ZINC06706838
REMARK  5 active torsions:
REMARK  status: ('A' for Active; 'I' for Inactive)
REMARK    1  A    between atoms: C_3  and  O_22
REMARK    2  A    between atoms: C_6  and  N_7
REMARK    3  A    between atoms: N_7  and  S_8
REMARK    4  A    between atoms: S_8  and  C_11
REMARK    5  A    between atoms: C_13  and  N_18
REMARK                            x       y       z     vdW  Elec       q    Type
REMARK                         _______ _______ _______ _____ _____    ______ ____
ROOT
ATOM      1  S   UNL     1      -5.158   1.132   0.047  0.00  0.00    +0.074 S 
ATOM      2  O   UNL     1      -6.054   1.715  -0.890  0.00  0.00    -0.150 OA
ATOM      3  O   UNL     1      -4.665  -0.193  -0.094  0.00  0.00    -0.150 OA
ENDROOT
BRANCH   1   4
ATOM      4  C   UNL     1      -3.750   2.188   0.121  0.00  0.00    +0.129 A 
ATOM      5  C   UNL     1      -2.479   1.655   0.013  0.00  0.00    +0.063 A 
ATOM      6  C   UNL     1      -1.374   2.484   0.071  0.00  0.00    +0.128 A 
ATOM      7  C   UNL     1      -1.539   3.846   0.243  0.00  0.00    +0.034 A 
ATOM      8  C   UNL     1      -2.809   4.381   0.346  0.00  0.00    +0.024 A 
ATOM      9  C   UNL     1      -3.916   3.552   0.288  0.00  0.00    +0.068 A 
ATOM     10 CL   UNL     1      -5.511   4.222   0.423  0.00  0.00    -0.082 Cl
BRANCH   6  11
ATOM     11  N   UNL     1      -0.014   1.912  -0.045  0.00  0.00    +0.056 N 
ATOM     12  O   UNL     1       0.132   0.712  -0.191  0.00  0.00    -0.126 OA
ATOM     13  O   UNL     1       0.960   2.642   0.001  0.00  0.00    -0.126 OA
ENDBRANCH   6  11
ENDBRANCH   1   4
BRANCH   1  14
ATOM     14  N   UNL     1      -5.904   1.206   1.523  0.00  0.00    -0.216 N 
ATOM     15  H   UNL     1      -6.814   1.536   1.591  0.00  0.00    +0.174 HD
BRANCH  14  21
ATOM     16  C   UNL     1      -4.516  -0.404   2.668  0.00  0.00    +0.028 A 
ATOM     17  C   UNL     1      -3.840  -0.811   3.802  0.00  0.00    +0.048 A 
ATOM     18  C   UNL     1      -3.875  -0.031   4.948  0.00  0.00    +0.131 A 
ATOM     19  C   UNL     1      -4.585   1.161   4.956  0.00  0.00    +0.061 A 
ATOM     20  C   UNL     1      -5.258   1.572   3.821  0.00  0.00    +0.043 A 
ATOM     21  C   UNL     1      -5.223   0.791   2.673  0.00  0.00    +0.049 A 
ATOM     22 BR   UNL     1      -4.633   2.224   6.519  0.00  0.00    -0.046 Br
BRANCH  18  23
ATOM     23  O   UNL     1      -3.213  -0.435   6.066  0.00  0.00    -0.506 OA
ATOM     24  H   UNL     1      -3.743  -0.984   6.660  0.00  0.00    +0.292 HD
ENDBRANCH  18  23
ENDBRANCH  14  21
ENDBRANCH   1  14
TORSDOF 5
