REMARK  Name = ZINC13064384
REMARK  9 active torsions:
REMARK  status: ('A' for Active; 'I' for Inactive)
REMARK    1  A    between atoms: C_1  and  C_2
REMARK    2  A    between atoms: C_2  and  C_3
REMARK    3  A    between atoms: C_3  and  C_5
REMARK    4  A    between atoms: C_3  and  N_69
REMARK    5  A    between atoms: N_9  and  C_10
REMARK    6  A    between atoms: C_15  and  C_16
REMARK    7  A    between atoms: C_15  and  N_69
REMARK    8  A    between atoms: C_22  and  C_23
REMARK    9  A    between atoms: C_22  and  N_69
REMARK                            x       y       z     vdW  Elec       q    Type
REMARK                         _______ _______ _______ _____ _____    ______ ____
ROOT
ATOM      1  N   UNL     1       4.044  -0.777  -1.310  0.00  0.00    +0.392 N 
ATOM      2  H   UNL     1       4.081   0.034  -1.939  0.00  0.00    -0.080 HD
ENDROOT
BRANCH   1   3
ATOM      3  C   UNL     1       5.323  -1.512  -1.398  0.00  0.00    +0.003 C 
BRANCH   3   4
ATOM      4  C   UNL     1       6.408  -0.697  -0.743  0.00  0.00    +0.138 A 
ATOM      5  N   UNL     1       6.612   0.590  -0.883  0.00  0.00    -0.115 NA
ATOM      6  N   UNL     1       7.630   0.913  -0.161  0.00  0.00    -0.023 NA
ATOM      7  N   UNL     1       8.085  -0.137   0.429  0.00  0.00    -0.044 NA
ATOM      8  N   UNL     1       7.358  -1.150   0.096  0.00  0.00    -0.228 N 
BRANCH   8   9
ATOM      9  C   UNL     1       7.534  -2.533   0.546  0.00  0.00    +0.111 C 
ATOM     10  C   UNL     1       7.465  -2.600   2.086  0.00  0.00    +0.027 C 
ATOM     11  C   UNL     1       8.518  -3.672   2.466  0.00  0.00    +0.002 C 
ATOM     12  C   UNL     1       9.660  -3.404   1.455  0.00  0.00    +0.002 C 
ATOM     13  C   UNL     1       8.928  -3.044   0.145  0.00  0.00    +0.027 C 
ENDBRANCH   8   9
ENDBRANCH   3   4
BRANCH   3  15
ATOM     14  C   UNL     1       6.954  -2.547  -2.983  0.00  0.00    +0.002 C 
ATOM     15  C   UNL     1       5.668  -1.726  -2.873  0.00  0.00    -0.011 C 
ENDBRANCH   3  15
ENDBRANCH   1   3
BRANCH   1  16
ATOM     16  C   UNL     1       3.828  -0.303   0.073  0.00  0.00    -0.042 C 
BRANCH  16  17
ATOM     17  C   UNL     1       2.797   0.796   0.051  0.00  0.00    -0.064 A 
ATOM     18  C   UNL     1       1.452   0.483   0.083  0.00  0.00    +0.002 A 
ATOM     19  C   UNL     1       0.506   1.491   0.063  0.00  0.00    +0.000 A 
ATOM     20  C   UNL     1       0.907   2.813   0.011  0.00  0.00    +0.000 A 
ATOM     21  C   UNL     1       2.253   3.127  -0.021  0.00  0.00    +0.000 A 
ATOM     22  C   UNL     1       3.198   2.118  -0.001  0.00  0.00    +0.002 A 
ENDBRANCH  16  17
ENDBRANCH   1  16
BRANCH   1  23
ATOM     23  C   UNL     1       2.928  -1.654  -1.724  0.00  0.00    -0.036 C 
BRANCH  23  24
ATOM     24  C   UNL     1       2.861  -2.875  -0.843  0.00  0.00    +0.001 A 
ATOM     25  C   UNL     1       2.055  -2.878   0.249  0.00  0.00    +0.017 A 
ATOM     26  C   UNL     1       2.012  -4.078   1.083  0.00  0.00    +0.002 A 
ATOM     27  C   UNL     1       1.199  -4.138   2.222  0.00  0.00    +0.059 A 
ATOM     28  C   UNL     1       1.182  -5.282   2.991  0.00  0.00    +0.163 A 
ATOM     29  C   UNL     1       1.970  -6.381   2.637  0.00  0.00    +0.164 A 
ATOM     30  C   UNL     1       2.775  -6.331   1.512  0.00  0.00    +0.075 A 
ATOM     31  C   UNL     1       2.806  -5.186   0.727  0.00  0.00    +0.053 A 
ATOM     32  N   UNL     1       3.604  -5.118  -0.397  0.00  0.00    -0.322 N 
ATOM     33  H   UNL     1       4.150  -5.882  -0.642  0.00  0.00    +0.169 HD
ATOM     34  C   UNL     1       3.632  -4.012  -1.160  0.00  0.00    +0.251 A 
ATOM     35  O   UNL     1       4.346  -3.990  -2.148  0.00  0.00    -0.268 OA
ATOM     36  O   UNL     1       1.956  -7.515   3.388  0.00  0.00    -0.485 OA
ATOM     37  C   UNL     1       1.428  -7.403   4.714  0.00  0.00    +0.270 C 
ATOM     38  C   UNL     1       0.111  -6.618   4.643  0.00  0.00    +0.270 C 
ATOM     39  O   UNL     1       0.390  -5.323   4.099  0.00  0.00    -0.485 OA
ENDBRANCH  23  24
ENDBRANCH   1  23
TORSDOF 8
