REMARK  Name = ZINC15957177
REMARK  9 active torsions:
REMARK  status: ('A' for Active; 'I' for Inactive)
REMARK    1  A    between atoms: C_1  and  C_2
REMARK    2  A    between atoms: C_2  and  C_3
REMARK    3  A    between atoms: C_2  and  C_4
REMARK    4  A    between atoms: C_4  and  C_6
REMARK    5  A    between atoms: C_4  and  N_21
REMARK    6  A    between atoms: N_8  and  C_9
REMARK    7  A    between atoms: C_14  and  C_15
REMARK    8  A    between atoms: C_14  and  N_76
REMARK    9  A    between atoms: C_24  and  C_40
REMARK                            x       y       z     vdW  Elec       q    Type
REMARK                         _______ _______ _______ _____ _____    ______ ____
ROOT
ATOM      1  C   UNL     1      -0.004   1.527  -0.055  0.00  0.00    +0.174 C 
ENDROOT
BRANCH   1   2
ATOM      2  N   UNL     1      -0.089   0.078   0.147  0.00  0.00    -0.211 N 
ATOM      3  C   UNL     1       0.981  -0.729   0.320  0.00  0.00    +0.253 C 
ATOM      4  O   UNL     1       2.145  -0.397   0.398  0.00  0.00    -0.272 OA
ATOM      5  C   UNL     1       0.423  -2.130   0.393  0.00  0.00    +0.153 C 
ATOM      6  C   UNL     1       0.814  -2.817   1.680  0.00  0.00    +0.053 A 
ATOM      7  C   UNL     1      -0.111  -3.331   2.538  0.00  0.00    -0.015 A 
ATOM      8  C   UNL     1       0.637  -3.910   3.641  0.00  0.00    +0.003 A 
ATOM      9  C   UNL     1       0.238  -4.587   4.798  0.00  0.00    +0.010 A 
ATOM     10  C   UNL     1       1.234  -5.005   5.646  0.00  0.00    +0.001 A 
ATOM     11  C   UNL     1       2.573  -4.772   5.379  0.00  0.00    +0.002 A 
ATOM     12  C   UNL     1       2.995  -4.106   4.241  0.00  0.00    +0.026 A 
ATOM     13  C   UNL     1       2.006  -3.671   3.362  0.00  0.00    +0.047 A 
ATOM     14  N   UNL     1       2.066  -3.002   2.174  0.00  0.00    -0.356 N 
ATOM     15  H   UNL     1       2.882  -2.705   1.741  0.00  0.00    +0.166 HD
ATOM     16  C   UNL     1      -1.608  -3.307   2.369  0.00  0.00    +0.056 C 
ATOM     17  C   UNL     1      -1.976  -2.929   0.926  0.00  0.00    +0.115 C 
ATOM     18  N   UNL     1      -1.038  -1.895   0.484  0.00  0.00    -0.266 N 
ATOM     19  C   UNL     1      -1.240  -0.612   0.189  0.00  0.00    +0.313 C 
ATOM     20  O   UNL     1      -2.334  -0.125  -0.021  0.00  0.00    -0.252 OA
ATOM     21  C   UNL     1       0.799  -2.961  -0.835  0.00  0.00    +0.048 C 
ENDBRANCH   1   2
BRANCH   1  22
ATOM     22  C   UNL     1      -0.748   2.232   1.049  0.00  0.00    +0.235 C 
ATOM     23  O   UNL     1      -1.657   1.671   1.623  0.00  0.00    -0.274 OA
ATOM     24  N   UNL     1      -0.404   3.488   1.398  0.00  0.00    -0.311 N 
ATOM     25  H   UNL     1       0.275   3.963   0.893  0.00  0.00    +0.149 HD
BRANCH  24  26
ATOM     26  C   UNL     1      -1.056   4.136   2.539  0.00  0.00    +0.069 C 
ATOM     27  C   UNL     1      -2.364   4.786   2.080  0.00  0.00    +0.003 C 
ATOM     28  C   UNL     1      -3.009   5.513   3.262  0.00  0.00    -0.077 C 
ATOM     29  C   UNL     1      -0.842   5.928   4.264  0.00  0.00    -0.077 C 
ATOM     30  C   UNL     1      -0.132   5.214   3.112  0.00  0.00    +0.003 C 
ATOM     31  N   UNL     1      -2.080   6.553   3.752  0.00  0.00    +0.382 N 
ATOM     32  H   UNL     1      -1.839   7.178   2.973  0.00  0.00    -0.081 HD
BRANCH  31  33
ATOM     33  C   UNL     1      -2.725   7.344   4.819  0.00  0.00    -0.043 C 
BRANCH  33  34
ATOM     34  C   UNL     1      -4.106   7.746   4.370  0.00  0.00    -0.064 A 
ATOM     35  C   UNL     1      -4.291   8.926   3.674  0.00  0.00    +0.002 A 
ATOM     36  C   UNL     1      -5.557   9.292   3.258  0.00  0.00    +0.000 A 
ATOM     37  C   UNL     1      -6.640   8.483   3.546  0.00  0.00    +0.000 A 
ATOM     38  C   UNL     1      -6.457   7.306   4.247  0.00  0.00    +0.000 A 
ATOM     39  C   UNL     1      -5.190   6.937   4.659  0.00  0.00    +0.002 A 
ENDBRANCH  33  34
ENDBRANCH  31  33
ENDBRANCH  24  26
ENDBRANCH   1  22
BRANCH   1  41
ATOM     40  C   UNL     1      -0.452   3.389  -1.659  0.00  0.00    +0.009 C 
ATOM     41  C   UNL     1      -0.626   1.891  -1.405  0.00  0.00    +0.013 C 
ATOM     42  C   UNL     1       0.067   1.101  -2.516  0.00  0.00    +0.009 C 
ENDBRANCH   1  41
TORSDOF 6
