REMARK  Name = ZINC36313794
REMARK  20 active torsions:
REMARK  status: ('A' for Active; 'I' for Inactive)
REMARK    1  A    between atoms: C_1  and  C_2
REMARK    2  A    between atoms: C_2  and  C_3
REMARK    3  A    between atoms: C_3  and  C_4
REMARK    4  A    between atoms: C_4  and  O_5
REMARK    5  A    between atoms: O_5  and  C_6
REMARK    6  A    between atoms: C_6  and  C_7
REMARK    7  A    between atoms: C_7  and  C_9
REMARK    8  A    between atoms: C_7  and  O_36
REMARK    9  A    between atoms: C_9  and  N_10
REMARK   10  A    between atoms: N_10  and  C_11
REMARK   11  A    between atoms: N_10  and  C_14
REMARK   12  A    between atoms: C_11  and  C_12
REMARK   13  A    between atoms: C_12  and  C_13
REMARK   14  A    between atoms: C_14  and  C_15
REMARK   15  A    between atoms: C_16  and  C_30
REMARK   16  A    between atoms: N_18  and  C_29
REMARK   17  A    between atoms: C_19  and  O_20
REMARK   18  A    between atoms: O_20  and  C_21
REMARK   19  A    between atoms: C_26  and  O_27
REMARK   20  A    between atoms: O_27  and  C_28
REMARK                            x       y       z     vdW  Elec       q    Type
REMARK                         _______ _______ _______ _____ _____    ______ ____
ROOT
ATOM      1  C   UNL     1       3.766  -8.014  -6.800  0.00  0.00    +0.025 A 
ATOM      2  C   UNL     1       3.022  -8.265  -7.968  0.00  0.00    +0.098 A 
ATOM      3  N   UNL     1       3.827  -8.805  -8.858  0.00  0.00    -0.168 NA
ATOM      4  N   UNL     1       5.102  -8.915  -8.289  0.00  0.00    -0.235 N 
ATOM      5  C   UNL     1       5.043  -8.419  -7.026  0.00  0.00    +0.221 A 
ATOM      6  C   UNL     1       6.292  -9.466  -8.942  0.00  0.00    +0.176 C 
ENDROOT
BRANCH   2   7
ATOM      7  C   UNL     1       1.580  -7.971  -8.162  0.00  0.00    +0.002 A 
ATOM      8  C   UNL     1       1.139  -7.392  -9.350  0.00  0.00    +0.010 A 
ATOM      9  C   UNL     1      -0.204  -7.121  -9.525  0.00  0.00    +0.001 A 
ATOM     10  C   UNL     1      -1.109  -7.424  -8.525  0.00  0.00    +0.000 A 
ATOM     11  C   UNL     1      -0.676  -7.999  -7.344  0.00  0.00    +0.001 A 
ATOM     12  C   UNL     1       0.663  -8.280  -7.160  0.00  0.00    +0.010 A 
ENDBRANCH   2   7
BRANCH   5  13
ATOM     13  O   UNL     1       6.074  -8.342  -6.147  0.00  0.00    -0.434 OA
BRANCH  13  14
ATOM     14  C   UNL     1       6.313  -9.417  -5.349  0.00  0.00    +0.172 A 
ATOM     15  C   UNL     1       5.584 -10.584  -5.518  0.00  0.00    +0.050 A 
ATOM     16  C   UNL     1       5.830 -11.675  -4.707  0.00  0.00    +0.004 A 
ATOM     17  C   UNL     1       6.801 -11.607  -3.725  0.00  0.00    +0.004 A 
ATOM     18  C   UNL     1       7.531 -10.446  -3.551  0.00  0.00    +0.049 A 
ATOM     19  C   UNL     1       7.295  -9.350  -4.365  0.00  0.00    +0.162 A 
BRANCH  19  20
ATOM     20  O   UNL     1       8.017  -8.210  -4.199  0.00  0.00    -0.491 OA
ATOM     21  C   UNL     1       9.007  -8.213  -3.169  0.00  0.00    +0.277 C 
ENDBRANCH  19  20
ENDBRANCH  13  14
ENDBRANCH   5  13
BRANCH   1  22
ATOM     22  C   UNL     1       3.241  -7.401  -5.527  0.00  0.00    -0.035 C 
BRANCH  22  23
ATOM     23  N   UNL     1       3.538  -5.962  -5.519  0.00  0.00    +0.384 N 
ATOM     24  H   UNL     1       4.534  -5.824  -5.609  0.00  0.00    -0.081 HD
BRANCH  23  25
ATOM     25  C   UNL     1       2.850  -5.313  -6.642  0.00  0.00    -0.079 C 
BRANCH  25  26
ATOM     26  C   UNL     1       3.276  -3.846  -6.723  0.00  0.00    -0.022 C 
ATOM     27  C   UNL     1       2.507  -3.153  -7.849  0.00  0.00    +0.002 C 
ENDBRANCH  25  26
ENDBRANCH  23  25
BRANCH  23  28
ATOM     28  C   UNL     1       3.075  -5.374  -4.255  0.00  0.00    -0.044 C 
BRANCH  28  29
ATOM     29  C   UNL     1       3.925  -5.910  -3.101  0.00  0.00    +0.124 C 
BRANCH  29  30
ATOM     30  O   UNL     1       3.655  -7.301  -2.916  0.00  0.00    -0.391 OA
ATOM     31  H   UNL     1       2.732  -7.498  -2.706  0.00  0.00    +0.210 HD
ENDBRANCH  29  30
BRANCH  29  32
ATOM     32  C   UNL     1       3.583  -5.149  -1.819  0.00  0.00    +0.189 C 
BRANCH  32  33
ATOM     33  O   UNL     1       4.457  -5.568  -0.768  0.00  0.00    -0.377 OA
BRANCH  33  34
ATOM     34  C   UNL     1       4.220  -4.914   0.480  0.00  0.00    +0.160 C 
BRANCH  34  35
ATOM     35  C   UNL     1       5.207  -5.437   1.525  0.00  0.00    +0.028 C 
BRANCH  35  37
ATOM     36  C   UNL     1       5.941  -5.260   3.907  0.00  0.00    +0.004 C 
ATOM     37  C   UNL     1       4.954  -4.737   2.862  0.00  0.00    -0.001 C 
ENDBRANCH  35  37
ENDBRANCH  34  35
ENDBRANCH  33  34
ENDBRANCH  32  33
ENDBRANCH  29  32
ENDBRANCH  28  29
ENDBRANCH  23  28
ENDBRANCH  22  23
ENDBRANCH   1  22
TORSDOF 16
