REMARK  Name = ZINC41115720
REMARK  2 active torsions:
REMARK  status: ('A' for Active; 'I' for Inactive)
REMARK    1  A    between atoms: C_5  and  C_6
REMARK    2  A    between atoms: C_11  and  N_12
REMARK                            x       y       z     vdW  Elec       q    Type
REMARK                         _______ _______ _______ _____ _____    ______ ____
ROOT
ATOM      1  C   UNL     1      -1.133  -0.951   0.008  0.00  0.00    +0.013 A 
ATOM      2  C   UNL     1      -2.162  -0.804   0.941  0.00  0.00    +0.060 A 
ATOM      3  C   UNL     1      -3.219  -1.693   0.940  0.00  0.00    +0.163 A 
ATOM      4  C   UNL     1      -3.262  -2.730   0.016  0.00  0.00    +0.164 A 
ATOM      5  C   UNL     1      -2.246  -2.884  -0.913  0.00  0.00    +0.072 A 
ATOM      6  C   UNL     1      -1.182  -1.994  -0.926  0.00  0.00    +0.037 A 
ATOM      7  O   UNL     1      -4.315  -3.599   0.029  0.00  0.00    -0.488 OA
ATOM      8  C   UNL     1      -4.398  -4.465   1.163  0.00  0.00    +0.232 C 
ATOM      9  C   UNL     1      -5.103  -3.773   2.319  0.00  0.00    +0.082 C 
ATOM     10  C   UNL     1      -4.320  -2.579   2.842  0.00  0.00    +0.232 C 
ATOM     11  O   UNL     1      -4.230  -1.557   1.848  0.00  0.00    -0.488 OA
ENDROOT
BRANCH   1  16
ATOM     12  C   UNL     1      -0.017   1.365   0.009  0.00  0.00    +0.017 A 
ATOM     13  C   UNL     1       1.184   2.044   0.002  0.00  0.00    +0.023 A 
ATOM     14  C   UNL     1       2.343   1.337  -0.013  0.00  0.00    +0.055 A 
ATOM     15  S   UNL     1       1.754  -0.348  -0.017  0.00  0.00    -0.081 S 
ATOM     16  C   UNL     1       0.002  -0.004   0.002  0.00  0.00    +0.022 A 
ATOM     17 BR   UNL     1       4.123   1.974  -0.028  0.00  0.00    -0.043 Br
ENDBRANCH   1  16
BRANCH   6  18
ATOM     18  N   UNL     1      -0.158  -2.141  -1.865  0.00  0.00    -0.357 N 
ATOM     19  H   UNL     1       0.588  -1.521  -1.871  0.00  0.00    +0.142 HD
ATOM     20  H   UNL     1      -0.193  -2.864  -2.511  0.00  0.00    +0.142 HD
ENDBRANCH   6  18
TORSDOF 2
