REMARK  Name = ZINC44270212
REMARK  11 active torsions:
REMARK  status: ('A' for Active; 'I' for Inactive)
REMARK    1  A    between atoms: C_1  and  C_2
REMARK    2  A    between atoms: C_2  and  C_3
REMARK    3  A    between atoms: C_6  and  C_9
REMARK    4  A    between atoms: C_9  and  C_11
REMARK    5  A    between atoms: C_9  and  N_28
REMARK    6  A    between atoms: C_11  and  N_12
REMARK    7  A    between atoms: N_15  and  C_16
REMARK    8  A    between atoms: C_21  and  C_22
REMARK    9  A    between atoms: C_22  and  N_23
REMARK   10  A    between atoms: N_28  and  C_29
REMARK   11  A    between atoms: N_28  and  C_30
REMARK                            x       y       z     vdW  Elec       q    Type
REMARK                         _______ _______ _______ _____ _____    ______ ____
ROOT
ATOM      1  N   UNL     1       3.381  -3.767   6.156  0.00  0.00    -0.300 N 
ATOM      2  C   UNL     1       3.503  -5.079   6.441  0.00  0.00    +0.304 C 
ATOM      3  O   UNL     1       3.025  -5.910   5.694  0.00  0.00    -0.253 OA
ATOM      4  N   UNL     1       4.155  -5.469   7.554  0.00  0.00    -0.269 N 
ATOM      5  H   UNL     1       3.762  -3.104   6.752  0.00  0.00    +0.150 HD
ATOM      6  H   UNL     1       4.610  -4.812   8.105  0.00  0.00    +0.156 HD
ENDROOT
BRANCH   4   7
ATOM      7  C   UNL     1       4.175  -6.820   7.916  0.00  0.00    +0.040 A 
ATOM      8  C   UNL     1       3.165  -7.671   7.486  0.00  0.00    +0.024 A 
ATOM      9  C   UNL     1       3.188  -9.005   7.844  0.00  0.00    +0.002 A 
ATOM     10  C   UNL     1       4.215  -9.493   8.631  0.00  0.00    +0.000 A 
ATOM     11  C   UNL     1       5.222  -8.649   9.061  0.00  0.00    +0.007 A 
ATOM     12  C   UNL     1       5.208  -7.315   8.701  0.00  0.00    -0.005 A 
BRANCH  12  13
ATOM     13  C   UNL     1       6.309  -6.397   9.165  0.00  0.00    +0.180 C 
BRANCH  13  14
ATOM     14  N   UNL     1       5.891  -5.715  10.393  0.00  0.00    -0.267 N 
ATOM     15  C   UNL     1       6.563  -5.703  11.563  0.00  0.00    +0.108 A 
ATOM     16  C   UNL     1       5.847  -4.966  12.443  0.00  0.00    +0.041 A 
ATOM     17  C   UNL     1       4.697  -4.512  11.788  0.00  0.00    +0.134 A 
ATOM     18  N   UNL     1       4.726  -4.955  10.558  0.00  0.00    -0.179 NA
ENDBRANCH  13  14
ENDBRANCH  12  13
ENDBRANCH   4   7
BRANCH   1  19
ATOM     19  C   UNL     1       2.672  -3.343   4.946  0.00  0.00    +0.095 C 
BRANCH  19  20
ATOM     20  C   UNL     1       2.785  -1.825   4.794  0.00  0.00    -0.021 C 
BRANCH  20  24
ATOM     21  C   UNL     1       6.899  -0.735   4.430  0.00  0.00    -0.048 A 
ATOM     22  C   UNL     1       6.253  -0.598   5.644  0.00  0.00    +0.004 A 
ATOM     23  C   UNL     1       4.922  -0.951   5.762  0.00  0.00    +0.002 A 
ATOM     24  C   UNL     1       4.236  -1.439   4.666  0.00  0.00    -0.059 A 
ATOM     25  C   UNL     1       4.882  -1.575   3.451  0.00  0.00    +0.002 A 
ATOM     26  C   UNL     1       6.212  -1.218   3.332  0.00  0.00    +0.004 A 
BRANCH  21  28
ATOM     27  C   UNL     1       8.454   1.125   3.908  0.00  0.00    +0.009 C 
ATOM     28  C   UNL     1       8.351  -0.350   4.301  0.00  0.00    +0.032 C 
ENDBRANCH  21  28
ENDBRANCH  20  24
BRANCH  20  29
ATOM     29  N   UNL     1       2.056  -1.397   3.593  0.00  0.00    +0.382 N 
ATOM     30  C   UNL     1       0.623  -1.670   3.766  0.00  0.00    -0.096 C 
ATOM     31  C   UNL     1       2.259   0.043   3.384  0.00  0.00    -0.096 C 
ATOM     32  H   UNL     1       2.401  -1.905   2.792  0.00  0.00    -0.082 HD
ENDBRANCH  20  29
ENDBRANCH  19  20
ENDBRANCH   1  19
TORSDOF 8
