REMARK  Name = ZINC20211200
REMARK  4 active torsions:
REMARK  status: ('A' for Active; 'I' for Inactive)
REMARK    1  A    between atoms: C_4  and  C_7
REMARK    2  A    between atoms: C_7  and  C_8
REMARK    3  A    between atoms: C_14  and  C_15
REMARK    4  A    between atoms: N_19  and  C_20
REMARK                            x       y       z     vdW  Elec       q    Type
REMARK                         _______ _______ _______ _____ _____    ______ ____
ROOT
ATOM      1  C   UNL     1       1.565  -3.198   2.975  0.00  0.00    +0.104 C 
ATOM      2  N   UNL     1       1.504  -2.358   3.969  0.00  0.00    -0.169 NA
ATOM      3  N   UNL     1       2.556  -2.214   4.849  0.00  0.00    -0.152 N 
ATOM      4  C   UNL     1       2.561  -1.403   6.004  0.00  0.00    +0.153 C 
ATOM      5  N   UNL     1       1.471  -1.019   6.617  0.00  0.00    -0.283 NA
ATOM      6  C   UNL     1       3.928  -1.028   6.456  0.00  0.00    +0.082 C 
ATOM      7  C   UNL     1       4.187   0.192   7.059  0.00  0.00    +0.042 C 
ATOM      8  C   UNL     1       4.996  -2.028   6.227  0.00  0.00    +0.273 C 
ATOM      9  O   UNL     1       5.998  -2.046   6.924  0.00  0.00    -0.268 OA
ATOM     10  N   UNL     1       4.830  -2.918   5.228  0.00  0.00    -0.152 NA
ATOM     11  C   UNL     1       3.690  -2.953   4.586  0.00  0.00    +0.181 C 
ATOM     12  S   UNL     1       3.190  -3.912   3.181  0.00  0.00    -0.038 S 
ATOM     13  H   UNL     1       0.607  -1.351   6.324  0.00  0.00    +0.188 HD
ENDROOT
BRANCH   7  14
ATOM     14  C   UNL     1       3.179   1.171   7.128  0.00  0.00    +0.047 A 
ATOM     15  C   UNL     1       2.505   1.578   8.272  0.00  0.00    +0.027 A 
ATOM     16  C   UNL     1       1.596   2.563   7.883  0.00  0.00    +0.020 A 
ATOM     17  C   UNL     1       1.720   2.744   6.544  0.00  0.00    +0.092 A 
ATOM     18  N   UNL     1       2.682   1.910   6.072  0.00  0.00    -0.316 N 
BRANCH  18  19
ATOM     19  C   UNL     1       3.098   1.812   4.738  0.00  0.00    +0.047 A 
ATOM     20  C   UNL     1       4.439   1.973   4.414  0.00  0.00    +0.027 A 
ATOM     21  C   UNL     1       4.846   1.876   3.098  0.00  0.00    +0.017 A 
ATOM     22  C   UNL     1       3.920   1.618   2.103  0.00  0.00    +0.018 A 
ATOM     23  C   UNL     1       2.584   1.457   2.423  0.00  0.00    +0.017 A 
ATOM     24  C   UNL     1       2.172   1.548   3.738  0.00  0.00    +0.027 A 
ATOM     25 BR   UNL     1       4.482   1.486   0.302  0.00  0.00    -0.050 Br
ENDBRANCH  18  19
ENDBRANCH   7  14
BRANCH   1  26
ATOM     26  C   UNL     1       0.526  -3.496   1.925  0.00  0.00    +0.099 C 
BRANCH  26  30
ATOM     27  C   UNL     1      -3.078  -1.396   2.845  0.00  0.00    +0.000 A 
ATOM     28  C   UNL     1      -2.151  -0.835   1.987  0.00  0.00    +0.000 A 
ATOM     29  C   UNL     1      -0.984  -1.514   1.689  0.00  0.00    +0.004 A 
ATOM     30  C   UNL     1      -0.745  -2.755   2.250  0.00  0.00    -0.041 A 
ATOM     31  C   UNL     1      -1.672  -3.316   3.109  0.00  0.00    +0.004 A 
ATOM     32  C   UNL     1      -2.839  -2.637   3.405  0.00  0.00    +0.000 A 
ENDBRANCH  26  30
ENDBRANCH   1  26
TORSDOF 4
