REMARK  Name = ZINC14742373
REMARK  8 active torsions:
REMARK  status: ('A' for Active; 'I' for Inactive)
REMARK    1  A    between atoms: C_4  and  C_7
REMARK    2  A    between atoms: C_7  and  C_8
REMARK    3  A    between atoms: C_8  and  C_9
REMARK    4  A    between atoms: C_9  and  N_71
REMARK    5  A    between atoms: C_14  and  C_25
REMARK    6  A    between atoms: N_16  and  C_17
REMARK    7  A    between atoms: C_17  and  C_18
REMARK    8  A    between atoms: C_18  and  C_19
REMARK                            x       y       z     vdW  Elec       q    Type
REMARK                         _______ _______ _______ _____ _____    ______ ____
ROOT
ATOM      1  C   UNL     1      -1.196  -2.161   3.524  0.00  0.00    -0.072 C 
ATOM      2  C   UNL     1      -1.324  -3.006   4.800  0.00  0.00    +0.037 C 
ATOM      3  C   UNL     1      -0.020  -2.909   5.550  0.00  0.00    +0.040 A 
ATOM      4  C   UNL     1       1.126  -2.454   4.982  0.00  0.00    -0.011 A 
ATOM      5  C   UNL     1       2.102  -2.509   5.988  0.00  0.00    +0.149 A 
ATOM      6  N   UNL     1       1.506  -2.983   7.069  0.00  0.00    -0.166 NA
ATOM      7  N   UNL     1       0.263  -3.222   6.822  0.00  0.00    -0.267 N 
ATOM      8  C   UNL     1       1.232  -2.005   3.551  0.00  0.00    -0.039 C 
ATOM      9  N   UNL     1       0.052  -2.535   2.821  0.00  0.00    +0.383 N 
ATOM     10  H   UNL     1       0.118  -3.559   2.783  0.00  0.00    -0.081 HD
ENDROOT
BRANCH   5  11
ATOM     11  C   UNL     1       3.521  -2.115   5.864  0.00  0.00    +0.267 C 
ATOM     12  O   UNL     1       3.968  -1.789   4.782  0.00  0.00    -0.268 OA
ATOM     13  N   UNL     1       4.318  -2.118   6.950  0.00  0.00    -0.294 N 
ATOM     14  C   UNL     1       3.788  -2.636   8.210  0.00  0.00    +0.117 C 
ATOM     15  C   UNL     1       4.581  -3.880   8.627  0.00  0.00    +0.114 C 
ATOM     16  C   UNL     1       5.874  -3.434   9.272  0.00  0.00    +0.215 C 
ATOM     17  O   UNL     1       6.028  -3.567  10.467  0.00  0.00    -0.276 OA
ATOM     18  N   UNL     1       6.848  -2.894   8.533  0.00  0.00    -0.314 N 
ATOM     19  C   UNL     1       6.684  -2.730   7.082  0.00  0.00    +0.123 C 
ATOM     20  C   UNL     1       5.681  -1.609   6.822  0.00  0.00    +0.127 C 
ATOM     21  H   UNL     1       7.671  -2.608   8.959  0.00  0.00    +0.149 HD
ENDBRANCH   5  11
BRANCH   9  22
ATOM     22  C   UNL     1       0.032  -2.004   1.443  0.00  0.00    -0.078 C 
BRANCH  22  23
ATOM     23  C   UNL     1       0.029  -0.474   1.454  0.00  0.00    -0.014 C 
BRANCH  23  24
ATOM     24  C   UNL     1       0.011   0.046   0.015  0.00  0.00    +0.033 C 
BRANCH  24  28
ATOM     25  C   UNL     1       0.002   4.318   0.046  0.00  0.00    +0.000 A 
ATOM     26  C   UNL     1       1.201   3.629   0.026  0.00  0.00    +0.000 A 
ATOM     27  C   UNL     1       1.204   2.247   0.017  0.00  0.00    +0.003 A 
ATOM     28  C   UNL     1       0.008   1.553   0.026  0.00  0.00    -0.047 A 
ATOM     29  C   UNL     1      -1.191   2.242   0.040  0.00  0.00    +0.003 A 
ATOM     30  C   UNL     1      -1.193   3.624   0.055  0.00  0.00    +0.000 A 
ENDBRANCH  24  28
ENDBRANCH  23  24
ENDBRANCH  22  23
ENDBRANCH   9  22
BRANCH   7  31
ATOM     31  C   UNL     1      -0.699  -3.755   7.791  0.00  0.00    +0.148 C 
BRANCH  31  32
ATOM     32  C   UNL     1      -0.696  -5.284   7.723  0.00  0.00    +0.058 C 
BRANCH  32  33
ATOM     33  C   UNL     1      -1.685  -5.832   8.719  0.00  0.00    -0.046 A 
ATOM     34  C   UNL     1      -1.279  -6.125  10.007  0.00  0.00    +0.004 A 
ATOM     35  C   UNL     1      -2.187  -6.623  10.922  0.00  0.00    +0.000 A 
ATOM     36  C   UNL     1      -3.500  -6.839  10.546  0.00  0.00    +0.000 A 
ATOM     37  C   UNL     1      -3.905  -6.552   9.256  0.00  0.00    +0.000 A 
ATOM     38  C   UNL     1      -2.998  -6.048   8.342  0.00  0.00    +0.004 A 
ENDBRANCH  32  33
ENDBRANCH  31  32
ENDBRANCH   7  31
TORSDOF 8
