REMARK  Name = ZINC20725091
REMARK  2 active torsions:
REMARK  status: ('A' for Active; 'I' for Inactive)
REMARK    1  A    between atoms: C_6  and  N_7
REMARK    2  A    between atoms: C_8  and  C_13
REMARK                            x       y       z     vdW  Elec       q    Type
REMARK                         _______ _______ _______ _____ _____    ______ ____
ROOT
ATOM      1  N   UNL     1      -0.017   1.364   0.009  0.00  0.00    -0.271 N 
ATOM      2  C   UNL     1       1.297   1.751  -0.001  0.00  0.00    +0.168 A 
ATOM      3  N   UNL     1       2.021   0.667  -0.014  0.00  0.00    -0.130 NA
ATOM      4  N   UNL     1       1.263  -0.371  -0.012  0.00  0.00    -0.121 NA
ATOM      5  C   UNL     1       0.002  -0.004   0.002  0.00  0.00    +0.207 A 
ATOM      6  S   UNL     1      -1.400  -1.071   0.010  0.00  0.00    -0.009 SA
ENDROOT
BRANCH   1  12
ATOM      7  C   UNL     1      -2.001   2.194   1.113  0.00  0.00    +0.029 A 
ATOM      8  C   UNL     1      -3.112   3.015   1.122  0.00  0.00    +0.042 A 
ATOM      9  C   UNL     1      -3.374   3.839   0.042  0.00  0.00    +0.142 A 
ATOM     10  C   UNL     1      -2.522   3.843  -1.052  0.00  0.00    +0.078 A 
ATOM     11  C   UNL     1      -1.406   3.027  -1.062  0.00  0.00    +0.049 A 
ATOM     12  C   UNL     1      -1.146   2.196   0.020  0.00  0.00    +0.052 A 
ATOM     13 CL   UNL     1      -2.852   4.877  -2.406  0.00  0.00    -0.081 Cl
ATOM     14  F   UNL     1      -4.462   4.640   0.052  0.00  0.00    -0.204 F 
ENDBRANCH   1  12
BRANCH   2  15
ATOM     15  C   UNL     1       1.811   3.168   0.002  0.00  0.00    +0.186 C 
ATOM     16  C   UNL     1       2.424   3.515   1.382  0.00  0.00    +0.042 C 
ATOM     17  C   UNL     1       3.409   4.650   0.990  0.00  0.00    +0.031 C 
ATOM     18  C   UNL     1       3.876   4.208  -0.414  0.00  0.00    +0.161 C 
ATOM     19  O   UNL     1       2.891   3.308  -0.935  0.00  0.00    -0.369 OA
ENDBRANCH   2  15
TORSDOF 2
