REMARK  Name = ZINC15863458
REMARK  10 active torsions:
REMARK  status: ('A' for Active; 'I' for Inactive)
REMARK    1  A    between atoms: C_1  and  C_2
REMARK    2  A    between atoms: C_5  and  N_34
REMARK    3  A    between atoms: C_6  and  S_8
REMARK    4  A    between atoms: S_8  and  N_11
REMARK    5  A    between atoms: C_20  and  C_22
REMARK    6  A    between atoms: C_22  and  C_23
REMARK    7  A    between atoms: N_25  and  C_26
REMARK    8  A    between atoms: C_26  and  C_27
REMARK    9  A    between atoms: C_27  and  C_28
REMARK   10  A    between atoms: C_35  and  C_37
REMARK                            x       y       z     vdW  Elec       q    Type
REMARK                         _______ _______ _______ _____ _____    ______ ____
ROOT
ATOM      1  N   UNL     1      -2.127   1.666   1.313  0.00  0.00    -0.168 NA
ATOM      2  C   UNL     1      -2.893   2.264   0.207  0.00  0.00    +0.115 C 
ATOM      3  C   UNL     1      -3.271   3.688   0.613  0.00  0.00    +0.052 C 
ATOM      4  C   UNL     1      -2.079   4.420   1.171  0.00  0.00    -0.041 A 
ATOM      5  C   UNL     1      -2.131   5.809   1.199  0.00  0.00    +0.004 A 
ATOM      6  C   UNL     1      -1.080   6.541   1.704  0.00  0.00    +0.000 A 
ATOM      7  C   UNL     1       0.039   5.891   2.191  0.00  0.00    +0.000 A 
ATOM      8  C   UNL     1       0.096   4.513   2.162  0.00  0.00    +0.005 A 
ATOM      9  C   UNL     1      -0.962   3.774   1.649  0.00  0.00    -0.025 A 
ATOM     10  C   UNL     1      -0.831   2.272   1.638  0.00  0.00    +0.119 C 
ENDROOT
BRANCH   1  11
ATOM     11  S   UNL     1      -2.705   0.363   2.155  0.00  0.00    +0.063 S 
ATOM     12  O   UNL     1      -3.197  -0.558   1.191  0.00  0.00    -0.153 OA
ATOM     13  O   UNL     1      -1.702   0.013   3.100  0.00  0.00    -0.153 OA
BRANCH  11  19
ATOM     14  C   UNL     1      -7.812   0.265   3.258  0.00  0.00    +0.044 C 
ATOM     15  C   UNL     1      -6.445   0.832   3.546  0.00  0.00    -0.048 A 
ATOM     16  C   UNL     1      -6.288   1.785   4.536  0.00  0.00    +0.005 A 
ATOM     17  C   UNL     1      -5.038   2.307   4.801  0.00  0.00    +0.025 A 
ATOM     18  C   UNL     1      -3.936   1.869   4.078  0.00  0.00    +0.060 A 
ATOM     19  C   UNL     1      -4.098   0.916   3.081  0.00  0.00    +0.127 A 
ATOM     20  C   UNL     1      -5.352   0.399   2.819  0.00  0.00    +0.033 A 
BRANCH  18  21
ATOM     21  N   UNL     1      -2.667   2.391   4.349  0.00  0.00    -0.284 N 
ATOM     22  C   UNL     1      -2.340   2.750   5.606  0.00  0.00    +0.214 C 
ATOM     23  O   UNL     1      -3.112   2.539   6.517  0.00  0.00    -0.276 OA
ATOM     24  C   UNL     1      -1.015   3.413   5.881  0.00  0.00    +0.109 C 
ATOM     25  H   UNL     1      -2.022   2.495   3.632  0.00  0.00    +0.155 HD
ENDBRANCH  18  21
ENDBRANCH  11  19
ENDBRANCH   1  11
BRANCH  10  26
ATOM     26  C   UNL     1       0.202   1.858   0.587  0.00  0.00    +0.121 C 
BRANCH  26  27
ATOM     27  C   UNL     1       0.457   0.377   0.690  0.00  0.00    +0.215 C 
ATOM     28  O   UNL     1      -0.028  -0.261   1.600  0.00  0.00    -0.276 OA
ATOM     29  N   UNL     1       1.225  -0.240  -0.230  0.00  0.00    -0.315 N 
ATOM     30  H   UNL     1       1.614   0.270  -0.958  0.00  0.00    +0.149 HD
BRANCH  29  31
ATOM     31  C   UNL     1       1.474  -1.680  -0.130  0.00  0.00    +0.108 C 
BRANCH  31  32
ATOM     32  C   UNL     1       2.368  -2.125  -1.289  0.00  0.00    +0.049 C 
BRANCH  32  33
ATOM     33  C   UNL     1       2.624  -3.607  -1.187  0.00  0.00    -0.072 C 
ATOM     34  C   UNL     1       1.859  -4.403  -1.863  0.00  0.00    -0.028 C 
ATOM     35  C   UNL     1       1.985  -5.898  -1.854  0.00  0.00    +0.027 C 
ATOM     36  C   UNL     1       3.354  -6.309  -1.306  0.00  0.00    +0.004 C 
ATOM     37  C   UNL     1       3.596  -5.557   0.008  0.00  0.00    +0.005 C 
ATOM     38  C   UNL     1       3.753  -4.067  -0.312  0.00  0.00    +0.030 C 
ENDBRANCH  32  33
ENDBRANCH  31  32
ENDBRANCH  29  31
ENDBRANCH  26  27
ENDBRANCH  10  26
TORSDOF 8
