REMARK  Name = ZINC02210899
REMARK  10 active torsions:
REMARK  status: ('A' for Active; 'I' for Inactive)
REMARK    1  A    between atoms: C_1  and  C_2
REMARK    2  A    between atoms: C_4  and  C_37
REMARK    3  A    between atoms: C_5  and  O_36
REMARK    4  A    between atoms: C_6  and  C_8
REMARK    5  A    between atoms: N_16  and  C_28
REMARK    6  A    between atoms: C_17  and  C_19
REMARK    7  A    between atoms: C_22  and  O_27
REMARK    8  A    between atoms: C_23  and  O_25
REMARK    9  A    between atoms: O_25  and  C_26
REMARK   10  A    between atoms: C_28  and  C_29
REMARK                            x       y       z     vdW  Elec       q    Type
REMARK                         _______ _______ _______ _____ _____    ______ ____
ROOT
ATOM      1  C   UNL     1       0.459  -2.582   2.327  0.00  0.00    +0.102 A 
ATOM      2  C   UNL     1       0.365  -2.174   3.662  0.00  0.00    +0.035 A 
ATOM      3  C   UNL     1       0.474  -3.326   4.416  0.00  0.00    +0.126 A 
ATOM      4  N   UNL     1       0.624  -4.351   3.525  0.00  0.00    -0.272 N 
ATOM      5  H   UNL     1       0.725  -5.286   3.763  0.00  0.00    +0.189 HD
ATOM      6  N   UNL     1       0.607  -3.892   2.324  0.00  0.00    -0.173 NA
ATOM      7  C   UNL     1       0.384  -2.966   5.835  0.00  0.00    +0.266 C 
ATOM      8  O   UNL     1       0.445  -3.756   6.758  0.00  0.00    -0.268 OA
ATOM      9  N   UNL     1       0.224  -1.637   5.971  0.00  0.00    -0.281 N 
ATOM     10  C   UNL     1       0.199  -1.036   4.631  0.00  0.00    +0.142 C 
ENDROOT
BRANCH   1  16
ATOM     11  C   UNL     1       0.297   1.993   0.336  0.00  0.00    +0.044 C 
ATOM     12  C   UNL     1       0.318   0.496   0.171  0.00  0.00    -0.049 A 
ATOM     13  C   UNL     1       0.277  -0.059  -1.096  0.00  0.00    +0.010 A 
ATOM     14  C   UNL     1       0.296  -1.431  -1.257  0.00  0.00    -0.008 A 
ATOM     15  C   UNL     1       0.355  -2.260  -0.148  0.00  0.00    +0.129 A 
ATOM     16  C   UNL     1       0.396  -1.702   1.133  0.00  0.00    +0.044 A 
ATOM     17  C   UNL     1       0.383  -0.318   1.284  0.00  0.00    +0.017 A 
ATOM     18  C   UNL     1       0.252  -2.027  -2.641  0.00  0.00    +0.047 C 
BRANCH  15  19
ATOM     19  O   UNL     1       0.373  -3.609  -0.305  0.00  0.00    -0.506 OA
ATOM     20  H   UNL     1       1.260  -3.984  -0.386  0.00  0.00    +0.292 HD
ENDBRANCH  15  19
ENDBRANCH   1  16
BRANCH  10  21
ATOM     21  C   UNL     1      -1.119  -0.344   4.397  0.00  0.00    -0.019 A 
ATOM     22  C   UNL     1      -1.145   0.908   3.810  0.00  0.00    +0.009 A 
ATOM     23  C   UNL     1      -2.352   1.547   3.592  0.00  0.00    +0.049 A 
ATOM     24  C   UNL     1      -3.538   0.934   3.964  0.00  0.00    +0.158 A 
ATOM     25  C   UNL     1      -3.511  -0.326   4.554  0.00  0.00    +0.162 A 
ATOM     26  C   UNL     1      -2.299  -0.963   4.765  0.00  0.00    +0.055 A 
BRANCH  25  27
ATOM     27  O   UNL     1      -4.672  -0.932   4.920  0.00  0.00    -0.491 OA
ATOM     28  C   UNL     1      -4.579  -2.271   5.409  0.00  0.00    +0.277 C 
ENDBRANCH  25  27
BRANCH  24  29
ATOM     29  O   UNL     1      -4.725   1.562   3.751  0.00  0.00    -0.503 OA
ATOM     30  H   UNL     1      -5.124   1.368   2.892  0.00  0.00    +0.292 HD
ENDBRANCH  24  29
ENDBRANCH  10  21
BRANCH   9  31
ATOM     31  C   UNL     1       0.096  -0.913   7.239  0.00  0.00    +0.145 C 
BRANCH  31  32
ATOM     32  C   UNL     1       1.463  -0.500   7.721  0.00  0.00    -0.012 A 
ATOM     33  C   UNL     1       2.106  -1.240   8.695  0.00  0.00    +0.006 A 
ATOM     34  C   UNL     1       3.359  -0.861   9.137  0.00  0.00    +0.000 A 
ATOM     35  C   UNL     1       3.971   0.259   8.605  0.00  0.00    +0.001 A 
ATOM     36  C   UNL     1       3.329   1.000   7.631  0.00  0.00    +0.020 A 
ATOM     37  C   UNL     1       2.077   0.618   7.184  0.00  0.00    +0.046 A 
ATOM     38 CL   UNL     1       1.273   1.545   5.956  0.00  0.00    -0.083 Cl
ENDBRANCH  31  32
ENDBRANCH   9  31
TORSDOF 7
