REMARK  Name = ZINC14461632
REMARK  11 active torsions:
REMARK  status: ('A' for Active; 'I' for Inactive)
REMARK    1  A    between atoms: C_1  and  C_2
REMARK    2  A    between atoms: C_2  and  N_3
REMARK    3  A    between atoms: N_3  and  C_4
REMARK    4  A    between atoms: N_3  and  C_6
REMARK    5  A    between atoms: C_4  and  C_5
REMARK    6  A    between atoms: C_9  and  C_12
REMARK    7  A    between atoms: C_23  and  S_28
REMARK    8  A    between atoms: S_28  and  N_31
REMARK    9  A    between atoms: N_31  and  C_32
REMARK   10  A    between atoms: C_34  and  C_39
REMARK   11  A    between atoms: C_36  and  C_38
REMARK                            x       y       z     vdW  Elec       q    Type
REMARK                         _______ _______ _______ _____ _____    ______ ____
ROOT
ATOM      1  C   UNL     1       0.093   1.113  -2.024  0.00  0.00    +0.105 C 
ATOM      2  C   UNL     1      -0.891   1.866  -1.147  0.00  0.00    +0.029 C 
ATOM      3  C   UNL     1      -2.369   1.457  -1.213  0.00  0.00    +0.033 C 
ATOM      4  C   UNL     1      -2.851   1.817   0.194  0.00  0.00    -0.030 C 
ATOM      5  C   UNL     1      -1.844   1.785   1.026  0.00  0.00    -0.023 C 
ATOM      6  C   UNL     1      -0.610   1.378   0.306  0.00  0.00    +0.049 C 
ATOM      7  C   UNL     1       0.726   1.873   0.701  0.00  0.00    -0.018 A 
ATOM      8  C   UNL     1       1.021   2.260   1.990  0.00  0.00    +0.034 A 
ATOM      9  C   UNL     1       2.291   2.702   2.313  0.00  0.00    +0.109 A 
ATOM     10  C   UNL     1       3.272   2.757   1.339  0.00  0.00    +0.030 A 
ATOM     11  C   UNL     1       2.985   2.378   0.044  0.00  0.00    +0.025 A 
ATOM     12  C   UNL     1       1.710   1.938  -0.292  0.00  0.00    +0.031 A 
ATOM     13  N   UNL     1       1.433   1.592  -1.620  0.00  0.00    -0.336 N 
ATOM     14  H   UNL     1       2.133   1.667  -2.288  0.00  0.00    +0.147 HD
ENDROOT
BRANCH   1  18
ATOM     15  C   UNL     1      -0.237  -3.095  -1.354  0.00  0.00    +0.030 A 
ATOM     16  C   UNL     1      -0.993  -2.487  -2.348  0.00  0.00    +0.023 A 
ATOM     17  C   UNL     1      -0.884  -1.127  -2.562  0.00  0.00    +0.007 A 
ATOM     18  C   UNL     1      -0.023  -0.370  -1.788  0.00  0.00    -0.027 A 
ATOM     19  C   UNL     1       0.736  -0.973  -0.801  0.00  0.00    +0.007 A 
ATOM     20  C   UNL     1       0.627  -2.332  -0.579  0.00  0.00    +0.023 A 
BRANCH  15  21
ATOM     21  N   UNL     1      -0.344  -4.470  -1.135  0.00  0.00    -0.330 N 
BRANCH  21  23
ATOM     22  C   UNL     1      -0.327  -5.098   1.228  0.00  0.00    +0.024 C 
ATOM     23  C   UNL     1       0.455  -5.110  -0.087  0.00  0.00    +0.102 C 
ENDBRANCH  21  23
BRANCH  21  24
ATOM     24  C   UNL     1      -1.255  -5.273  -1.954  0.00  0.00    +0.102 C 
ATOM     25  C   UNL     1      -0.512  -5.787  -3.190  0.00  0.00    +0.024 C 
ENDBRANCH  21  24
ENDBRANCH  15  21
ENDBRANCH   1  18
BRANCH   9  26
ATOM     26  S   UNL     1       2.658   3.197   3.963  0.00  0.00    +0.072 S 
ATOM     27  O   UNL     1       3.826   4.005   3.895  0.00  0.00    -0.150 OA
ATOM     28  O   UNL     1       1.441   3.665   4.528  0.00  0.00    -0.150 OA
BRANCH  26  29
ATOM     29  N   UNL     1       3.076   1.832   4.802  0.00  0.00    -0.216 N 
ATOM     30  H   UNL     1       3.964   1.750   5.184  0.00  0.00    +0.174 HD
BRANCH  29  31
ATOM     31  C   UNL     1       2.150   0.799   4.960  0.00  0.00    +0.049 A 
ATOM     32  C   UNL     1       0.847   1.085   5.349  0.00  0.00    +0.028 A 
ATOM     33  C   UNL     1      -0.067   0.061   5.500  0.00  0.00    -0.048 A 
ATOM     34  C   UNL     1       0.315  -1.249   5.274  0.00  0.00    +0.006 A 
ATOM     35  C   UNL     1       1.612  -1.537   4.892  0.00  0.00    -0.048 A 
ATOM     36  C   UNL     1       2.531  -0.518   4.735  0.00  0.00    +0.028 A 
ATOM     37  C   UNL     1       2.025  -2.966   4.648  0.00  0.00    +0.044 C 
ATOM     38  C   UNL     1      -1.482   0.371   5.916  0.00  0.00    +0.044 C 
ENDBRANCH  29  31
ENDBRANCH  26  29
ENDBRANCH   9  26
TORSDOF 7
