REMARK  Name = ZINC63349872
REMARK  9 active torsions:
REMARK  status: ('A' for Active; 'I' for Inactive)
REMARK    1  A    between atoms: C_1  and  O_2
REMARK    2  A    between atoms: O_2  and  C_3
REMARK    3  A    between atoms: C_10  and  C_18
REMARK    4  A    between atoms: C_21  and  O_38
REMARK    5  A    between atoms: C_22  and  C_24
REMARK    6  A    between atoms: C_24  and  O_25
REMARK    7  A    between atoms: O_25  and  C_26
REMARK    8  A    between atoms: C_31  and  C_32
REMARK    9  A    between atoms: O_38  and  C_39
REMARK                            x       y       z     vdW  Elec       q    Type
REMARK                         _______ _______ _______ _____ _____    ______ ____
ROOT
ATOM      1  C   UNL     1       4.002  -4.985  -5.190  0.00  0.00    -0.028 A 
ATOM      2  C   UNL     1       3.470  -5.942  -6.035  0.00  0.00    +0.009 A 
ATOM      3  C   UNL     1       4.012  -6.134  -7.291  0.00  0.00    +0.046 A 
ATOM      4  C   UNL     1       5.091  -5.366  -7.705  0.00  0.00    +0.126 A 
ATOM      5  C   UNL     1       5.622  -4.407  -6.856  0.00  0.00    +0.032 A 
ATOM      6  C   UNL     1       5.073  -4.214  -5.603  0.00  0.00    +0.015 A 
ENDROOT
BRANCH   1  13
ATOM      7  C   UNL     1       0.606  -0.607  -1.056  0.00  0.00    +0.121 A 
ATOM      8  C   UNL     1       1.172   0.195  -2.062  0.00  0.00    +0.047 A 
ATOM      9  C   UNL     1       1.785  -0.326  -3.146  0.00  0.00    +0.029 A 
ATOM     10  C   UNL     1       1.877  -1.780  -3.304  0.00  0.00    +0.043 A 
ATOM     11  N   UNL     1       2.429  -2.527  -4.233  0.00  0.00    -0.376 N 
ATOM     12  C   UNL     1       2.142  -3.925  -3.931  0.00  0.00    +0.128 C 
ATOM     13  C   UNL     1       3.409  -4.777  -3.821  0.00  0.00    +0.111 C 
ATOM     14  N   UNL     1       3.044  -6.077  -3.236  0.00  0.00    -0.307 NA
ATOM     15  C   UNL     1       2.601  -5.980  -1.842  0.00  0.00    +0.086 C 
ATOM     16  C   UNL     1       1.285  -5.183  -1.760  0.00  0.00    +0.048 C 
ATOM     17  C   UNL     1       1.488  -3.914  -2.558  0.00  0.00    -0.035 C 
ATOM     18  C   UNL     1       1.288  -2.630  -2.238  0.00  0.00    +0.003 A 
ATOM     19  C   UNL     1       0.646  -1.960  -1.101  0.00  0.00    +0.055 A 
ATOM     20  H   UNL     1       2.354  -6.548  -3.802  0.00  0.00    +0.123 HD
ATOM     21  H   UNL     1       2.941  -2.204  -4.991  0.00  0.00    +0.160 HD
BRANCH   7  23
ATOM     22  C   UNL     1      -0.017   1.425   0.010  0.00  0.00    +0.277 C 
ATOM     23  O   UNL     1       0.002  -0.004   0.002  0.00  0.00    -0.495 OA
ENDBRANCH   7  23
ENDBRANCH   1  13
BRANCH   4  24
ATOM     24  O   UNL     1       5.626  -5.554  -8.940  0.00  0.00    -0.495 OA
ATOM     25  C   UNL     1       5.028  -6.560  -9.760  0.00  0.00    +0.277 C 
ENDBRANCH   4  24
BRANCH   5  26
ATOM     26  C   UNL     1       6.794  -3.571  -7.302  0.00  0.00    +0.268 C 
BRANCH  26  27
ATOM     27  O   UNL     1       7.155  -2.662  -6.260  0.00  0.00    -0.487 OA
BRANCH  27  28
ATOM     28  C   UNL     1       8.201  -1.829  -6.503  0.00  0.00    +0.124 A 
ATOM     29  C   UNL     1       8.863  -1.882  -7.721  0.00  0.00    +0.046 A 
ATOM     30  C   UNL     1       9.926  -1.034  -7.965  0.00  0.00    +0.004 A 
ATOM     31  C   UNL     1      10.331  -0.134  -6.997  0.00  0.00    +0.001 A 
ATOM     32  C   UNL     1       9.673  -0.080  -5.782  0.00  0.00    +0.007 A 
ATOM     33  C   UNL     1       8.606  -0.921  -5.535  0.00  0.00    -0.003 A 
BRANCH  33  34
ATOM     34  C   UNL     1       7.886  -0.858  -4.213  0.00  0.00    +0.023 C 
ATOM     35  C   UNL     1       7.298   0.542  -4.019  0.00  0.00    +0.008 C 
ATOM     36  C   UNL     1       6.567   0.606  -2.676  0.00  0.00    +0.001 C 
ATOM     37  C   UNL     1       7.551   0.305  -1.544  0.00  0.00    +0.000 C 
ATOM     38  C   UNL     1       8.139  -1.094  -1.738  0.00  0.00    +0.001 C 
ATOM     39  C   UNL     1       8.870  -1.159  -3.081  0.00  0.00    +0.008 C 
ENDBRANCH  33  34
ENDBRANCH  27  28
ENDBRANCH  26  27
ENDBRANCH   5  26
TORSDOF 7
