REMARK  Name = ZINC64816239
REMARK  7 active torsions:
REMARK  status: ('A' for Active; 'I' for Inactive)
REMARK    1  A    between atoms: C_1  and  C_2
REMARK    2  A    between atoms: C_2  and  C_3
REMARK    3  A    between atoms: C_8  and  N_9
REMARK    4  A    between atoms: C_14  and  C_28
REMARK    5  A    between atoms: C_18  and  C_19
REMARK    6  A    between atoms: C_18  and  C_20
REMARK    7  A    between atoms: N_22  and  C_23
REMARK                            x       y       z     vdW  Elec       q    Type
REMARK                         _______ _______ _______ _____ _____    ______ ____
ROOT
ATOM      1  N   UNL     1      -1.343  -0.374  -2.291  0.00  0.00    -0.250 N 
ATOM      2  C   UNL     1      -0.726  -1.275  -3.093  0.00  0.00    +0.270 C 
ATOM      3  O   UNL     1      -0.528  -2.421  -2.736  0.00  0.00    -0.268 OA
ATOM      4  C   UNL     1      -0.308  -0.792  -4.418  0.00  0.00    +0.125 A 
ATOM      5  C   UNL     1       0.163  -1.457  -5.512  0.00  0.00    +0.065 A 
ATOM      6  C   UNL     1       0.372  -0.455  -6.486  0.00  0.00    +0.128 A 
ATOM      7  N   UNL     1       0.036   0.704  -5.947  0.00  0.00    -0.167 NA
ATOM      8  N   UNL     1      -0.353   0.547  -4.742  0.00  0.00    -0.256 N 
ATOM      9  C   UNL     1      -0.784   1.551  -3.761  0.00  0.00    +0.179 C 
ATOM     10  C   UNL     1      -1.794   0.917  -2.800  0.00  0.00    +0.135 C 
ATOM     11  C   UNL     1      -3.124   0.724  -3.531  0.00  0.00    +0.044 C 
ENDROOT
BRANCH   1  17
ATOM     12  C   UNL     1      -0.498  -0.682  -0.051  0.00  0.00    -0.026 A 
ATOM     13  C   UNL     1      -0.715  -0.990   1.278  0.00  0.00    +0.005 A 
ATOM     14  C   UNL     1      -1.987  -1.311   1.716  0.00  0.00    +0.000 A 
ATOM     15  C   UNL     1      -3.045  -1.325   0.825  0.00  0.00    +0.002 A 
ATOM     16  C   UNL     1      -2.834  -1.019  -0.505  0.00  0.00    +0.024 A 
ATOM     17  C   UNL     1      -1.559  -0.690  -0.947  0.00  0.00    +0.041 A 
BRANCH  12  19
ATOM     18  C   UNL     1       1.072   1.186  -0.492  0.00  0.00    +0.009 C 
ATOM     19  C   UNL     1       0.889  -0.333  -0.527  0.00  0.00    +0.033 C 
ENDBRANCH  12  19
ENDBRANCH   1  17
BRANCH   6  20
ATOM     20  C   UNL     1       0.877  -0.665  -7.861  0.00  0.00    +0.155 A 
ATOM     21  C   UNL     1       1.081   0.303  -8.792  0.00  0.00    +0.051 A 
ATOM     22  C   UNL     1       1.563  -0.341  -9.949  0.00  0.00    +0.042 A 
ATOM     23  C   UNL     1       1.628  -1.657  -9.670  0.00  0.00    +0.196 A 
ATOM     24  O   UNL     1       1.218  -1.849  -8.405  0.00  0.00    -0.461 OA
ENDBRANCH   6  20
BRANCH  10  25
ATOM     25  C   UNL     1      -2.012   1.850  -1.637  0.00  0.00    +0.239 C 
ATOM     26  O   UNL     1      -1.585   1.561  -0.540  0.00  0.00    -0.273 OA
ATOM     27  N   UNL     1      -2.681   3.006  -1.817  0.00  0.00    -0.311 N 
ATOM     28  H   UNL     1      -3.075   3.209  -2.680  0.00  0.00    +0.149 HD
BRANCH  27  29
ATOM     29  C   UNL     1      -2.814   3.955  -0.709  0.00  0.00    +0.073 C 
ATOM     30  C   UNL     1      -4.027   3.579   0.167  0.00  0.00    +0.022 C 
ATOM     31  C   UNL     1      -4.631   4.943   0.586  0.00  0.00    +0.002 C 
ATOM     32  C   UNL     1      -4.457   5.801  -0.692  0.00  0.00    +0.002 C 
ATOM     33  C   UNL     1      -3.087   5.368  -1.255  0.00  0.00    +0.022 C 
ENDBRANCH  27  29
ENDBRANCH  10  25
TORSDOF 5
