REMARK  Name = ZINC55027551
REMARK  8 active torsions:
REMARK  status: ('A' for Active; 'I' for Inactive)
REMARK    1  A    between atoms: C_1  and  C_2
REMARK    2  A    between atoms: C_2  and  C_3
REMARK    3  A    between atoms: C_2  and  C_5
REMARK    4  A    between atoms: C_2  and  N_8
REMARK    5  A    between atoms: C_9  and  C_11
REMARK    6  A    between atoms: C_11  and  N_12
REMARK    7  A    between atoms: C_15  and  N_18
REMARK    8  A    between atoms: N_21  and  C_22
REMARK                            x       y       z     vdW  Elec       q    Type
REMARK                         _______ _______ _______ _____ _____    ______ ____
ROOT
ATOM      1  N   UNL     1      -4.298  -0.250   2.252  0.00  0.00    +0.385 N 
ATOM      2  C   UNL     1      -4.415   1.212   2.205  0.00  0.00    -0.076 C 
ATOM      3  C   UNL     1      -5.058   1.718   3.498  0.00  0.00    +0.004 C 
ATOM      4  C   UNL     1      -6.450   1.097   3.647  0.00  0.00    +0.071 C 
ATOM      5  C   UNL     1      -6.324  -0.428   3.620  0.00  0.00    +0.004 C 
ATOM      6  C   UNL     1      -5.634  -0.855   2.322  0.00  0.00    -0.076 C 
ATOM      7  H   UNL     1      -3.766  -0.517   3.067  0.00  0.00    -0.081 HD
ENDROOT
BRANCH   4   8
ATOM      8  N   UNL     1      -7.041   1.518   4.920  0.00  0.00    -0.297 N 
ATOM      9  C   UNL     1      -8.380   1.541   5.066  0.00  0.00    +0.300 C 
ATOM     10  O   UNL     1      -9.099   1.214   4.142  0.00  0.00    -0.253 OA
ATOM     11  N   UNL     1      -8.923   1.928   6.238  0.00  0.00    -0.297 N 
ATOM     12  H   UNL     1      -6.467   1.779   5.658  0.00  0.00    +0.151 HD
ATOM     13  H   UNL     1      -8.350   2.189   6.976  0.00  0.00    +0.151 HD
BRANCH  11  14
ATOM     14  C   UNL     1     -10.380   1.954   6.397  0.00  0.00    +0.074 C 
ATOM     15  C   UNL     1     -10.926   3.283   5.873  0.00  0.00    +0.022 C 
ATOM     16  C   UNL     1     -12.447   3.310   6.039  0.00  0.00    +0.002 C 
ATOM     17  C   UNL     1     -12.801   3.162   7.520  0.00  0.00    +0.000 C 
ATOM     18  C   UNL     1     -12.254   1.832   8.044  0.00  0.00    +0.002 C 
ATOM     19  C   UNL     1     -10.733   1.805   7.878  0.00  0.00    +0.022 C 
ENDBRANCH  11  14
ENDBRANCH   4   8
BRANCH   1  20
ATOM     20  C   UNL     1      -3.611  -0.724   1.044  0.00  0.00    +0.019 C 
BRANCH  20  22
ATOM     21  N   UNL     1      -1.372  -0.511   0.012  0.00  0.00    -0.299 N 
ATOM     22  C   UNL     1      -2.197  -0.202   1.033  0.00  0.00    +0.198 C 
ATOM     23  O   UNL     1      -1.801   0.495   1.942  0.00  0.00    -0.278 OA
ATOM     24  H   UNL     1      -1.689  -1.069  -0.715  0.00  0.00    +0.150 HD
BRANCH  21  26
ATOM     25  C   UNL     1      -0.019   1.526   0.010  0.00  0.00    +0.048 C 
ATOM     26  C   UNL     1       0.002  -0.004   0.002  0.00  0.00    +0.121 C 
BRANCH  26  27
ATOM     27  C   UNL     1       0.718  -0.497  -1.257  0.00  0.00    +0.026 C 
ATOM     28  C   UNL     1       1.919  -1.426  -1.068  0.00  0.00    +0.007 C 
ATOM     29  C   UNL     1       2.134   0.022  -1.513  0.00  0.00    +0.007 C 
ENDBRANCH  26  27
BRANCH  26  30
ATOM     30  C   UNL     1       0.714  -0.492   1.195  0.00  0.00    +0.088 C 
ATOM     31  N   UNL     1       1.263  -0.868   2.115  0.00  0.00    -0.194 NA
ENDBRANCH  26  30
ENDBRANCH  21  26
ENDBRANCH  20  22
ENDBRANCH   1  20
TORSDOF 7
