REMARK  Name = ZINC08750498
REMARK  9 active torsions:
REMARK  status: ('A' for Active; 'I' for Inactive)
REMARK    1  A    between atoms: C_1  and  C_2
REMARK    2  A    between atoms: C_2  and  C_3
REMARK    3  A    between atoms: C_2  and  C_4
REMARK    4  A    between atoms: C_4  and  N_5
REMARK    5  A    between atoms: C_9  and  C_11
REMARK    6  A    between atoms: C_11  and  S_12
REMARK    7  A    between atoms: S_12  and  C_13
REMARK    8  A    between atoms: C_16  and  C_25
REMARK    9  A    between atoms: N_17  and  C_18
REMARK                            x       y       z     vdW  Elec       q    Type
REMARK                         _______ _______ _______ _____ _____    ______ ____
ROOT
ATOM      1  C   UNL     1      -3.242   0.771  -1.054  0.00  0.00    +0.197 A 
ATOM      2  N   UNL     1      -4.187  -0.034  -0.624  0.00  0.00    -0.122 NA
ATOM      3  N   UNL     1      -4.101  -0.176   0.650  0.00  0.00    -0.128 NA
ATOM      4  C   UNL     1      -3.092   0.525   1.113  0.00  0.00    +0.171 A 
ATOM      5  N   UNL     1      -2.507   1.151   0.035  0.00  0.00    -0.267 N 
ENDROOT
BRANCH   5   6
ATOM      6  C   UNL     1      -1.394   2.005   0.051  0.00  0.00    +0.086 A 
ATOM      7  C   UNL     1      -0.128   1.502  -0.215  0.00  0.00    +0.029 A 
ATOM      8  C   UNL     1       0.966   2.346  -0.203  0.00  0.00    +0.002 A 
ATOM      9  C   UNL     1       0.802   3.690   0.078  0.00  0.00    +0.003 A 
ATOM     10  C   UNL     1      -0.456   4.194   0.349  0.00  0.00    +0.040 A 
ATOM     11  C   UNL     1      -1.555   3.355   0.339  0.00  0.00    +0.147 A 
ATOM     12  F   UNL     1      -2.785   3.848   0.604  0.00  0.00    -0.203 F 
ENDBRANCH   5   6
BRANCH   4  13
ATOM     13  C   UNL     1      -2.665   0.624   2.525  0.00  0.00    +0.038 A 
ATOM     14  C   UNL     1      -1.318   0.481   2.862  0.00  0.00    +0.013 A 
ATOM     15  C   UNL     1      -0.926   0.574   4.181  0.00  0.00    +0.001 A 
ATOM     16  C   UNL     1      -1.865   0.810   5.170  0.00  0.00    +0.001 A 
ATOM     17  C   UNL     1      -3.202   0.953   4.845  0.00  0.00    +0.021 A 
ATOM     18  C   UNL     1      -3.607   0.867   3.527  0.00  0.00    +0.052 A 
ATOM     19 CL   UNL     1      -5.284   1.054   3.119  0.00  0.00    -0.083 Cl
ENDBRANCH   4  13
BRANCH   1  20
ATOM     20  S   UNL     1      -2.969   1.265  -2.724  0.00  0.00    -0.076 S 
BRANCH  20  21
ATOM     21  C   UNL     1      -4.314   0.369  -3.540  0.00  0.00    +0.173 C 
BRANCH  21  26
ATOM     22  N   UNL     1      -6.072  -0.229  -7.974  0.00  0.00    -0.299 N 
ATOM     23  C   UNL     1      -5.158   0.335  -7.159  0.00  0.00    +0.306 C 
ATOM     24  O   UNL     1      -4.305   1.070  -7.618  0.00  0.00    -0.252 OA
ATOM     25  N   UNL     1      -5.191   0.085  -5.835  0.00  0.00    -0.240 N 
ATOM     26  C   UNL     1      -4.277   0.649  -5.020  0.00  0.00    +0.231 C 
ATOM     27  O   UNL     1      -3.426   1.382  -5.478  0.00  0.00    -0.274 OA
ATOM     28  H   UNL     1      -6.752  -0.815  -7.608  0.00  0.00    +0.150 HD
ATOM     29  H   UNL     1      -5.871  -0.501  -5.469  0.00  0.00    +0.159 HD
BRANCH  22  30
ATOM     30  C   UNL     1      -6.036   0.043  -9.413  0.00  0.00    +0.108 C 
BRANCH  30  32
ATOM     31  C   UNL     1      -8.517  -0.166  -9.621  0.00  0.00    +0.009 C 
ATOM     32  C   UNL     1      -7.173  -0.714 -10.103  0.00  0.00    -0.000 C 
ATOM     33  C   UNL     1      -7.062  -0.530 -11.618  0.00  0.00    +0.009 C 
ENDBRANCH  30  32
ENDBRANCH  22  30
ENDBRANCH  21  26
ENDBRANCH  20  21
ENDBRANCH   1  20
TORSDOF 7
