REMARK  Name = ZINC18023386
REMARK  7 active torsions:
REMARK  status: ('A' for Active; 'I' for Inactive)
REMARK    1  A    between atoms: C_1  and  C_2
REMARK    2  A    between atoms: N_10  and  N_14
REMARK    3  A    between atoms: C_15  and  C_17
REMARK    4  A    between atoms: C_17  and  C_18
REMARK    5  A    between atoms: C_18  and  C_19
REMARK    6  A    between atoms: C_22  and  S_25
REMARK    7  A    between atoms: S_25  and  N_28
REMARK                            x       y       z     vdW  Elec       q    Type
REMARK                         _______ _______ _______ _____ _____    ______ ____
ROOT
ATOM      1  N   UNL     1      -0.011   0.966   0.007  0.00  0.00    -0.224 N 
ATOM      2  C   UNL     1      -1.187   1.624   0.017  0.00  0.00    +0.230 C 
ATOM      3  O   UNL     1      -1.204   2.837   0.023  0.00  0.00    -0.274 OA
ATOM      4  H   UNL     1       0.002  -0.004   0.002  0.00  0.00    +0.174 HD
ENDROOT
BRANCH   1  14
ATOM      5  C   UNL     1       6.872   4.883   0.522  0.00  0.00    +0.007 C 
ATOM      6  C   UNL     1       5.707   4.029   1.024  0.00  0.00    -0.014 C 
ATOM      7  C   UNL     1       4.400   4.811   0.874  0.00  0.00    +0.006 C 
ATOM      8  C   UNL     1       3.236   3.960   1.388  0.00  0.00    +0.035 C 
ATOM      9  C   UNL     1       3.164   2.659   0.596  0.00  0.00    +0.114 C 
ATOM     10  C   UNL     1       4.469   1.881   0.716  0.00  0.00    +0.035 C 
ATOM     11  C   UNL     1       5.628   2.740   0.204  0.00  0.00    +0.006 C 
ATOM     12  C   UNL     1       2.002   1.817   1.071  0.00  0.00    +0.263 C 
ATOM     13  O   UNL     1       1.834   1.358   2.180  0.00  0.00    -0.271 OA
ATOM     14  N   UNL     1       1.193   1.683  -0.000  0.00  0.00    -0.137 N 
ATOM     15  C   UNL     1       1.685   2.315  -1.073  0.00  0.00    +0.326 C 
ATOM     16  O   UNL     1       1.137   2.333  -2.157  0.00  0.00    -0.251 OA
ATOM     17  N   UNL     1       2.854   2.931  -0.814  0.00  0.00    -0.284 N 
ATOM     18  H   UNL     1       3.388   3.449  -1.437  0.00  0.00    +0.151 HD
ENDBRANCH   1  14
BRANCH   2  19
ATOM     19  C   UNL     1      -2.482   0.853   0.018  0.00  0.00    +0.102 C 
BRANCH  19  20
ATOM     20  C   UNL     1      -3.658   1.831   0.029  0.00  0.00    +0.044 C 
BRANCH  20  21
ATOM     21  C   UNL     1      -4.953   1.060   0.031  0.00  0.00    -0.047 A 
ATOM     22  C   UNL     1      -5.556   0.718  -1.165  0.00  0.00    +0.005 A 
ATOM     23  C   UNL     1      -6.741   0.006  -1.163  0.00  0.00    +0.029 A 
ATOM     24  C   UNL     1      -7.329  -0.355   0.035  0.00  0.00    +0.105 A 
ATOM     25  C   UNL     1      -6.729  -0.008   1.231  0.00  0.00    +0.029 A 
ATOM     26  C   UNL     1      -5.541   0.700   1.229  0.00  0.00    +0.005 A 
BRANCH  24  27
ATOM     27  S   UNL     1      -8.842  -1.257   0.037  0.00  0.00    +0.061 S 
ATOM     28  O   UNL     1      -8.915  -1.931  -1.212  0.00  0.00    -0.153 OA
ATOM     29  O   UNL     1      -8.902  -1.946   1.279  0.00  0.00    -0.153 OA
BRANCH  27  30
ATOM     30  N   UNL     1     -10.073  -0.150   0.050  0.00  0.00    -0.177 NA
ATOM     31  C   UNL     1     -10.585   0.302   1.324  0.00  0.00    +0.109 C 
ATOM     32  C   UNL     1     -11.728  -0.625   1.790  0.00  0.00    +0.017 C 
ATOM     33  C   UNL     1     -12.924  -0.417   0.959  0.00  0.00    +0.001 C 
ATOM     34  C   UNL     1     -12.732  -0.761  -0.515  0.00  0.00    +0.001 C 
ATOM     35  C   UNL     1     -12.142   0.427  -1.234  0.00  0.00    +0.017 C 
ATOM     36  C   UNL     1     -10.605   0.332  -1.240  0.00  0.00    +0.109 C 
ENDBRANCH  27  30
ENDBRANCH  24  27
ENDBRANCH  20  21
ENDBRANCH  19  20
ENDBRANCH   2  19
TORSDOF 6
