REMARK  Name = ZINC46910698
REMARK  5 active torsions:
REMARK  status: ('A' for Active; 'I' for Inactive)
REMARK    1  A    between atoms: C_1  and  C_2
REMARK    2  A    between atoms: C_5  and  O_9
REMARK    3  A    between atoms: O_9  and  C_10
REMARK    4  A    between atoms: C_10  and  C_12
REMARK    5  A    between atoms: C_10  and  C_13
REMARK                            x       y       z     vdW  Elec       q    Type
REMARK                         _______ _______ _______ _____ _____    ______ ____
ROOT
ATOM      1  C   UNL     1      -0.838  -6.051  -1.148  0.00  0.00    +0.256 C 
ATOM      2  O   UNL     1      -1.184  -6.420  -0.045  0.00  0.00    -0.272 OA
ATOM      3  N   UNL     1      -1.154  -6.784  -2.233  0.00  0.00    -0.294 N 
ATOM      4  C   UNL     1      -0.648  -6.420  -3.565  0.00  0.00    +0.114 C 
ATOM      5  C   UNL     1       0.278  -7.532  -4.071  0.00  0.00    +0.072 C 
ATOM      6  C   UNL     1      -0.380  -8.869  -3.825  0.00  0.00    +0.023 A 
ATOM      7  C   UNL     1      -1.395  -9.066  -2.955  0.00  0.00    -0.002 A 
ATOM      8  C   UNL     1      -1.738 -10.471  -3.006  0.00  0.00    +0.005 A 
ATOM      9  C   UNL     1      -2.693 -11.241  -2.335  0.00  0.00    +0.010 A 
ATOM     10  C   UNL     1      -2.738 -12.579  -2.639  0.00  0.00    +0.001 A 
ATOM     11  C   UNL     1      -1.883 -13.151  -3.566  0.00  0.00    +0.002 A 
ATOM     12  C   UNL     1      -0.929 -12.414  -4.245  0.00  0.00    +0.026 A 
ATOM     13  C   UNL     1      -0.859 -11.053  -3.956  0.00  0.00    +0.047 A 
ATOM     14  N   UNL     1      -0.056 -10.056  -4.430  0.00  0.00    -0.358 N 
ATOM     15  H   UNL     1       0.641 -10.171  -5.095  0.00  0.00    +0.166 HD
ATOM     16  C   UNL     1      -2.012  -7.977  -2.118  0.00  0.00    +0.145 C 
ENDROOT
BRANCH   1  17
ATOM     17  C   UNL     1      -0.053  -4.774  -1.303  0.00  0.00    +0.256 C 
ATOM     18  C   UNL     1       1.407  -5.107  -1.615  0.00  0.00    +0.062 C 
BRANCH  17  19
ATOM     19  O   UNL     1      -0.122  -4.022  -0.090  0.00  0.00    -0.479 OA
BRANCH  19  24
ATOM     20  C   UNL     1       0.611   1.549  -0.490  0.00  0.00    +0.044 C 
ATOM     21  C   UNL     1       0.415   0.059  -0.383  0.00  0.00    -0.049 A 
ATOM     22  C   UNL     1       0.582  -0.742  -1.498  0.00  0.00    +0.007 A 
ATOM     23  C   UNL     1       0.403  -2.108  -1.403  0.00  0.00    +0.047 A 
ATOM     24  C   UNL     1       0.056  -2.678  -0.186  0.00  0.00    +0.136 A 
ATOM     25  C   UNL     1      -0.111  -1.873   0.932  0.00  0.00    +0.060 A 
ATOM     26  C   UNL     1       0.075  -0.507   0.832  0.00  0.00    +0.022 A 
ATOM     27 BR   UNL     1      -0.584  -2.645   2.592  0.00  0.00    -0.047 Br
ENDBRANCH  19  24
ENDBRANCH  17  19
ENDBRANCH   1  17
TORSDOF 3
