REMARK  Name = ZINC12730901
REMARK  8 active torsions:
REMARK  status: ('A' for Active; 'I' for Inactive)
REMARK    1  A    between atoms: C_1  and  C_2
REMARK    2  A    between atoms: C_2  and  C_3
REMARK    3  A    between atoms: C_3  and  N_4
REMARK    4  A    between atoms: N_4  and  C_5
REMARK    5  A    between atoms: N_4  and  C_17
REMARK    6  A    between atoms: C_5  and  C_6
REMARK    7  A    between atoms: C_17  and  C_18
REMARK    8  A    between atoms: N_20  and  C_21
REMARK                            x       y       z     vdW  Elec       q    Type
REMARK                         _______ _______ _______ _____ _____    ______ ____
ROOT
ATOM      1  N   UNL     1      -1.362  -2.207  -0.125  0.00  0.00    +0.390 N 
ATOM      2  H   UNL     1      -0.741  -2.469  -0.876  0.00  0.00    -0.081 HD
ENDROOT
BRANCH   1   3
ATOM      3  C   UNL     1      -1.610  -0.760  -0.177  0.00  0.00    -0.078 C 
BRANCH   3   5
ATOM      4  C   UNL     1      -0.527   1.484  -0.356  0.00  0.00    +0.002 C 
ATOM      5  C   UNL     1      -0.275  -0.013  -0.170  0.00  0.00    -0.022 C 
ENDBRANCH   3   5
ENDBRANCH   1   3
BRANCH   1   6
ATOM      6  C   UNL     1      -0.745  -2.553   1.162  0.00  0.00    -0.003 C 
BRANCH   6   7
ATOM      7  C   UNL     1      -0.320  -3.998   1.144  0.00  0.00    +0.094 A 
ATOM      8  N   UNL     1       0.330  -4.494   2.230  0.00  0.00    -0.311 N 
ATOM      9  H   UNL     1       0.512  -3.925   2.994  0.00  0.00    +0.170 HD
ATOM     10  C   UNL     1       0.721  -5.792   2.234  0.00  0.00    +0.266 A 
ATOM     11  O   UNL     1       1.306  -6.267   3.193  0.00  0.00    -0.267 OA
ATOM     12  C   UNL     1       0.435  -6.568   1.111  0.00  0.00    +0.102 A 
ATOM     13  C   UNL     1      -0.240  -6.030   0.001  0.00  0.00    +0.085 A 
ATOM     14  N   UNL     1      -0.597  -4.708   0.098  0.00  0.00    -0.235 NA
ATOM     15  C   UNL     1      -0.463  -6.920  -1.059  0.00  0.00    +0.036 A 
ATOM     16  C   UNL     1      -0.040  -8.200  -0.972  0.00  0.00    +0.048 A 
ATOM     17  S   UNL     1       0.723  -8.254   0.641  0.00  0.00    -0.090 S 
ENDBRANCH   6   7
ENDBRANCH   1   6
BRANCH   1  18
ATOM     18  C   UNL     1      -2.634  -2.928  -0.268  0.00  0.00    +0.019 C 
BRANCH  18  19
ATOM     19  C   UNL     1      -3.206  -2.670  -1.638  0.00  0.00    +0.201 C 
ATOM     20  O   UNL     1      -2.612  -1.956  -2.419  0.00  0.00    -0.278 OA
ATOM     21  N   UNL     1      -4.377  -3.232  -1.996  0.00  0.00    -0.287 N 
ATOM     22  H   UNL     1      -4.886  -3.747  -1.350  0.00  0.00    +0.155 HD
BRANCH  21  23
ATOM     23  C   UNL     1      -4.861  -3.073  -3.300  0.00  0.00    +0.034 A 
ATOM     24  C   UNL     1      -3.975  -3.016  -4.368  0.00  0.00    +0.023 A 
ATOM     25  C   UNL     1      -4.454  -2.859  -5.654  0.00  0.00    +0.003 A 
ATOM     26  C   UNL     1      -5.815  -2.760  -5.878  0.00  0.00    +0.014 A 
ATOM     27  C   UNL     1      -6.700  -2.816  -4.817  0.00  0.00    +0.015 A 
ATOM     28  C   UNL     1      -6.227  -2.978  -3.529  0.00  0.00    +0.037 A 
ATOM     29  I   UNL     1      -8.761  -2.663  -5.163  0.00  0.00    -0.044 I 
ENDBRANCH  21  23
ENDBRANCH  18  19
ENDBRANCH   1  18
TORSDOF 7
