REMARK  Name = ZINC22463905
REMARK  9 active torsions:
REMARK  status: ('A' for Active; 'I' for Inactive)
REMARK    1  A    between atoms: C_4  and  C_7
REMARK    2  A    between atoms: C_7  and  C_9
REMARK    3  A    between atoms: C_7  and  N_29
REMARK    4  A    between atoms: C_9  and  N_10
REMARK    5  A    between atoms: C_11  and  C_13
REMARK    6  A    between atoms: C_17  and  S_19
REMARK    7  A    between atoms: S_19  and  N_22
REMARK    8  A    between atoms: N_22  and  C_23
REMARK    9  A    between atoms: C_23  and  C_24
REMARK                            x       y       z     vdW  Elec       q    Type
REMARK                         _______ _______ _______ _____ _____    ______ ____
ROOT
ATOM      1  N   UNL     1      -4.561  -1.578  -5.154  0.00  0.00    -0.313 N 
ATOM      2  C   UNL     1      -3.689  -1.859  -4.165  0.00  0.00    +0.244 C 
ATOM      3  O   UNL     1      -3.015  -2.869  -4.218  0.00  0.00    -0.270 OA
ATOM      4  H   UNL     1      -5.170  -0.664  -5.106  0.00  0.00    +0.149 HD
ENDROOT
BRANCH   2   5
ATOM      5  C   UNL     1      -3.552  -0.938  -3.017  0.00  0.00    +0.039 A 
ATOM      6  C   UNL     1      -4.324   0.223  -2.953  0.00  0.00    +0.013 A 
ATOM      7  C   UNL     1      -4.192   1.078  -1.879  0.00  0.00    +0.003 A 
ATOM      8  C   UNL     1      -3.300   0.784  -0.863  0.00  0.00    +0.028 A 
ATOM      9  C   UNL     1      -2.527  -0.362  -0.922  0.00  0.00    +0.106 A 
ATOM     10  C   UNL     1      -2.650  -1.226  -1.991  0.00  0.00    +0.041 A 
BRANCH   9  11
ATOM     11  S   UNL     1      -1.389  -0.724   0.374  0.00  0.00    +0.059 S 
ATOM     12  O   UNL     1      -1.185  -2.130   0.354  0.00  0.00    -0.153 OA
ATOM     13  O   UNL     1      -1.856  -0.037   1.527  0.00  0.00    -0.153 OA
BRANCH  11  14
ATOM     14  N   UNL     1       0.057  -0.030  -0.037  0.00  0.00    -0.185 NA
ATOM     15  H   UNL     1       0.877  -0.669  -0.395  0.00  0.00    +0.148 HD
BRANCH  14  16
ATOM     16  C   UNL     1       0.170   1.428  -0.131  0.00  0.00    +0.148 C 
BRANCH  16  17
ATOM     17  C   UNL     1       1.625   1.819  -0.150  0.00  0.00    +0.005 A 
ATOM     18  C   UNL     1       2.456   1.966  -1.212  0.00  0.00    +0.012 A 
ATOM     19  C   UNL     1       3.768   2.340  -0.989  0.00  0.00    +0.008 A 
ATOM     20  C   UNL     1       4.188   2.538   0.284  0.00  0.00    +0.045 A 
ATOM     21  S   UNL     1       2.705   2.200   1.219  0.00  0.00    -0.100 S 
ENDBRANCH  16  17
ENDBRANCH  14  16
ENDBRANCH  11  14
ENDBRANCH   9  11
ENDBRANCH   2   5
BRANCH   1  22
ATOM     22  C   UNL     1      -4.696  -2.491  -6.292  0.00  0.00    +0.094 C 
BRANCH  22  23
ATOM     23  C   UNL     1      -5.825  -2.005  -7.203  0.00  0.00    -0.020 C 
BRANCH  23  27
ATOM     24  C   UNL     1      -4.748   1.755  -8.922  0.00  0.00    +0.000 A 
ATOM     25  C   UNL     1      -5.600   1.711  -7.834  0.00  0.00    +0.000 A 
ATOM     26  C   UNL     1      -5.948   0.494  -7.278  0.00  0.00    +0.002 A 
ATOM     27  C   UNL     1      -5.445  -0.679  -7.810  0.00  0.00    -0.059 A 
ATOM     28  C   UNL     1      -4.590  -0.634  -8.895  0.00  0.00    +0.002 A 
ATOM     29  C   UNL     1      -4.245   0.582  -9.454  0.00  0.00    +0.000 A 
ENDBRANCH  23  27
BRANCH  23  30
ATOM     30  N   UNL     1      -6.047  -2.987  -8.273  0.00  0.00    +0.385 N 
ATOM     31  C   UNL     1      -6.397  -4.316  -7.711  0.00  0.00    -0.078 C 
ATOM     32  C   UNL     1      -7.088  -5.033  -8.898  0.00  0.00    -0.020 C 
ATOM     33  C   UNL     1      -7.889  -3.893  -9.570  0.00  0.00    -0.020 C 
ATOM     34  C   UNL     1      -7.193  -2.595  -9.123  0.00  0.00    -0.078 C 
ATOM     35  H   UNL     1      -5.111  -3.019  -8.849  0.00  0.00    -0.081 HD
ENDBRANCH  23  30
ENDBRANCH  22  23
ENDBRANCH   1  22
TORSDOF 9
