REMARK  Name = ZINC16648140
REMARK  15 active torsions:
REMARK  status: ('A' for Active; 'I' for Inactive)
REMARK    1  A    between atoms: C_1  and  C_2
REMARK    2  A    between atoms: C_2  and  C_3
REMARK    3  A    between atoms: C_2  and  C_4
REMARK    4  A    between atoms: C_4  and  N_5
REMARK    5  A    between atoms: N_5  and  C_6
REMARK    6  A    between atoms: C_6  and  C_7
REMARK    7  A    between atoms: N_9  and  C_10
REMARK    8  A    between atoms: N_9  and  C_22
REMARK    9  A    between atoms: C_10  and  C_11
REMARK   10  A    between atoms: C_11  and  C_12
REMARK   11  A    between atoms: C_22  and  C_23
REMARK   12  A    between atoms: C_31  and  C_33
REMARK   13  A    between atoms: C_33  and  C_34
REMARK   14  A    between atoms: C_33  and  C_35
REMARK   15  A    between atoms: C_33  and  C_36
REMARK                            x       y       z     vdW  Elec       q    Type
REMARK                         _______ _______ _______ _____ _____    ______ ____
ROOT
ATOM      1  C   UNL     1      -4.604  -1.377  -1.495  0.00  0.00    +0.233 C 
ATOM      2  O   UNL     1      -4.558  -0.193  -1.757  0.00  0.00    -0.274 OA
ATOM      3  N   UNL     1      -3.479  -2.119  -1.532  0.00  0.00    -0.296 N 
ENDROOT
BRANCH   1   4
ATOM      4  C   UNL     1      -5.917  -2.018  -1.128  0.00  0.00    +0.203 C 
BRANCH   4   5
ATOM      5  N   UNL     1      -6.976  -1.006  -1.147  0.00  0.00    -0.292 N 
ATOM      6  C   UNL     1      -7.669  -0.776  -2.280  0.00  0.00    +0.221 C 
ATOM      7  O   UNL     1      -8.472   0.132  -2.326  0.00  0.00    -0.275 OA
BRANCH   6   8
ATOM      8  C   UNL     1      -7.446  -1.647  -3.489  0.00  0.00    +0.039 C 
ATOM      9  C   UNL     1      -8.264  -1.108  -4.664  0.00  0.00    +0.020 C 
ATOM     10  C   UNL     1      -5.960  -1.639  -3.856  0.00  0.00    +0.020 C 
ATOM     11  C   UNL     1      -7.886  -3.078  -3.175  0.00  0.00    +0.020 C 
ENDBRANCH   6   8
BRANCH   5  12
ATOM     12  C   UNL     1      -7.282  -0.243   0.066  0.00  0.00    +0.111 C 
BRANCH  12  14
ATOM     13  C   UNL     1      -6.578   1.905  -0.997  0.00  0.00    +0.009 C 
ATOM     14  C   UNL     1      -6.331   0.950   0.172  0.00  0.00    +0.000 C 
ATOM     15  C   UNL     1      -6.578   1.684   1.492  0.00  0.00    +0.009 C 
ENDBRANCH  12  14
ENDBRANCH   5  12
ENDBRANCH   4   5
ENDBRANCH   1   4
BRANCH   3  16
ATOM     16  C   UNL     1      -2.227  -1.528  -2.011  0.00  0.00    +0.113 C 
BRANCH  16  17
ATOM     17  C   UNL     1      -1.473  -0.907  -0.833  0.00  0.00    +0.056 C 
BRANCH  17  18
ATOM     18  C   UNL     1      -0.185  -0.299  -1.325  0.00  0.00    -0.021 A 
ATOM     19  C   UNL     1       1.024  -0.884  -1.329  0.00  0.00    +0.087 A 
ATOM     20  N   UNL     1       1.955  -0.026  -1.850  0.00  0.00    -0.360 N 
ATOM     21  H   UNL     1       2.898  -0.225  -1.954  0.00  0.00    +0.165 HD
ATOM     22  C   UNL     1       1.353   1.161  -2.202  0.00  0.00    +0.047 A 
ATOM     23  C   UNL     1      -0.014   1.042  -1.889  0.00  0.00    +0.003 A 
ATOM     24  C   UNL     1      -0.880   2.108  -2.137  0.00  0.00    +0.010 A 
ATOM     25  C   UNL     1      -0.398   3.260  -2.691  0.00  0.00    +0.001 A 
ATOM     26  C   UNL     1       0.949   3.382  -3.002  0.00  0.00    +0.002 A 
ATOM     27  C   UNL     1       1.823   2.344  -2.762  0.00  0.00    +0.026 A 
ENDBRANCH  17  18
ENDBRANCH  16  17
ENDBRANCH   3  16
BRANCH   3  28
ATOM     28  C   UNL     1      -3.509  -3.517  -1.095  0.00  0.00    +0.143 C 
BRANCH  28  29
ATOM     29  C   UNL     1      -3.155  -3.592   0.368  0.00  0.00    -0.029 A 
ATOM     30  C   UNL     1      -1.846  -3.822   0.751  0.00  0.00    +0.007 A 
ATOM     31  C   UNL     1      -1.519  -3.886   2.093  0.00  0.00    +0.022 A 
ATOM     32  C   UNL     1      -2.503  -3.732   3.053  0.00  0.00    +0.059 A 
ATOM     33  C   UNL     1      -3.814  -3.507   2.669  0.00  0.00    +0.060 A 
ATOM     34  C   UNL     1      -4.139  -3.438   1.326  0.00  0.00    +0.026 A 
ATOM     35 CL   UNL     1      -5.050  -3.312   3.872  0.00  0.00    -0.082 Cl
ATOM     36 CL   UNL     1      -2.094  -3.818   4.738  0.00  0.00    -0.082 Cl
ENDBRANCH  28  29
ENDBRANCH   3  28
TORSDOF 10
