REMARK  Name = ZINC36042400
REMARK  8 active torsions:
REMARK  status: ('A' for Active; 'I' for Inactive)
REMARK    1  A    between atoms: C_1  and  C_2
REMARK    2  A    between atoms: C_2  and  C_3
REMARK    3  A    between atoms: C_3  and  N_4
REMARK    4  A    between atoms: C_11  and  C_23
REMARK    5  A    between atoms: C_13  and  C_21
REMARK    6  A    between atoms: C_14  and  N_20
REMARK    7  A    between atoms: C_15  and  C_16
REMARK    8  A    between atoms: C_15  and  C_18
REMARK                            x       y       z     vdW  Elec       q    Type
REMARK                         _______ _______ _______ _____ _____    ______ ____
ROOT
ATOM      1  N   UNL     1       0.762  -1.980   1.234  0.00  0.00    -0.298 NA
ATOM      2  C   UNL     1       1.590  -2.490   0.129  0.00  0.00    +0.111 C 
ATOM      3  C   UNL     1       1.495  -3.992   0.126  0.00  0.00    -0.009 C 
ATOM      4  C   UNL     1       1.278  -4.663   1.220  0.00  0.00    -0.028 C 
ATOM      5  C   UNL     1       1.125  -4.021   2.573  0.00  0.00    +0.044 C 
ATOM      6  C   UNL     1       1.249  -2.505   2.511  0.00  0.00    +0.093 C 
ATOM      7  C   UNL     1       2.216  -4.576   3.496  0.00  0.00    +0.069 C 
ATOM      8  C   UNL     1       2.327  -6.063   3.361  0.00  0.00    +0.057 C 
ATOM      9  C   UNL     1       1.885  -6.773   2.326  0.00  0.00    +0.054 C 
ATOM     10  C   UNL     1       1.167  -6.174   1.150  0.00  0.00    +0.202 C 
ENDROOT
BRANCH   7  11
ATOM     11  C   UNL     1       3.537  -3.948   3.134  0.00  0.00    -0.038 A 
ATOM     12  C   UNL     1       4.052  -4.105   1.861  0.00  0.00    +0.004 A 
ATOM     13  C   UNL     1       5.264  -3.529   1.528  0.00  0.00    +0.001 A 
ATOM     14  C   UNL     1       5.962  -2.795   2.469  0.00  0.00    +0.015 A 
ATOM     15  C   UNL     1       5.447  -2.637   3.743  0.00  0.00    +0.018 A 
ATOM     16  C   UNL     1       4.231  -3.209   4.074  0.00  0.00    +0.019 A 
ATOM     17 BR   UNL     1       6.401  -1.633   5.031  0.00  0.00    -0.050 Br
ENDBRANCH   7  11
BRANCH   9  18
ATOM     18  N   UNL     1       2.097  -8.127   2.333  0.00  0.00    -0.358 N 
ATOM     19  H   UNL     1       2.558  -8.542   3.079  0.00  0.00    +0.142 HD
ATOM     20  H   UNL     1       1.786  -8.670   1.592  0.00  0.00    +0.142 HD
ENDBRANCH   9  18
BRANCH  10  21
ATOM     21  C   UNL     1       1.779  -6.655  -0.099  0.00  0.00    +0.095 C 
ATOM     22  N   UNL     1       2.251  -7.027  -1.062  0.00  0.00    -0.194 NA
ENDBRANCH  10  21
BRANCH  10  23
ATOM     23  C   UNL     1      -0.252  -6.565   1.188  0.00  0.00    +0.095 C 
ATOM     24  N   UNL     1      -1.347  -6.867   1.218  0.00  0.00    -0.194 NA
ENDBRANCH  10  23
BRANCH   8  25
ATOM     25  C   UNL     1       2.958  -6.777   4.430  0.00  0.00    +0.097 C 
ATOM     26  N   UNL     1       3.459  -7.343   5.278  0.00  0.00    -0.191 NA
ENDBRANCH   8  25
BRANCH   1  27
ATOM     27  C   UNL     1       0.742  -0.511   1.242  0.00  0.00    +0.084 C 
BRANCH  27  29
ATOM     28  C   UNL     1      -0.019   1.526   0.010  0.00  0.00    +0.005 C 
ATOM     29  C   UNL     1       0.002  -0.004   0.002  0.00  0.00    +0.012 C 
ENDBRANCH  27  29
ENDBRANCH   1  27
TORSDOF 7
