REMARK  Name = ZINC02435895
REMARK  7 active torsions:
REMARK  status: ('A' for Active; 'I' for Inactive)
REMARK    1  A    between atoms: C_1  and  C_2
REMARK    2  A    between atoms: C_2  and  C_3
REMARK    3  A    between atoms: C_3  and  S_4
REMARK    4  A    between atoms: S_4  and  C_5
REMARK    5  A    between atoms: C_16  and  C_18
REMARK    6  A    between atoms: C_16  and  C_19
REMARK    7  A    between atoms: C_19  and  C_20
REMARK                            x       y       z     vdW  Elec       q    Type
REMARK                         _______ _______ _______ _____ _____    ______ ____
ROOT
ATOM      1  C   UNL     1      -0.886   0.345  -7.616  0.00  0.00    +0.191 A 
ATOM      2  N   UNL     1      -0.285  -0.435  -6.728  0.00  0.00    -0.206 NA
ATOM      3  C   UNL     1      -0.049  -0.079  -5.469  0.00  0.00    +0.134 A 
ATOM      4  C   UNL     1      -0.484   1.226  -5.095  0.00  0.00    +0.051 A 
ATOM      5  C   UNL     1      -0.352   1.858  -3.795  0.00  0.00    -0.020 A 
ATOM      6  C   UNL     1      -0.843   3.114  -3.674  0.00  0.00    +0.021 A 
ATOM      7  S   UNL     1      -1.500   3.514  -5.271  0.00  0.00    -0.071 S 
ATOM      8  C   UNL     1      -1.118   2.003  -6.099  0.00  0.00    +0.115 A 
ATOM      9  N   UNL     1      -1.316   1.575  -7.330  0.00  0.00    -0.215 NA
ATOM     10  C   UNL     1      -0.819   3.959  -2.439  0.00  0.00    +0.203 C 
ATOM     11  O   UNL     1       0.082   3.349  -1.501  0.00  0.00    -0.368 OA
ATOM     12  C   UNL     1      -0.139   1.946  -1.329  0.00  0.00    +0.071 C 
ATOM     13  C   UNL     1       0.297   1.188  -2.586  0.00  0.00    +0.071 C 
ATOM     14  C   UNL     1      -1.626   1.694  -1.078  0.00  0.00    +0.042 C 
ATOM     15  N   UNL     1       0.581  -0.925  -4.574  0.00  0.00    -0.318 N 
ATOM     16  C   UNL     1      -0.174  -2.174  -4.410  0.00  0.00    +0.087 C 
ATOM     17  C   UNL     1       0.511  -3.047  -3.356  0.00  0.00    -0.063 C 
ATOM     18  C   UNL     1       2.648  -2.072  -3.939  0.00  0.00    -0.063 C 
ATOM     19  C   UNL     1       1.963  -1.200  -4.993  0.00  0.00    +0.087 C 
ATOM     20  N   UNL     1       1.897  -3.331  -3.776  0.00  0.00    +0.381 N 
ATOM     21  H   UNL     1       1.883  -3.836  -4.670  0.00  0.00    -0.086 HD
ATOM     22  H   UNL     1       2.355  -3.910  -3.063  0.00  0.00    -0.086 HD
ENDROOT
BRANCH  12  23
ATOM     23  C   UNL     1       0.670   1.449  -0.130  0.00  0.00    +0.032 C 
ATOM     24  C   UNL     1       0.142   2.102   1.148  0.00  0.00    +0.007 C 
ENDBRANCH  12  23
BRANCH   1  25
ATOM     25  S   UNL     1      -1.127  -0.272  -9.249  0.00  0.00    -0.086 S 
BRANCH  25  26
ATOM     26  C   UNL     1      -1.956   1.150 -10.002  0.00  0.00    +0.077 C 
BRANCH  26  28
ATOM     27  C   UNL     1      -2.975   2.039 -12.103  0.00  0.00    +0.004 C 
ATOM     28  C   UNL     1      -2.274   0.838 -11.466  0.00  0.00    +0.008 C 
ENDBRANCH  26  28
ENDBRANCH  25  26
ENDBRANCH   1  25
TORSDOF 4
