REMARK  Name = ZINC09615482
REMARK  9 active torsions:
REMARK  status: ('A' for Active; 'I' for Inactive)
REMARK    1  A    between atoms: C_1  and  C_2
REMARK    2  A    between atoms: C_7  and  S_15
REMARK    3  A    between atoms: S_15  and  C_16
REMARK    4  A    between atoms: C_16  and  C_17
REMARK    5  A    between atoms: N_19  and  C_20
REMARK    6  A    between atoms: C_20  and  C_21
REMARK    7  A    between atoms: C_21  and  C_22
REMARK    8  A    between atoms: C_25  and  S_28
REMARK    9  A    between atoms: S_28  and  N_31
REMARK                            x       y       z     vdW  Elec       q    Type
REMARK                         _______ _______ _______ _____ _____    ______ ____
ROOT
ATOM      1  C   UNL     1       0.585  -0.664  -1.018  0.00  0.00    +0.223 C 
ATOM      2  O   UNL     1       1.093  -0.046  -1.929  0.00  0.00    -0.275 OA
ATOM      3  N   UNL     1       0.002  -0.004   0.002  0.00  0.00    -0.314 N 
ATOM      4  H   UNL     1      -0.404  -0.499   0.731  0.00  0.00    +0.149 HD
ENDROOT
BRANCH   1   5
ATOM      5  C   UNL     1       0.606  -2.171  -1.026  0.00  0.00    +0.173 C 
BRANCH   5   6
ATOM      6  S   UNL     1       1.453  -2.755  -2.515  0.00  0.00    -0.076 S 
BRANCH   6  13
ATOM      7  C   UNL     1       2.876  -9.211  -4.957  0.00  0.00    +0.044 C 
ATOM      8  C   UNL     1       2.501  -7.904  -4.307  0.00  0.00    -0.038 A 
ATOM      9  C   UNL     1       1.849  -7.892  -3.122  0.00  0.00    +0.052 A 
ATOM     10  C   UNL     1       1.492  -6.665  -2.514  0.00  0.00    +0.162 A 
ATOM     11  N   UNL     1       0.856  -6.380  -1.393  0.00  0.00    -0.129 NA
ATOM     12  N   UNL     1       0.765  -5.105  -1.255  0.00  0.00    -0.122 NA
ATOM     13  C   UNL     1       1.334  -4.496  -2.272  0.00  0.00    +0.197 A 
ATOM     14  N   UNL     1       1.809  -5.464  -3.108  0.00  0.00    -0.270 N 
ATOM     15  C   UNL     1       2.483  -5.426  -4.316  0.00  0.00    +0.058 A 
ATOM     16  C   UNL     1       2.846  -6.630  -4.946  0.00  0.00    +0.002 A 
ATOM     17  C   UNL     1       3.526  -6.599  -6.166  0.00  0.00    +0.010 A 
ATOM     18  C   UNL     1       3.837  -5.388  -6.743  0.00  0.00    +0.001 A 
ATOM     19  C   UNL     1       3.478  -4.202  -6.120  0.00  0.00    +0.002 A 
ATOM     20  C   UNL     1       2.806  -4.216  -4.915  0.00  0.00    +0.027 A 
ENDBRANCH   6  13
ENDBRANCH   5   6
ENDBRANCH   1   5
BRANCH   3  21
ATOM     21  C   UNL     1      -0.018   1.461   0.010  0.00  0.00    +0.109 C 
BRANCH  21  22
ATOM     22  C   UNL     1      -0.734   1.954   1.269  0.00  0.00    +0.054 C 
BRANCH  22  23
ATOM     23  C   UNL     1      -0.754   3.461   1.277  0.00  0.00    -0.046 A 
ATOM     24  C   UNL     1       0.276   4.163   1.875  0.00  0.00    +0.005 A 
ATOM     25  C   UNL     1       0.259   5.545   1.878  0.00  0.00    +0.029 A 
ATOM     26  C   UNL     1      -0.792   6.225   1.293  0.00  0.00    +0.105 A 
ATOM     27  C   UNL     1      -1.825   5.523   0.700  0.00  0.00    +0.029 A 
ATOM     28  C   UNL     1      -1.806   4.141   0.692  0.00  0.00    +0.005 A 
BRANCH  26  29
ATOM     29  S   UNL     1      -0.815   7.987   1.301  0.00  0.00    +0.056 S 
ATOM     30  O   UNL     1       0.534   8.411   1.437  0.00  0.00    -0.153 OA
ATOM     31  O   UNL     1      -1.633   8.388   0.211  0.00  0.00    -0.153 OA
BRANCH  29  32
ATOM     32  N   UNL     1      -1.601   8.460   2.681  0.00  0.00    -0.204 NA
ATOM     33  H   UNL     1      -1.368   9.299   3.107  0.00  0.00    +0.144 HD
ATOM     34  H   UNL     1      -2.293   7.897   3.062  0.00  0.00    +0.144 HD
ENDBRANCH  29  32
ENDBRANCH  26  29
ENDBRANCH  22  23
ENDBRANCH  21  22
ENDBRANCH   3  21
TORSDOF 8
