REMARK  Name = ZINC20833289
REMARK  9 active torsions:
REMARK  status: ('A' for Active; 'I' for Inactive)
REMARK    1  A    between atoms: C_5  and  C_7
REMARK    2  A    between atoms: N_8  and  N_9
REMARK    3  A    between atoms: C_12  and  S_15
REMARK    4  A    between atoms: S_15  and  C_16
REMARK    5  A    between atoms: C_16  and  C_17
REMARK    6  A    between atoms: C_17  and  C_18
REMARK    7  A    between atoms: N_20  and  C_21
REMARK    8  A    between atoms: C_24  and  O_27
REMARK    9  A    between atoms: O_27  and  C_28
REMARK                            x       y       z     vdW  Elec       q    Type
REMARK                         _______ _______ _______ _____ _____    ______ ____
ROOT
ATOM      1  S   UNL     1      -0.883   1.698  -1.462  0.00  0.00    -0.084 S 
ENDROOT
BRANCH   1   5
ATOM      2  N   UNL     1       0.814   0.518  -6.242  0.00  0.00    -0.205 N 
ATOM      3  C   UNL     1       0.732   0.574  -4.858  0.00  0.00    +0.232 A 
ATOM      4  N   UNL     1      -0.220   1.238  -4.135  0.00  0.00    -0.186 NA
ATOM      5  C   UNL     1       0.048   1.049  -2.809  0.00  0.00    +0.210 A 
ATOM      6  N   UNL     1       1.125   0.305  -2.715  0.00  0.00    -0.144 NA
ATOM      7  N   UNL     1       1.554  -0.000  -4.013  0.00  0.00    -0.245 N 
ATOM      8  H   UNL     1       0.067   1.039  -6.858  0.00  0.00    +0.177 HD
ATOM      9  H   UNL     1       2.400  -0.595  -4.388  0.00  0.00    +0.192 HD
BRANCH   2  11
ATOM     10  C   UNL     1       1.924  -0.255  -8.149  0.00  0.00    +0.141 C 
ATOM     11  N   UNL     1       1.848  -0.203  -6.854  0.00  0.00    -0.187 NA
BRANCH  10  16
ATOM     12  C   UNL     1       4.117  -1.785 -10.782  0.00  0.00    +0.001 A 
ATOM     13  C   UNL     1       5.056  -2.440 -10.004  0.00  0.00    +0.003 A 
ATOM     14  C   UNL     1       4.980  -2.387  -8.624  0.00  0.00    +0.039 A 
ATOM     15  C   UNL     1       3.964  -1.678  -8.012  0.00  0.00    +0.132 A 
ATOM     16  C   UNL     1       3.012  -1.014  -8.793  0.00  0.00    +0.030 A 
ATOM     17  C   UNL     1       3.094  -1.077 -10.186  0.00  0.00    +0.012 A 
ATOM     18  F   UNL     1       3.890  -1.627  -6.664  0.00  0.00    -0.205 F 
ENDBRANCH  10  16
ENDBRANCH   2  11
ENDBRANCH   1   5
BRANCH   1  19
ATOM     19  C   UNL     1      -0.011   1.088   0.008  0.00  0.00    +0.086 C 
BRANCH  19  20
ATOM     20  C   UNL     1      -0.725   1.585   1.267  0.00  0.00    +0.107 C 
BRANCH  20  21
ATOM     21  C   UNL     1      -0.001   1.079   2.488  0.00  0.00    +0.218 C 
ATOM     22  O   UNL     1       0.988   0.388   2.363  0.00  0.00    -0.275 OA
ATOM     23  N   UNL     1      -0.453   1.393   3.718  0.00  0.00    -0.285 N 
ATOM     24  H   UNL     1      -1.304   2.080   3.832  0.00  0.00    +0.155 HD
BRANCH  23  25
ATOM     25  C   UNL     1       0.161   0.844   4.851  0.00  0.00    +0.034 A 
ATOM     26  C   UNL     1      -0.599   0.528   5.969  0.00  0.00    +0.027 A 
ATOM     27  C   UNL     1       0.006  -0.017   7.084  0.00  0.00    +0.048 A 
ATOM     28  C   UNL     1       1.375  -0.240   7.091  0.00  0.00    +0.130 A 
ATOM     29  C   UNL     1       2.136   0.080   5.976  0.00  0.00    +0.048 A 
ATOM     30  C   UNL     1       1.532   0.620   4.859  0.00  0.00    +0.027 A 
BRANCH  28  31
ATOM     31  O   UNL     1       1.972  -0.772   8.191  0.00  0.00    -0.406 OA
BRANCH  31  32
ATOM     32  C   UNL     1       1.127  -1.077   9.303  0.00  0.00    +0.575 C 
ATOM     33  F   UNL     1       0.160  -2.009   8.912  0.00  0.00    -0.133 F 
ATOM     34  F   UNL     1       1.898  -1.613  10.341  0.00  0.00    -0.133 F 
ATOM     35  F   UNL     1       0.498   0.091   9.745  0.00  0.00    -0.133 F 
ENDBRANCH  31  32
ENDBRANCH  28  31
ENDBRANCH  23  25
ENDBRANCH  20  21
ENDBRANCH  19  20
ENDBRANCH   1  19
TORSDOF 9
