REMARK  Name = ZINC02618779
REMARK  12 active torsions:
REMARK  status: ('A' for Active; 'I' for Inactive)
REMARK    1  A    between atoms: C_1  and  C_2
REMARK    2  A    between atoms: C_2  and  C_4
REMARK    3  A    between atoms: C_2  and  N_60
REMARK    4  A    between atoms: C_7  and  S_16
REMARK    5  A    between atoms: N_8  and  C_9
REMARK    6  A    between atoms: S_16  and  C_17
REMARK    7  A    between atoms: C_17  and  C_18
REMARK    8  A    between atoms: C_23  and  C_26
REMARK    9  A    between atoms: C_29  and  O_32
REMARK   10  A    between atoms: O_32  and  C_33
REMARK   11  A    between atoms: C_34  and  N_60
REMARK   12  A    between atoms: C_35  and  N_60
REMARK                            x       y       z     vdW  Elec       q    Type
REMARK                         _______ _______ _______ _____ _____    ______ ____
ROOT
ATOM      1  S   UNL     1      -2.014   5.610   5.729  0.00  0.00    -0.076 S 
ENDROOT
BRANCH   1   5
ATOM      2  C   UNL     1      -1.451   3.475   2.510  0.00  0.00    +0.125 A 
ATOM      3  N   UNL     1      -2.567   2.993   2.978  0.00  0.00    -0.135 NA
ATOM      4  N   UNL     1      -2.891   3.601   4.063  0.00  0.00    -0.122 NA
ATOM      5  C   UNL     1      -1.996   4.519   4.345  0.00  0.00    +0.197 A 
ATOM      6  N   UNL     1      -1.047   4.468   3.362  0.00  0.00    -0.275 N 
BRANCH   6   7
ATOM      7  C   UNL     1       0.102   5.267   3.250  0.00  0.00    +0.050 A 
ATOM      8  C   UNL     1       1.361   4.692   3.353  0.00  0.00    +0.029 A 
ATOM      9  C   UNL     1       2.490   5.479   3.237  0.00  0.00    +0.040 A 
ATOM     10  C   UNL     1       2.366   6.842   3.028  0.00  0.00    +0.124 A 
ATOM     11  C   UNL     1       1.111   7.418   2.929  0.00  0.00    +0.040 A 
ATOM     12  C   UNL     1      -0.020   6.634   3.040  0.00  0.00    +0.029 A 
ATOM     13  F   UNL     1       3.472   7.611   2.920  0.00  0.00    -0.205 F 
ENDBRANCH   6   7
BRANCH   2  15
ATOM     14  C   UNL     1      -1.486   3.553   0.032  0.00  0.00    -0.005 C 
ATOM     15  C   UNL     1      -0.740   3.027   1.259  0.00  0.00    -0.003 C 
BRANCH  15  18
ATOM     16  C   UNL     1      -0.013   1.086   0.008  0.00  0.00    -0.096 C 
ATOM     17  C   UNL     1      -0.072   1.015   2.428  0.00  0.00    -0.096 C 
ATOM     18  N   UNL     1      -0.727   1.550   1.216  0.00  0.00    +0.382 N 
ATOM     19  H   UNL     1      -1.695   1.209   1.182  0.00  0.00    -0.082 HD
ENDBRANCH  15  18
ENDBRANCH   2  15
ENDBRANCH   1   5
BRANCH   1  20
ATOM     20  C   UNL     1      -3.543   5.071   6.534  0.00  0.00    +0.173 C 
BRANCH  20  21
ATOM     21  C   UNL     1      -3.770   5.889   7.779  0.00  0.00    +0.229 C 
ATOM     22  O   UNL     1      -2.976   6.751   8.092  0.00  0.00    -0.275 OA
ATOM     23  N   UNL     1      -4.855   5.662   8.546  0.00  0.00    -0.264 N 
ATOM     24  C   UNL     1      -5.065   6.416   9.694  0.00  0.00    +0.165 A 
ATOM     25  N   UNL     1      -6.052   6.351  10.568  0.00  0.00    -0.225 NA
ATOM     26  C   UNL     1      -6.095   7.156  11.619  0.00  0.00    +0.080 A 
ATOM     27  C   UNL     1      -5.098   8.073  11.802  0.00  0.00    +0.076 A 
ATOM     28  S   UNL     1      -4.065   7.728  10.384  0.00  0.00    -0.060 S 
ATOM     29  H   UNL     1      -5.490   4.972   8.296  0.00  0.00    +0.157 HD
BRANCH  26  30
ATOM     30  C   UNL     1      -7.214   7.063  12.588  0.00  0.00    +0.001 A 
ATOM     31  C   UNL     1      -7.251   7.909  13.695  0.00  0.00    +0.013 A 
ATOM     32  C   UNL     1      -8.296   7.824  14.591  0.00  0.00    +0.046 A 
ATOM     33  C   UNL     1      -9.305   6.890  14.397  0.00  0.00    +0.120 A 
ATOM     34  C   UNL     1      -9.268   6.043  13.298  0.00  0.00    +0.046 A 
ATOM     35  C   UNL     1      -8.229   6.127  12.395  0.00  0.00    +0.013 A 
BRANCH  33  36
ATOM     36  O   UNL     1     -10.330   6.804  15.286  0.00  0.00    -0.495 OA
ATOM     37  C   UNL     1     -10.305   7.706  16.394  0.00  0.00    +0.277 C 
ENDBRANCH  33  36
ENDBRANCH  26  30
ENDBRANCH  20  21
ENDBRANCH   1  20
TORSDOF 8
