REMARK  Name = ZINC08425775
REMARK  8 active torsions:
REMARK  status: ('A' for Active; 'I' for Inactive)
REMARK    1  A    between atoms: C_1  and  C_2
REMARK    2  A    between atoms: C_3  and  C_14
REMARK    3  A    between atoms: C_4  and  O_13
REMARK    4  A    between atoms: N_5  and  C_7
REMARK    5  A    between atoms: C_14  and  C_15
REMARK    6  A    between atoms: C_14  and  C_24
REMARK    7  A    between atoms: C_25  and  C_36
REMARK    8  A    between atoms: N_27  and  C_30
REMARK                            x       y       z     vdW  Elec       q    Type
REMARK                         _______ _______ _______ _____ _____    ______ ____
ROOT
ATOM      1  C   UNL     1      -0.284  -0.327  -2.471  0.00  0.00    +0.093 C 
ENDROOT
BRANCH   1   2
ATOM      2  C   UNL     1      -1.532  -0.858  -3.127  0.00  0.00    -0.031 A 
ATOM      3  C   UNL     1      -1.735  -2.223  -3.222  0.00  0.00    +0.008 A 
ATOM      4  C   UNL     1      -2.879  -2.715  -3.822  0.00  0.00    +0.050 A 
ATOM      5  C   UNL     1      -3.826  -1.840  -4.330  0.00  0.00    +0.166 A 
ATOM      6  C   UNL     1      -3.622  -0.466  -4.234  0.00  0.00    +0.167 A 
ATOM      7  C   UNL     1      -2.476   0.020  -3.627  0.00  0.00    +0.054 A 
ATOM      8  O   UNL     1      -4.686   0.173  -4.803  0.00  0.00    -0.453 OA
ATOM      9  C   UNL     1      -5.346  -0.820  -5.609  0.00  0.00    +0.466 C 
ATOM     10  O   UNL     1      -5.017  -2.062  -4.958  0.00  0.00    -0.453 OA
ENDBRANCH   1   2
BRANCH   1  11
ATOM     11  C   UNL     1       0.911  -0.650  -3.331  0.00  0.00    +0.051 A 
ATOM     12  C   UNL     1       1.675   0.243  -3.993  0.00  0.00    +0.039 A 
ATOM     13  N   UNL     1       2.656  -0.436  -4.657  0.00  0.00    -0.294 N 
ATOM     14  N   UNL     1       2.495  -1.803  -4.396  0.00  0.00    -0.219 N 
ATOM     15  C   UNL     1       1.431  -1.942  -3.579  0.00  0.00    +0.276 A 
ATOM     16  O   UNL     1       0.995  -2.989  -3.137  0.00  0.00    -0.266 OA
ATOM     17  C   UNL     1       1.477   1.737  -4.000  0.00  0.00    +0.065 C 
ATOM     18  H   UNL     1       3.346  -0.040  -5.212  0.00  0.00    +0.187 HD
BRANCH  14  19
ATOM     19  C   UNL     1       3.297  -2.838  -4.888  0.00  0.00    +0.067 A 
ATOM     20  C   UNL     1       3.018  -4.156  -4.552  0.00  0.00    +0.028 A 
ATOM     21  C   UNL     1       3.812  -5.175  -5.040  0.00  0.00    +0.002 A 
ATOM     22  C   UNL     1       4.884  -4.884  -5.863  0.00  0.00    +0.000 A 
ATOM     23  C   UNL     1       5.165  -3.573  -6.200  0.00  0.00    +0.002 A 
ATOM     24  C   UNL     1       4.372  -2.549  -5.720  0.00  0.00    +0.028 A 
ENDBRANCH  14  19
ENDBRANCH   1  11
BRANCH   1  27
ATOM     25  C   UNL     1       2.454  -0.737  -0.933  0.00  0.00    +0.068 C 
ATOM     26  C   UNL     1       1.092  -1.149  -0.436  0.00  0.00    +0.068 A 
ATOM     27  C   UNL     1      -0.116  -0.967  -1.117  0.00  0.00    +0.048 A 
ATOM     28  C   UNL     1      -1.113  -1.470  -0.341  0.00  0.00    +0.220 A 
ATOM     29  N   UNL     1      -0.542  -1.953   0.795  0.00  0.00    -0.200 N 
ATOM     30  N   UNL     1       0.840  -1.742   0.703  0.00  0.00    -0.168 NA
BRANCH  29  31
ATOM     31  C   UNL     1      -1.215  -2.558   1.865  0.00  0.00    +0.069 A 
ATOM     32  C   UNL     1      -2.485  -2.124   2.223  0.00  0.00    +0.028 A 
ATOM     33  C   UNL     1      -3.146  -2.722   3.278  0.00  0.00    +0.002 A 
ATOM     34  C   UNL     1      -2.545  -3.753   3.977  0.00  0.00    +0.000 A 
ATOM     35  C   UNL     1      -1.281  -4.187   3.623  0.00  0.00    +0.002 A 
ATOM     36  C   UNL     1      -0.617  -3.597   2.566  0.00  0.00    +0.028 A 
ENDBRANCH  29  31
BRANCH  28  37
ATOM     37  O   UNL     1      -2.436  -1.486  -0.644  0.00  0.00    -0.492 OA
ATOM     38  H   UNL     1      -2.740  -2.317  -1.035  0.00  0.00    +0.294 HD
ENDBRANCH  28  37
ENDBRANCH   1  27
TORSDOF 6
