REMARK  Name = ZINC32916068
REMARK  10 active torsions:
REMARK  status: ('A' for Active; 'I' for Inactive)
REMARK    1  A    between atoms: C_1  and  C_2
REMARK    2  A    between atoms: C_2  and  C_4
REMARK    3  A    between atoms: C_2  and  N_15
REMARK    4  A    between atoms: C_8  and  N_10
REMARK    5  A    between atoms: N_10  and  S_11
REMARK    6  A    between atoms: S_11  and  C_14
REMARK    7  A    between atoms: C_16  and  C_18
REMARK    8  A    between atoms: C_18  and  S_19
REMARK    9  A    between atoms: S_19  and  C_20
REMARK   10  A    between atoms: C_20  and  C_21
REMARK                            x       y       z     vdW  Elec       q    Type
REMARK                         _______ _______ _______ _____ _____    ______ ____
ROOT
ATOM      1  N   UNL     1       0.688  -0.476  -1.203  0.00  0.00    -0.308 N 
ATOM      2  C   UNL     1       0.006  -0.608  -2.358  0.00  0.00    +0.223 C 
ATOM      3  O   UNL     1      -1.175  -0.336  -2.400  0.00  0.00    -0.275 OA
ATOM      4  H   UNL     1       1.632  -0.695  -1.170  0.00  0.00    +0.149 HD
ENDROOT
BRANCH   1   6
ATOM      5  C   UNL     1      -0.019   1.526   0.010  0.00  0.00    +0.033 C 
ATOM      6  C   UNL     1       0.002  -0.004   0.002  0.00  0.00    +0.100 C 
BRANCH   6   7
ATOM      7  C   UNL     1       0.731  -0.503   1.223  0.00  0.00    -0.026 A 
ATOM      8  C   UNL     1       2.114  -0.513   1.246  0.00  0.00    +0.005 A 
ATOM      9  C   UNL     1       2.787  -0.971   2.364  0.00  0.00    +0.002 A 
ATOM     10  C   UNL     1       2.079  -1.419   3.462  0.00  0.00    +0.024 A 
ATOM     11  C   UNL     1       0.690  -1.410   3.443  0.00  0.00    +0.048 A 
ATOM     12  C   UNL     1       0.018  -0.945   2.320  0.00  0.00    +0.030 A 
BRANCH  11  13
ATOM     13  N   UNL     1      -0.028  -1.863   4.551  0.00  0.00    -0.221 N 
ATOM     14  H   UNL     1      -0.788  -2.454   4.429  0.00  0.00    +0.173 HD
BRANCH  13  15
ATOM     15  S   UNL     1       0.416  -1.391   6.075  0.00  0.00    +0.040 S 
ATOM     16  O   UNL     1      -0.501  -2.047   6.940  0.00  0.00    -0.155 OA
ATOM     17  O   UNL     1       1.808  -1.668   6.149  0.00  0.00    -0.155 OA
ATOM     18  C   UNL     1       0.134   0.401   6.109  0.00  0.00    +0.218 C 
ENDBRANCH  13  15
ENDBRANCH  11  13
ENDBRANCH   6   7
ENDBRANCH   1   6
BRANCH   2  19
ATOM     19  C   UNL     1       0.712  -1.094  -3.598  0.00  0.00    +0.165 C 
BRANCH  19  20
ATOM     20  S   UNL     1      -0.466  -1.164  -4.976  0.00  0.00    -0.144 S 
BRANCH  20  21
ATOM     21  C   UNL     1       0.527  -1.759  -6.373  0.00  0.00    +0.143 C 
BRANCH  21  22
ATOM     22  C   UNL     1      -0.343  -1.863  -7.599  0.00  0.00    +0.121 A 
ATOM     23  N   UNL     1       0.200  -2.297  -8.766  0.00  0.00    -0.310 N 
ATOM     24  H   UNL     1       1.140  -2.535  -8.793  0.00  0.00    +0.170 HD
ATOM     25  C   UNL     1      -0.541  -2.405  -9.885  0.00  0.00    +0.260 A 
ATOM     26  O   UNL     1      -0.041  -2.797 -10.925  0.00  0.00    -0.267 OA
ATOM     27  C   UNL     1      -1.929  -2.052  -9.830  0.00  0.00    +0.075 A 
ATOM     28  C   UNL     1      -2.918  -2.092 -10.917  0.00  0.00    -0.023 A 
ATOM     29  C   UNL     1      -4.170  -1.706 -10.614  0.00  0.00    -0.004 A 
ATOM     30  S   UNL     1      -4.113  -1.277  -8.889  0.00  0.00    -0.073 S 
ATOM     31  C   UNL     1      -2.399  -1.616  -8.585  0.00  0.00    +0.116 A 
ATOM     32  N   UNL     1      -1.606  -1.540  -7.519  0.00  0.00    -0.226 NA
ATOM     33  C   UNL     1      -5.091  -1.783 -11.801  0.00  0.00    +0.043 C 
ATOM     34  C   UNL     1      -4.147  -1.865 -13.021  0.00  0.00    +0.010 C 
ATOM     35  C   UNL     1      -2.883  -2.488 -12.396  0.00  0.00    +0.037 C 
ENDBRANCH  21  22
ENDBRANCH  20  21
ENDBRANCH  19  20
ENDBRANCH   2  19
TORSDOF 8
