REMARK  Name = ZINC02604116
REMARK  3 active torsions:
REMARK  status: ('A' for Active; 'I' for Inactive)
REMARK    1  A    between atoms: C_4  and  C_7
REMARK    2  A    between atoms: C_8  and  C_17
REMARK    3  A    between atoms: N_24  and  C_27
REMARK                            x       y       z     vdW  Elec       q    Type
REMARK                         _______ _______ _______ _____ _____    ______ ____
ROOT
ATOM      1  C   UNL     1      -0.655   6.352   0.041  0.00  0.00    +0.029 C 
ATOM      2  C   UNL     1      -1.704   6.383  -0.873  0.00  0.00    +0.102 C 
ATOM      3  C   UNL     1      -1.889   5.313  -1.867  0.00  0.00    +0.274 C 
ATOM      4  O   UNL     1      -1.125   4.368  -1.917  0.00  0.00    -0.268 OA
ATOM      5  N   UNL     1      -2.929   5.410  -2.722  0.00  0.00    -0.153 NA
ATOM      6  C   UNL     1      -3.778   6.446  -2.678  0.00  0.00    +0.171 C 
ATOM      7  S   UNL     1      -5.069   6.485  -3.801  0.00  0.00    -0.016 S 
ATOM      8  N   UNL     1      -3.669   7.453  -1.800  0.00  0.00    -0.213 N 
ATOM      9  C   UNL     1      -2.681   7.485  -0.882  0.00  0.00    +0.262 C 
ATOM     10  O   UNL     1      -2.596   8.403  -0.087  0.00  0.00    -0.269 OA
ENDROOT
BRANCH   1  12
ATOM     11  C   UNL     1       1.652   5.367   0.015  0.00  0.00    +0.055 A 
ATOM     12  C   UNL     1       0.256   5.283   0.027  0.00  0.00    +0.009 A 
ATOM     13  C   UNL     1      -0.066   3.842   0.022  0.00  0.00    +0.007 A 
ATOM     14  C   UNL     1      -1.259   3.124   0.029  0.00  0.00    +0.010 A 
ATOM     15  C   UNL     1      -1.227   1.746   0.017  0.00  0.00    +0.001 A 
ATOM     16  C   UNL     1      -0.013   1.076   0.008  0.00  0.00    +0.002 A 
ATOM     17  C   UNL     1       1.175   1.774   0.000  0.00  0.00    +0.026 A 
ATOM     18  C   UNL     1       1.164   3.166   0.007  0.00  0.00    +0.047 A 
ATOM     19  N   UNL     1       2.173   4.110   0.003  0.00  0.00    -0.354 N 
ATOM     20  H   UNL     1       3.263   3.966  -0.008  0.00  0.00    +0.166 HD
BRANCH  11  24
ATOM     21  C   UNL     1       3.902   8.966   0.013  0.00  0.00    +0.000 A 
ATOM     22  C   UNL     1       4.265   7.928   0.854  0.00  0.00    +0.001 A 
ATOM     23  C   UNL     1       3.539   6.755   0.860  0.00  0.00    +0.010 A 
ATOM     24  C   UNL     1       2.434   6.617   0.014  0.00  0.00    -0.001 A 
ATOM     25  C   UNL     1       2.077   7.668  -0.836  0.00  0.00    +0.010 A 
ATOM     26  C   UNL     1       2.810   8.837  -0.827  0.00  0.00    +0.001 A 
ENDBRANCH  11  24
ENDBRANCH   1  12
BRANCH   8  27
ATOM     27  C   UNL     1      -4.608   8.494  -1.832  0.00  0.00    +0.078 A 
ATOM     28  C   UNL     1      -5.767   8.409  -1.072  0.00  0.00    +0.027 A 
ATOM     29  C   UNL     1      -6.690   9.437  -1.106  0.00  0.00    +0.002 A 
ATOM     30  C   UNL     1      -6.462  10.549  -1.895  0.00  0.00    +0.003 A 
ATOM     31  C   UNL     1      -5.309  10.638  -2.653  0.00  0.00    +0.040 A 
ATOM     32  C   UNL     1      -4.378   9.616  -2.620  0.00  0.00    +0.145 A 
ATOM     33  F   UNL     1      -3.249   9.705  -3.357  0.00  0.00    -0.204 F 
ENDBRANCH   8  27
TORSDOF 3
