REMARK  Name = ZINC21632101
REMARK  6 active torsions:
REMARK  status: ('A' for Active; 'I' for Inactive)
REMARK    1  A    between atoms: C_1  and  C_2
REMARK    2  A    between atoms: C_5  and  N_9
REMARK    3  A    between atoms: C_6  and  C_8
REMARK    4  A    between atoms: C_10  and  C_12
REMARK    5  A    between atoms: C_12  and  N_13
REMARK    6  A    between atoms: C_21  and  C_25
REMARK                            x       y       z     vdW  Elec       q    Type
REMARK                         _______ _______ _______ _____ _____    ______ ____
ROOT
ATOM      1  N   UNL     1      -2.511   3.662   0.065  0.00  0.00    -0.257 N 
ATOM      2  C   UNL     1      -1.256   3.069   0.066  0.00  0.00    +0.058 A 
ATOM      3  C   UNL     1      -1.214   1.675   0.134  0.00  0.00    +0.025 A 
ATOM      4  C   UNL     1      -0.010   1.006   0.153  0.00  0.00    +0.002 A 
ATOM      5  C   UNL     1       1.179   1.714   0.093  0.00  0.00    +0.002 A 
ATOM      6  C   UNL     1       1.158   3.087   0.017  0.00  0.00    +0.025 A 
ATOM      7  C   UNL     1      -0.062   3.785   0.001  0.00  0.00    +0.053 A 
ATOM      8  N   UNL     1       0.005   5.139  -0.083  0.00  0.00    -0.312 N 
ATOM      9  C   UNL     1      -0.715   5.978   0.569  0.00  0.00    +0.044 C 
ATOM     10  C   UNL     1      -1.793   5.526   1.520  0.00  0.00    +0.091 C 
ATOM     11  C   UNL     1      -2.833   4.774   0.728  0.00  0.00    +0.246 C 
ATOM     12  O   UNL     1      -3.974   5.184   0.695  0.00  0.00    -0.270 OA
ATOM     13  H   UNL     1       0.765   5.500  -0.791  0.00  0.00    +0.152 HD
ENDROOT
BRANCH   9  14
ATOM     14  C   UNL     1      -0.482   7.419   0.384  0.00  0.00    -0.004 A 
ATOM     15  C   UNL     1      -1.327   8.351   0.994  0.00  0.00    +0.012 A 
ATOM     16  C   UNL     1      -1.099   9.700   0.821  0.00  0.00    +0.039 A 
ATOM     17  C   UNL     1      -0.042  10.132   0.034  0.00  0.00    +0.123 A 
ATOM     18  C   UNL     1       0.796   9.213  -0.578  0.00  0.00    +0.039 A 
ATOM     19  C   UNL     1       0.583   7.862  -0.408  0.00  0.00    +0.012 A 
ATOM     20  F   UNL     1       0.172  11.455  -0.136  0.00  0.00    -0.205 F 
ENDBRANCH   9  14
BRANCH   1  21
ATOM     21  C   UNL     1      -3.563   3.018  -0.726  0.00  0.00    +0.210 C 
BRANCH  21  23
ATOM     22  N   UNL     1      -4.441   3.131  -3.036  0.00  0.00    -0.284 N 
ATOM     23  C   UNL     1      -3.554   3.578  -2.125  0.00  0.00    +0.235 C 
ATOM     24  O   UNL     1      -2.747   4.431  -2.432  0.00  0.00    -0.274 OA
ATOM     25  H   UNL     1      -5.214   2.406  -2.741  0.00  0.00    +0.155 HD
BRANCH  22  30
ATOM     26  C   UNL     1      -4.189   4.989  -8.391  0.00  0.00    +0.044 C 
ATOM     27  C   UNL     1      -4.256   4.495  -6.968  0.00  0.00    -0.050 A 
ATOM     28  C   UNL     1      -3.756   5.277  -5.942  0.00  0.00    +0.005 A 
ATOM     29  C   UNL     1      -3.816   4.827  -4.638  0.00  0.00    +0.024 A 
ATOM     30  C   UNL     1      -4.379   3.589  -4.357  0.00  0.00    +0.036 A 
ATOM     31  C   UNL     1      -4.875   2.805  -5.389  0.00  0.00    -0.029 A 
ATOM     32  C   UNL     1      -4.818   3.262  -6.691  0.00  0.00    +0.008 A 
ATOM     33  C   UNL     1      -5.482   1.458  -5.089  0.00  0.00    +0.045 C 
ENDBRANCH  22  30
ENDBRANCH  21  23
ENDBRANCH   1  21
TORSDOF 4
