REMARK  Name = ZINC14477384
REMARK  4 active torsions:
REMARK  status: ('A' for Active; 'I' for Inactive)
REMARK    1  A    between atoms: C_6  and  S_7
REMARK    2  A    between atoms: S_7  and  N_10
REMARK    3  A    between atoms: N_10  and  C_11
REMARK    4  A    between atoms: C_24  and  C_27
REMARK                            x       y       z     vdW  Elec       q    Type
REMARK                         _______ _______ _______ _____ _____    ______ ____
ROOT
ATOM      1  C   UNL     1      -2.781   1.732  -3.532  0.00  0.00    +0.030 A 
ATOM      2  C   UNL     1      -2.683   2.649  -4.560  0.00  0.00    +0.025 A 
ATOM      3  C   UNL     1      -2.069   3.876  -4.342  0.00  0.00    +0.031 A 
ATOM      4  C   UNL     1      -1.550   4.190  -3.095  0.00  0.00    -0.018 A 
ATOM      5  C   UNL     1      -1.661   3.263  -2.068  0.00  0.00    +0.034 A 
ATOM      6  C   UNL     1      -2.266   2.042  -2.287  0.00  0.00    +0.106 A 
ATOM      7  C   UNL     1      -0.879   5.497  -2.814  0.00  0.00    +0.049 C 
ATOM      8  C   UNL     1      -1.767   6.412  -2.005  0.00  0.00    -0.023 C 
ATOM      9  C   UNL     1      -1.603   7.656  -2.385  0.00  0.00    -0.030 C 
ATOM     10  C   UNL     1      -0.576   7.740  -3.498  0.00  0.00    +0.033 C 
ATOM     11  C   UNL     1      -0.570   6.301  -4.092  0.00  0.00    +0.029 C 
ATOM     12  C   UNL     1      -1.748   6.206  -5.066  0.00  0.00    +0.106 C 
ATOM     13  N   UNL     1      -1.980   4.795  -5.393  0.00  0.00    -0.336 N 
ATOM     14  H   UNL     1      -2.070   4.506  -6.315  0.00  0.00    +0.147 HD
ENDROOT
BRANCH  12  15
ATOM     15  C   UNL     1      -2.983   6.786  -4.427  0.00  0.00    -0.009 A 
ATOM     16  C   UNL     1      -3.778   5.996  -3.617  0.00  0.00    +0.008 A 
ATOM     17  C   UNL     1      -4.908   6.529  -3.026  0.00  0.00    +0.020 A 
ATOM     18  C   UNL     1      -5.250   7.850  -3.253  0.00  0.00    +0.042 A 
ATOM     19  C   UNL     1      -4.459   8.639  -4.068  0.00  0.00    +0.040 A 
ATOM     20  C   UNL     1      -3.325   8.107  -4.655  0.00  0.00    +0.047 A 
ATOM     21 CL   UNL     1      -2.330   9.096  -5.677  0.00  0.00    -0.083 Cl
ATOM     22 CL   UNL     1      -6.674   8.517  -2.517  0.00  0.00    -0.083 Cl
ENDBRANCH  12  15
BRANCH   6  23
ATOM     23  S   UNL     1      -2.390   0.877  -0.972  0.00  0.00    +0.059 S 
ATOM     24  O   UNL     1      -3.489   0.030  -1.282  0.00  0.00    -0.153 OA
ATOM     25  O   UNL     1      -2.319   1.619   0.238  0.00  0.00    -0.153 OA
BRANCH  23  26
ATOM     26  N   UNL     1      -1.032  -0.070  -1.027  0.00  0.00    -0.187 NA
ATOM     27  H   UNL     1      -1.109  -1.016  -1.226  0.00  0.00    +0.148 HD
BRANCH  26  28
ATOM     28  C   UNL     1       0.284   0.523  -0.780  0.00  0.00    +0.077 C 
ATOM     29  C   UNL     1       0.931   0.902  -2.114  0.00  0.00    +0.020 C 
ATOM     30  C   UNL     1       2.306   1.521  -1.856  0.00  0.00    +0.002 C 
ATOM     31  C   UNL     1       3.193   0.509  -1.129  0.00  0.00    +0.000 C 
ATOM     32  C   UNL     1       2.546   0.130   0.205  0.00  0.00    +0.002 C 
ATOM     33  C   UNL     1       1.171  -0.489  -0.053  0.00  0.00    +0.020 C 
ENDBRANCH  26  28
ENDBRANCH  23  26
ENDBRANCH   6  23
TORSDOF 4
