REMARK  Name = ZINC09314173
REMARK  15 active torsions:
REMARK  status: ('A' for Active; 'I' for Inactive)
REMARK    1  A    between atoms: C_1  and  C_2
REMARK    2  A    between atoms: C_2  and  O_3
REMARK    3  A    between atoms: O_3  and  C_4
REMARK    4  A    between atoms: C_4  and  C_6
REMARK    5  A    between atoms: C_7  and  C_30
REMARK    6  A    between atoms: C_8  and  C_27
REMARK    7  A    between atoms: C_10  and  N_11
REMARK    8  A    between atoms: C_12  and  C_14
REMARK    9  A    between atoms: C_14  and  N_56
REMARK   10  A    between atoms: C_15  and  C_17
REMARK   11  A    between atoms: C_15  and  C_24
REMARK   12  A    between atoms: C_15  and  N_56
REMARK   13  A    between atoms: C_24  and  C_25
REMARK   14  A    between atoms: C_24  and  C_26
REMARK   15  A    between atoms: C_27  and  C_29
REMARK                            x       y       z     vdW  Elec       q    Type
REMARK                         _______ _______ _______ _____ _____    ______ ____
ROOT
ATOM      1  N   UNL     1      -0.241   1.315  -2.436  0.00  0.00    -0.281 N 
ATOM      2  C   UNL     1      -0.722   1.588  -1.207  0.00  0.00    +0.201 C 
ATOM      3  O   UNL     1      -1.746   2.227  -1.086  0.00  0.00    -0.278 OA
ATOM      4  H   UNL     1       0.578   0.804  -2.533  0.00  0.00    +0.155 HD
ENDROOT
BRANCH   1   9
ATOM      5  C   UNL     1      -0.575   1.581  -4.903  0.00  0.00    +0.091 A 
ATOM      6  C   UNL     1      -1.413   2.128  -5.858  0.00  0.00    -0.017 A 
ATOM      7  C   UNL     1      -2.527   2.816  -5.408  0.00  0.00    +0.060 A 
ATOM      8  S   UNL     1      -2.382   2.675  -3.637  0.00  0.00    -0.070 S 
ATOM      9  C   UNL     1      -0.912   1.761  -3.555  0.00  0.00    +0.087 A 
ATOM     10  C   UNL     1      -1.125   1.981  -7.330  0.00  0.00    +0.046 C 
BRANCH   7  11
ATOM     11  C   UNL     1      -3.529   3.460  -6.162  0.00  0.00    +0.167 C 
ATOM     12  O   UNL     1      -3.475   3.453  -7.376  0.00  0.00    -0.292 OA
ATOM     13  C   UNL     1      -4.667   4.158  -5.463  0.00  0.00    +0.092 C 
ENDBRANCH   7  11
BRANCH   5  14
ATOM     14  C   UNL     1       0.629   0.835  -5.289  0.00  0.00    +0.342 C 
ATOM     15  O   UNL     1       0.568  -0.366  -5.469  0.00  0.00    -0.245 OA
BRANCH  14  16
ATOM     16  O   UNL     1       1.802   1.482  -5.443  0.00  0.00    -0.461 OA
BRANCH  16  18
ATOM     17  C   UNL     1       4.181   1.582  -5.952  0.00  0.00    +0.048 C 
ATOM     18  C   UNL     1       2.951   0.681  -5.826  0.00  0.00    +0.229 C 
ENDBRANCH  16  18
ENDBRANCH  14  16
ENDBRANCH   5  14
ENDBRANCH   1   9
BRANCH   2  19
ATOM     19  C   UNL     1       0.011   1.101   0.016  0.00  0.00    +0.016 C 
BRANCH  19  20
ATOM     20  N   UNL     1      -0.720   1.532   1.222  0.00  0.00    +0.389 N 
ATOM     21  H   UNL     1      -1.686   1.190   1.173  0.00  0.00    -0.084 HD
ATOM     22  H   UNL     1      -0.722   2.558   1.268  0.00  0.00    -0.084 HD
BRANCH  20  23
ATOM     23  C   UNL     1      -0.073   0.992   2.433  0.00  0.00    -0.038 C 
BRANCH  23  24
ATOM     24  C   UNL     1      -0.531  -0.425   2.659  0.00  0.00    -0.061 A 
ATOM     25  C   UNL     1      -1.852  -0.768   2.438  0.00  0.00    +0.005 A 
ATOM     26  C   UNL     1      -2.272  -2.069   2.639  0.00  0.00    +0.038 A 
ATOM     27  C   UNL     1      -1.372  -3.027   3.074  0.00  0.00    +0.123 A 
ATOM     28  C   UNL     1      -0.050  -2.682   3.300  0.00  0.00    +0.038 A 
ATOM     29  C   UNL     1       0.369  -1.381   3.092  0.00  0.00    +0.005 A 
ATOM     30  F   UNL     1      -1.783  -4.298   3.277  0.00  0.00    -0.205 F 
ENDBRANCH  23  24
BRANCH  23  31
ATOM     31  C   UNL     1      -0.464   1.852   3.636  0.00  0.00    -0.027 C 
ATOM     32  C   UNL     1       0.262   1.344   4.884  0.00  0.00    +0.006 C 
ATOM     33  C   UNL     1      -0.068   3.307   3.374  0.00  0.00    +0.006 C 
ENDBRANCH  23  31
ENDBRANCH  20  23
ENDBRANCH  19  20
ENDBRANCH   2  19
TORSDOF 10
