REMARK  Name = ZINC23360595
REMARK  10 active torsions:
REMARK  status: ('A' for Active; 'I' for Inactive)
REMARK    1  A    between atoms: C_1  and  C_2
REMARK    2  A    between atoms: C_2  and  C_3
REMARK    3  A    between atoms: C_2  and  N_4
REMARK    4  A    between atoms: C_6  and  N_25
REMARK    5  A    between atoms: C_9  and  C_11
REMARK    6  A    between atoms: N_13  and  C_14
REMARK    7  A    between atoms: C_14  and  C_15
REMARK    8  A    between atoms: C_15  and  C_16
REMARK    9  A    between atoms: N_25  and  C_26
REMARK   10  A    between atoms: C_26  and  C_27
REMARK                            x       y       z     vdW  Elec       q    Type
REMARK                         _______ _______ _______ _____ _____    ______ ____
ROOT
ATOM      1  N   UNL     1       0.750  -0.326  -1.221  0.00  0.00    -0.291 NA
ATOM      2  C   UNL     1       0.094   0.256  -2.411  0.00  0.00    +0.070 C 
ATOM      3  C   UNL     1       0.363  -0.762  -3.548  0.00  0.00    -0.055 C 
ATOM      4  C   UNL     1       0.254  -2.112  -2.792  0.00  0.00    +0.014 C 
ATOM      5  C   UNL     1       0.854  -1.785  -1.408  0.00  0.00    +0.142 C 
ENDROOT
BRANCH   5   6
ATOM      6  C   UNL     1       2.300  -2.206  -1.363  0.00  0.00    +0.230 C 
ATOM      7  O   UNL     1       3.168  -1.376  -1.192  0.00  0.00    -0.274 OA
ATOM      8  N   UNL     1       2.629  -3.504  -1.513  0.00  0.00    -0.314 N 
ATOM      9  H   UNL     1       1.935  -4.168  -1.650  0.00  0.00    +0.149 HD
BRANCH   8  10
ATOM     10  C   UNL     1       4.035  -3.913  -1.470  0.00  0.00    +0.109 C 
BRANCH  10  11
ATOM     11  C   UNL     1       4.131  -5.428  -1.665  0.00  0.00    +0.054 C 
BRANCH  11  12
ATOM     12  C   UNL     1       5.578  -5.849  -1.620  0.00  0.00    -0.042 A 
ATOM     13  C   UNL     1       6.324  -5.878  -2.784  0.00  0.00    +0.007 A 
ATOM     14  C   UNL     1       7.651  -6.263  -2.748  0.00  0.00    +0.050 A 
ATOM     15  C   UNL     1       8.237  -6.621  -1.544  0.00  0.00    +0.166 A 
ATOM     16  C   UNL     1       7.485  -6.592  -0.372  0.00  0.00    +0.166 A 
ATOM     17  C   UNL     1       6.157  -6.199  -0.415  0.00  0.00    +0.053 A 
ATOM     18  O   UNL     1       8.280  -6.984   0.666  0.00  0.00    -0.453 OA
ATOM     19  C   UNL     1       9.407  -7.644   0.059  0.00  0.00    +0.466 C 
ATOM     20  O   UNL     1       9.503  -7.032  -1.241  0.00  0.00    -0.453 OA
ENDBRANCH  11  12
ENDBRANCH  10  11
ENDBRANCH   8  10
ENDBRANCH   5   6
BRANCH   1  22
ATOM     21  C   UNL     1       0.745  -0.565   1.216  0.00  0.00    +0.024 C 
ATOM     22  C   UNL     1       0.002  -0.004   0.002  0.00  0.00    +0.051 C 
ATOM     23  C   UNL     1      -0.124   1.515   0.138  0.00  0.00    +0.024 C 
ENDBRANCH   1  22
BRANCH   3  24
ATOM     24  N   UNL     1      -0.660  -0.661  -4.597  0.00  0.00    +0.384 N 
ATOM     25  H   UNL     1      -0.526  -1.401  -5.270  0.00  0.00    -0.085 HD
ATOM     26  H   UNL     1      -1.576  -0.746  -4.183  0.00  0.00    -0.085 HD
BRANCH  24  27
ATOM     27  C   UNL     1      -0.546   0.640  -5.270  0.00  0.00    -0.046 C 
BRANCH  27  28
ATOM     28  C   UNL     1      -1.596   0.743  -6.346  0.00  0.00    -0.064 A 
ATOM     29  C   UNL     1      -1.302   0.302  -7.635  0.00  0.00    +0.002 A 
ATOM     30  C   UNL     1      -2.228   0.382  -8.630  0.00  0.00    +0.009 A 
ATOM     31  C   UNL     1      -3.499   0.915  -8.357  0.00  0.00    -0.018 A 
ATOM     32  C   UNL     1      -4.480   1.012  -9.358  0.00  0.00    +0.008 A 
ATOM     33  C   UNL     1      -5.701   1.534  -9.056  0.00  0.00    +0.001 A 
ATOM     34  C   UNL     1      -5.994   1.974  -7.767  0.00  0.00    +0.001 A 
ATOM     35  C   UNL     1      -5.069   1.895  -6.772  0.00  0.00    +0.008 A 
ATOM     36  C   UNL     1      -3.797   1.362  -7.046  0.00  0.00    -0.018 A 
ATOM     37  C   UNL     1      -2.818   1.259  -6.043  0.00  0.00    +0.010 A 
ENDBRANCH  27  28
ENDBRANCH  24  27
ENDBRANCH   3  24
TORSDOF 8
