REMARK  Name = ZINC14625314
REMARK  14 active torsions:
REMARK  status: ('A' for Active; 'I' for Inactive)
REMARK    1  A    between atoms: C_1  and  C_2
REMARK    2  A    between atoms: C_2  and  C_3
REMARK    3  A    between atoms: C_3  and  C_4
REMARK    4  A    between atoms: C_4  and  N_5
REMARK    5  A    between atoms: C_6  and  N_36
REMARK    6  A    between atoms: C_7  and  N_14
REMARK    7  A    between atoms: N_14  and  C_15
REMARK    8  A    between atoms: C_15  and  C_16
REMARK    9  A    between atoms: C_22  and  C_24
REMARK   10  A    between atoms: C_24  and  C_25
REMARK   11  A    between atoms: C_25  and  C_26
REMARK   12  A    between atoms: C_26  and  O_27
REMARK   13  A    between atoms: O_27  and  C_28
REMARK   14  A    between atoms: C_33  and  C_34
REMARK                            x       y       z     vdW  Elec       q    Type
REMARK                         _______ _______ _______ _____ _____    ______ ____
ROOT
ATOM      1  N   UNL     1       2.386   3.796   0.048  0.00  0.00    -0.260 N 
ATOM      2  C   UNL     1       2.123   5.120   0.016  0.00  0.00    +0.220 C 
ATOM      3  O   UNL     1       1.021   5.512  -0.306  0.00  0.00    -0.275 OA
ENDROOT
BRANCH   1   6
ATOM      4  N   UNL     1      -0.092   1.134   0.570  0.00  0.00    -0.280 N 
ATOM      5  C   UNL     1       0.919   2.031   0.827  0.00  0.00    +0.127 A 
ATOM      6  C   UNL     1       1.351   2.866  -0.183  0.00  0.00    +0.140 A 
ATOM      7  C   UNL     1       0.742   2.773  -1.449  0.00  0.00    +0.277 A 
ATOM      8  O   UNL     1       1.105   3.498  -2.359  0.00  0.00    -0.266 OA
ATOM      9  N   UNL     1      -0.244   1.877  -1.648  0.00  0.00    -0.273 N 
ATOM     10  H   UNL     1      -0.674   1.807  -2.547  0.00  0.00    +0.173 HD
ATOM     11  C   UNL     1      -0.656   1.075  -0.649  0.00  0.00    +0.331 A 
ATOM     12  O   UNL     1      -1.552   0.278  -0.855  0.00  0.00    -0.246 OA
BRANCH   5  13
ATOM     13  N   UNL     1       1.492   2.095   2.075  0.00  0.00    -0.343 N 
ATOM     14  H   UNL     1       2.140   2.788   2.276  0.00  0.00    +0.144 HD
ATOM     15  H   UNL     1       1.248   1.447   2.754  0.00  0.00    +0.144 HD
ENDBRANCH   5  13
BRANCH   4  16
ATOM     16  C   UNL     1      -0.561   0.242   1.634  0.00  0.00    +0.128 C 
BRANCH  16  17
ATOM     17  C   UNL     1      -1.700   0.917   2.400  0.00  0.00    +0.021 C 
BRANCH  17  19
ATOM     18  C   UNL     1      -3.329   0.661   4.277  0.00  0.00    +0.004 C 
ATOM     19  C   UNL     1      -2.190  -0.014   3.511  0.00  0.00    -0.002 C 
ENDBRANCH  17  19
ENDBRANCH  16  17
ENDBRANCH   4  16
ENDBRANCH   1   6
BRANCH   1  20
ATOM     20  C   UNL     1       3.746   3.326   0.324  0.00  0.00    +0.149 C 
BRANCH  20  21
ATOM     21  C   UNL     1       4.486   3.139  -0.976  0.00  0.00    -0.030 A 
ATOM     22  C   UNL     1       4.359   1.956  -1.679  0.00  0.00    +0.005 A 
ATOM     23  C   UNL     1       5.034   1.786  -2.873  0.00  0.00    +0.000 A 
ATOM     24  C   UNL     1       5.843   2.796  -3.360  0.00  0.00    +0.000 A 
ATOM     25  C   UNL     1       5.973   3.977  -2.654  0.00  0.00    +0.000 A 
ATOM     26  C   UNL     1       5.295   4.149  -1.462  0.00  0.00    +0.005 A 
ENDBRANCH  20  21
ENDBRANCH   1  20
BRANCH   2  27
ATOM     27  C   UNL     1       3.198   6.111   0.381  0.00  0.00    +0.099 C 
BRANCH  27  28
ATOM     28  C   UNL     1       2.602   7.519   0.420  0.00  0.00    +0.050 C 
BRANCH  28  29
ATOM     29  C   UNL     1       3.694   8.525   0.791  0.00  0.00    +0.229 C 
BRANCH  29  30
ATOM     30  O   UNL     1       3.137   9.840   0.827  0.00  0.00    -0.492 OA
BRANCH  30  31
ATOM     31  C   UNL     1       3.980  10.859   1.143  0.00  0.00    +0.123 A 
ATOM     32  C   UNL     1       5.315  10.597   1.412  0.00  0.00    +0.047 A 
ATOM     33  C   UNL     1       6.170  11.633   1.733  0.00  0.00    +0.023 A 
ATOM     34  C   UNL     1       5.696  12.932   1.785  0.00  0.00    +0.041 A 
ATOM     35  C   UNL     1       4.364  13.195   1.517  0.00  0.00    +0.027 A 
ATOM     36  C   UNL     1       3.507  12.162   1.191  0.00  0.00    -0.007 A 
ATOM     37  C   UNL     1       2.058  12.450   0.893  0.00  0.00    +0.047 C 
ATOM     38 CL   UNL     1       6.772  14.233   2.188  0.00  0.00    -0.084 Cl
ENDBRANCH  30  31
ENDBRANCH  29  30
ENDBRANCH  28  29
ENDBRANCH  27  28
ENDBRANCH   2  27
TORSDOF 12
