REMARK  Name = ZINC20885324
REMARK  9 active torsions:
REMARK  status: ('A' for Active; 'I' for Inactive)
REMARK    1  A    between atoms: C_1  and  C_2
REMARK    2  A    between atoms: C_2  and  C_3
REMARK    3  A    between atoms: C_3  and  O_4
REMARK    4  A    between atoms: O_4  and  C_5
REMARK    5  A    between atoms: C_8  and  C_11
REMARK    6  A    between atoms: C_16  and  C_26
REMARK    7  A    between atoms: C_31  and  O_32
REMARK    8  A    between atoms: O_32  and  C_33
REMARK    9  A    between atoms: C_33  and  C_34
REMARK                            x       y       z     vdW  Elec       q    Type
REMARK                         _______ _______ _______ _____ _____    ______ ____
ROOT
ATOM      1  C   UNL     1       3.311   3.590  -4.196  0.00  0.00    +0.032 C 
ATOM      2  C   UNL     1       3.583   4.976  -3.616  0.00  0.00    +0.059 C 
ATOM      3  C   UNL     1       3.016   5.072  -2.210  0.00  0.00    +0.017 C 
ATOM      4  C   UNL     1       2.973   3.988  -1.416  0.00  0.00    +0.037 C 
ATOM      5  C   UNL     1       2.449   3.948  -0.001  0.00  0.00    +0.139 C 
ATOM      6  N   UNL     1       2.209   5.248   0.590  0.00  0.00    -0.331 N 
ATOM      7  C   UNL     1       1.230   6.099   0.077  0.00  0.00    +0.049 A 
ATOM      8  C   UNL     1       0.084   6.399   0.795  0.00  0.00    +0.025 A 
ATOM      9  C   UNL     1      -0.912   7.155   0.201  0.00  0.00    +0.002 A 
ATOM     10  C   UNL     1      -0.767   7.608  -1.098  0.00  0.00    +0.002 A 
ATOM     11  C   UNL     1       0.387   7.328  -1.810  0.00  0.00    +0.025 A 
ATOM     12  C   UNL     1       1.391   6.588  -1.211  0.00  0.00    +0.052 A 
ATOM     13  N   UNL     1       2.594   6.311  -1.849  0.00  0.00    -0.316 N 
ATOM     14  C   UNL     1       3.443   2.740  -1.889  0.00  0.00    +0.163 C 
ATOM     15  O   UNL     1       3.410   1.781  -1.144  0.00  0.00    -0.292 OA
ATOM     16  C   UNL     1       3.980   2.561  -3.277  0.00  0.00    +0.088 C 
ATOM     17  H   UNL     1       2.802   5.577   1.456  0.00  0.00    +0.147 HD
ATOM     18  H   UNL     1       3.223   7.189  -2.060  0.00  0.00    +0.152 HD
ENDROOT
BRANCH   1  22
ATOM     19  C   UNL     1       4.963   3.313  -8.127  0.00  0.00    +0.121 A 
ATOM     20  C   UNL     1       3.601   3.136  -7.932  0.00  0.00    +0.046 A 
ATOM     21  C   UNL     1       3.069   3.226  -6.660  0.00  0.00    +0.007 A 
ATOM     22  C   UNL     1       3.893   3.492  -5.582  0.00  0.00    -0.043 A 
ATOM     23  C   UNL     1       5.250   3.674  -5.775  0.00  0.00    +0.007 A 
ATOM     24  C   UNL     1       5.788   3.580  -7.044  0.00  0.00    +0.046 A 
BRANCH  19  25
ATOM     25  O   UNL     1       5.489   3.224  -9.377  0.00  0.00    -0.492 OA
BRANCH  25  26
ATOM     26  C   UNL     1       6.899   3.417  -9.504  0.00  0.00    +0.229 C 
BRANCH  26  28
ATOM     27  C   UNL     1       8.813   3.489 -11.108  0.00  0.00    +0.007 C 
ATOM     28  C   UNL     1       7.303   3.282 -10.973  0.00  0.00    +0.038 C 
ENDBRANCH  26  28
ENDBRANCH  25  26
ENDBRANCH  19  25
ENDBRANCH   1  22
BRANCH   5  29
ATOM     29  C   UNL     1       1.157   3.173   0.008  0.00  0.00    +0.019 A 
ATOM     30  C   UNL     1       0.475   2.952  -1.173  0.00  0.00    +0.009 A 
ATOM     31  C   UNL     1      -0.710   2.241  -1.166  0.00  0.00    +0.001 A 
ATOM     32  C   UNL     1      -1.214   1.744   0.022  0.00  0.00    +0.004 A 
ATOM     33  C   UNL     1      -0.539   1.967   1.207  0.00  0.00    +0.046 A 
ATOM     34  C   UNL     1       0.651   2.681   1.202  0.00  0.00    +0.126 A 
BRANCH  34  35
ATOM     35  O   UNL     1       1.319   2.897   2.365  0.00  0.00    -0.487 OA
BRANCH  35  36
ATOM     36  C   UNL     1       0.739   2.361   3.556  0.00  0.00    +0.264 C 
BRANCH  36  37
ATOM     37  C   UNL     1       1.613   2.699   4.737  0.00  0.00    -0.010 A 
ATOM     38  C   UNL     1       2.620   1.833   5.121  0.00  0.00    +0.007 A 
ATOM     39  C   UNL     1       3.425   2.144   6.200  0.00  0.00    +0.000 A 
ATOM     40  C   UNL     1       3.217   3.317   6.902  0.00  0.00    +0.000 A 
ATOM     41  C   UNL     1       2.206   4.180   6.522  0.00  0.00    +0.000 A 
ATOM     42  C   UNL     1       1.405   3.871   5.439  0.00  0.00    +0.007 A 
ENDBRANCH  36  37
ENDBRANCH  35  36
ENDBRANCH  34  35
ENDBRANCH   5  29
TORSDOF 8
