REMARK  Name = ZINC05888400
REMARK  3 active torsions:
REMARK  status: ('A' for Active; 'I' for Inactive)
REMARK    1  A    between atoms: C_4  and  C_7
REMARK    2  A    between atoms: C_7  and  C_8
REMARK    3  A    between atoms: C_13  and  C_18
REMARK                            x       y       z     vdW  Elec       q    Type
REMARK                         _______ _______ _______ _____ _____    ______ ____
ROOT
ATOM      1  C   UNL     1       2.869   4.201  -1.424  0.00  0.00    +0.113 A 
ATOM      2  N   UNL     1       3.133   5.430  -1.943  0.00  0.00    -0.342 N 
ATOM      3  H   UNL     1       3.082   6.302  -1.456  0.00  0.00    +0.167 HD
ATOM      4  C   UNL     1       3.484   5.250  -3.267  0.00  0.00    +0.067 A 
ATOM      5  C   UNL     1       3.853   6.107  -4.290  0.00  0.00    +0.039 A 
ATOM      6  C   UNL     1       4.145   5.589  -5.549  0.00  0.00    +0.019 A 
ATOM      7  C   UNL     1       4.065   4.210  -5.778  0.00  0.00    +0.014 A 
ATOM      8  C   UNL     1       3.702   3.361  -4.775  0.00  0.00    +0.030 A 
ATOM      9  C   UNL     1       3.405   3.865  -3.504  0.00  0.00    +0.089 A 
ATOM     10  N   UNL     1       3.025   3.286  -2.337  0.00  0.00    -0.232 NA
ENDROOT
BRANCH   6  11
ATOM     11  C   UNL     1       4.540   6.497  -6.646  0.00  0.00    +0.139 A 
ATOM     12  N   UNL     1       4.854   6.104  -7.920  0.00  0.00    -0.338 N 
ATOM     13  H   UNL     1       4.859   5.166  -8.267  0.00  0.00    +0.167 HD
ATOM     14  C   UNL     1       5.162   7.245  -8.635  0.00  0.00    +0.066 A 
ATOM     15  C   UNL     1       5.547   7.484  -9.947  0.00  0.00    +0.028 A 
ATOM     16  C   UNL     1       5.794   8.776 -10.362  0.00  0.00    +0.002 A 
ATOM     17  C   UNL     1       5.662   9.837  -9.476  0.00  0.00    +0.002 A 
ATOM     18  C   UNL     1       5.285   9.620  -8.181  0.00  0.00    +0.030 A 
ATOM     19  C   UNL     1       5.028   8.319  -7.738  0.00  0.00    +0.089 A 
ATOM     20  N   UNL     1       4.647   7.800  -6.545  0.00  0.00    -0.228 NA
ENDBRANCH   6  11
BRANCH   1  21
ATOM     21  C   UNL     1       2.451   3.937  -0.001  0.00  0.00    +0.109 C 
BRANCH  21  25
ATOM     22  C   UNL     1      -1.219   1.751   0.017  0.00  0.00    +0.000 A 
ATOM     23  C   UNL     1      -0.013   1.076   0.008  0.00  0.00    +0.000 A 
ATOM     24  C   UNL     1       1.175   1.783   0.000  0.00  0.00    +0.004 A 
ATOM     25  C   UNL     1       1.156   3.165   0.008  0.00  0.00    -0.040 A 
ATOM     26  C   UNL     1      -0.050   3.840   0.023  0.00  0.00    +0.004 A 
ATOM     27  C   UNL     1      -1.238   3.133   0.030  0.00  0.00    +0.000 A 
ENDBRANCH  21  25
ENDBRANCH   1  21
TORSDOF 3
