REMARK  Name = ZINC63557424
REMARK  7 active torsions:
REMARK  status: ('A' for Active; 'I' for Inactive)
REMARK    1  A    between atoms: C_1  and  C_2
REMARK    2  A    between atoms: C_5  and  N_9
REMARK    3  A    between atoms: C_6  and  C_8
REMARK    4  A    between atoms: C_10  and  C_12
REMARK    5  A    between atoms: N_17  and  C_19
REMARK    6  A    between atoms: C_19  and  C_20
REMARK    7  A    between atoms: C_20  and  C_21
REMARK                            x       y       z     vdW  Elec       q    Type
REMARK                         _______ _______ _______ _____ _____    ______ ____
ROOT
ATOM      1  C   UNL     1      -0.134  -6.343  -1.187  0.00  0.00    +0.101 C 
ATOM      2  C   UNL     1      -1.437  -6.816  -0.502  0.00  0.00    +0.110 C 
ATOM      3  C   UNL     1      -1.868  -8.017  -1.315  0.00  0.00    +0.216 C 
ATOM      4  O   UNL     1      -2.679  -8.844  -0.956  0.00  0.00    -0.276 OA
ATOM      5  N   UNL     1      -1.222  -8.033  -2.494  0.00  0.00    -0.300 N 
ATOM      6  C   UNL     1      -0.316  -6.885  -2.622  0.00  0.00    +0.121 C 
ENDROOT
BRANCH   1   8
ATOM      7  N   UNL     1       0.059  -4.170  -0.021  0.00  0.00    -0.285 N 
ATOM      8  C   UNL     1      -0.040  -4.839  -1.187  0.00  0.00    +0.222 C 
ATOM      9  O   UNL     1      -0.054  -4.230  -2.236  0.00  0.00    -0.275 OA
ATOM     10  H   UNL     1       0.135  -4.658   0.814  0.00  0.00    +0.155 HD
BRANCH   7  15
ATOM     11  C   UNL     1       0.025   1.503   0.005  0.00  0.00    +0.044 C 
ATOM     12  C   UNL     1       0.034  -0.004  -0.002  0.00  0.00    -0.050 A 
ATOM     13  C   UNL     1       0.632  -0.685  -1.046  0.00  0.00    +0.005 A 
ATOM     14  C   UNL     1       0.641  -2.066  -1.055  0.00  0.00    +0.024 A 
ATOM     15  C   UNL     1       0.051  -2.771  -0.014  0.00  0.00    +0.036 A 
ATOM     16  C   UNL     1      -0.548  -2.083   1.033  0.00  0.00    -0.029 A 
ATOM     17  C   UNL     1      -0.550  -0.702   1.039  0.00  0.00    +0.008 A 
ATOM     18  C   UNL     1      -1.190  -2.843   2.165  0.00  0.00    +0.045 C 
ENDBRANCH   7  15
ENDBRANCH   1   8
BRANCH   5  19
ATOM     19  C   UNL     1      -1.399  -9.065  -3.519  0.00  0.00    +0.112 C 
BRANCH  19  20
ATOM     20  C   UNL     1      -2.524  -8.652  -4.470  0.00  0.00    +0.052 C 
BRANCH  20  21
ATOM     21  C   UNL     1      -2.705  -9.713  -5.524  0.00  0.00    -0.040 C 
ATOM     22  C   UNL     1      -3.592 -10.734  -5.506  0.00  0.00    +0.000 A 
ATOM     23  C   UNL     1      -4.613 -11.147  -4.536  0.00  0.00    +0.030 A 
ATOM     24  C   UNL     1      -5.366 -12.240  -4.800  0.00  0.00    +0.042 A 
ATOM     25  C   UNL     1      -5.194 -12.987  -5.975  0.00  0.00    +0.022 A 
ATOM     26  C   UNL     1      -4.277 -12.669  -6.913  0.00  0.00    +0.027 A 
ATOM     27  C   UNL     1      -3.431 -11.539  -6.738  0.00  0.00    +0.043 A 
ATOM     28  N   UNL     1      -2.482 -11.035  -7.489  0.00  0.00    -0.380 N 
ATOM     29  C   UNL     1      -1.937  -9.848  -6.820  0.00  0.00    +0.144 C 
ATOM     30 CL   UNL     1      -6.575 -12.731  -3.655  0.00  0.00    -0.084 Cl
ATOM     31  H   UNL     1      -2.191 -11.386  -8.345  0.00  0.00    +0.160 HD
ENDBRANCH  20  21
ENDBRANCH  19  20
ENDBRANCH   5  19
TORSDOF 5
