REMARK  Name = ZINC67181006
REMARK  6 active torsions:
REMARK  status: ('A' for Active; 'I' for Inactive)
REMARK    1  A    between atoms: C_1  and  N_2
REMARK    2  A    between atoms: N_2  and  C_3
REMARK    3  A    between atoms: C_13  and  C_15
REMARK    4  A    between atoms: C_15  and  C_17
REMARK    5  A    between atoms: C_15  and  N_28
REMARK    6  A    between atoms: C_17  and  C_18
REMARK                            x       y       z     vdW  Elec       q    Type
REMARK                         _______ _______ _______ _____ _____    ______ ____
ROOT
ATOM      1  C   UNL     1       0.094   0.212  -2.460  0.00  0.00    +0.165 C 
ENDROOT
BRANCH   1   2
ATOM      2  N   UNL     1       0.549  -0.635  -3.565  0.00  0.00    -0.288 N 
ATOM      3  C   UNL     1      -0.174  -1.712  -3.932  0.00  0.00    +0.298 C 
ATOM      4  O   UNL     1      -1.205  -1.980  -3.345  0.00  0.00    -0.253 OA
ATOM      5  N   UNL     1       0.245  -2.491  -4.949  0.00  0.00    -0.313 N 
ATOM      6  H   UNL     1       1.372  -0.421  -4.033  0.00  0.00    +0.151 HD
ATOM      7  H   UNL     1       1.067  -2.277  -5.416  0.00  0.00    +0.146 HD
ATOM      8  H   UNL     1      -0.276  -3.266  -5.212  0.00  0.00    +0.146 HD
ENDBRANCH   1   2
BRANCH   1  11
ATOM      9  C   UNL     1      -0.005   1.459   0.085  0.00  0.00    +0.138 C 
ATOM     10  N   UNL     1       0.002  -0.004   0.002  0.00  0.00    -0.273 N 
ATOM     11  C   UNL     1       0.002  -0.611  -1.201  0.00  0.00    +0.240 C 
ATOM     12  O   UNL     1      -0.071  -1.820  -1.271  0.00  0.00    -0.273 OA
BRANCH  10  13
ATOM     13  C   UNL     1       0.009  -0.771   1.172  0.00  0.00    +0.037 A 
ATOM     14  C   UNL     1       1.113  -0.713   2.031  0.00  0.00    +0.024 A 
ATOM     15  C   UNL     1       1.147  -1.447   3.175  0.00  0.00    +0.010 A 
ATOM     16  C   UNL     1       0.062  -2.278   3.507  0.00  0.00    -0.018 A 
ATOM     17  C   UNL     1       0.070  -3.047   4.683  0.00  0.00    +0.008 A 
ATOM     18  C   UNL     1      -0.996  -3.841   4.976  0.00  0.00    +0.001 A 
ATOM     19  C   UNL     1      -2.099  -3.905   4.125  0.00  0.00    +0.001 A 
ATOM     20  C   UNL     1      -2.142  -3.174   2.978  0.00  0.00    +0.008 A 
ATOM     21  C   UNL     1      -1.059  -2.342   2.643  0.00  0.00    -0.016 A 
ATOM     22  C   UNL     1      -1.072  -1.569   1.470  0.00  0.00    +0.032 A 
ENDBRANCH  10  13
ENDBRANCH   1  11
BRANCH   1  23
ATOM     23  C   UNL     1      -1.283   0.789  -2.794  0.00  0.00    +0.069 C 
BRANCH  23  24
ATOM     24  C   UNL     1      -1.168   1.710  -3.981  0.00  0.00    -0.020 A 
ATOM     25  C   UNL     1      -1.007   3.042  -3.946  0.00  0.00    +0.087 A 
ATOM     26  N   UNL     1      -0.943   3.538  -5.219  0.00  0.00    -0.360 N 
ATOM     27  H   UNL     1      -0.829   4.474  -5.447  0.00  0.00    +0.165 HD
ATOM     28  C   UNL     1      -1.064   2.512  -6.128  0.00  0.00    +0.047 A 
ATOM     29  C   UNL     1      -1.204   1.320  -5.393  0.00  0.00    +0.003 A 
ATOM     30  C   UNL     1      -1.342   0.102  -6.060  0.00  0.00    +0.010 A 
ATOM     31  C   UNL     1      -1.337   0.072  -7.427  0.00  0.00    +0.001 A 
ATOM     32  C   UNL     1      -1.195   1.244  -8.157  0.00  0.00    +0.002 A 
ATOM     33  C   UNL     1      -1.067   2.459  -7.518  0.00  0.00    +0.026 A 
ENDBRANCH  23  24
ENDBRANCH   1  23
TORSDOF 5
