REMARK  Name = ZINC03654492
REMARK  4 active torsions:
REMARK  status: ('A' for Active; 'I' for Inactive)
REMARK    1  A    between atoms: C_1  and  C_2
REMARK    2  A    between atoms: C_2  and  C_32
REMARK    3  A    between atoms: C_6  and  C_22
REMARK    4  A    between atoms: C_8  and  C_20
REMARK                            x       y       z     vdW  Elec       q    Type
REMARK                         _______ _______ _______ _____ _____    ______ ____
ROOT
ATOM      1  C   UNL     1      -0.019   1.524   0.010  0.00  0.00    +0.011 C 
ATOM      2  C   UNL     1       0.002  -0.004   0.002  0.00  0.00    -0.023 C 
ATOM      3  C   UNL     1       0.716  -0.514  -1.253  0.00  0.00    +0.058 C 
ATOM      4  C   UNL     1       2.132   0.011  -1.284  0.00  0.00    +0.025 C 
ATOM      5  C   UNL     1       2.788   0.141  -0.105  0.00  0.00    +0.025 C 
ATOM      6  C   UNL     1       4.170   0.754  -0.114  0.00  0.00    +0.098 C 
ATOM      7  C   UNL     1       4.676   1.272  -1.447  0.00  0.00    +0.080 C 
ATOM      8  C   UNL     1       3.891   1.056  -2.572  0.00  0.00    +0.123 C 
ATOM      9  N   UNL     1       2.727   0.308  -2.480  0.00  0.00    -0.257 N 
ATOM     10  C   UNL     1       2.183  -0.205  -3.657  0.00  0.00    +0.050 A 
ATOM     11  C   UNL     1       1.340  -1.304  -3.677  0.00  0.00    +0.024 A 
ATOM     12  C   UNL     1       0.719  -1.687  -4.850  0.00  0.00    +0.002 A 
ATOM     13  C   UNL     1       0.996  -1.030  -6.038  0.00  0.00    +0.001 A 
ATOM     14  C   UNL     1       1.928  -0.015  -6.065  0.00  0.00    +0.013 A 
ATOM     15  C   UNL     1       2.560   0.370  -4.885  0.00  0.00    +0.034 A 
ATOM     16  C   UNL     1       3.664   1.340  -4.881  0.00  0.00    +0.104 C 
ATOM     17  N   UNL     1       4.275   1.595  -3.739  0.00  0.00    -0.330 N 
ATOM     18  N   UNL     1       4.057   1.972  -6.033  0.00  0.00    -0.344 N 
ATOM     19  C   UNL     1       2.216  -0.272   1.103  0.00  0.00    +0.162 C 
ATOM     20  O   UNL     1       2.919  -0.423   2.086  0.00  0.00    -0.292 OA
ATOM     21  C   UNL     1       0.738  -0.531   1.234  0.00  0.00    +0.086 C 
ATOM     22  C   UNL     1      -1.438  -0.530   0.007  0.00  0.00    +0.011 C 
ATOM     23  H   UNL     1       3.604   1.783  -6.869  0.00  0.00    +0.144 HD
ATOM     24  H   UNL     1       4.788   2.610  -6.011  0.00  0.00    +0.144 HD
ATOM     25  H   UNL     1       5.017   2.217  -3.787  0.00  0.00    +0.168 HD
ENDROOT
BRANCH   6  26
ATOM     26  C   UNL     1       4.173   1.923   0.836  0.00  0.00    -0.035 A 
ATOM     27  C   UNL     1       3.311   2.984   0.629  0.00  0.00    +0.006 A 
ATOM     28  C   UNL     1       3.313   4.057   1.500  0.00  0.00    +0.020 A 
ATOM     29  C   UNL     1       4.179   4.070   2.579  0.00  0.00    +0.041 A 
ATOM     30  C   UNL     1       5.042   3.008   2.786  0.00  0.00    +0.020 A 
ATOM     31  C   UNL     1       5.035   1.933   1.917  0.00  0.00    +0.006 A 
ATOM     32 CL   UNL     1       4.183   5.418   3.674  0.00  0.00    -0.084 Cl
ENDBRANCH   6  26
BRANCH   7  33
ATOM     33  C   UNL     1       5.939   1.950  -1.500  0.00  0.00    +0.099 C 
ATOM     34  N   UNL     1       6.939   2.486  -1.541  0.00  0.00    -0.191 NA
ENDBRANCH   7  33
TORSDOF 2
