REMARK  Name = ZINC64526441
REMARK  7 active torsions:
REMARK  status: ('A' for Active; 'I' for Inactive)
REMARK    1  A    between atoms: C_1  and  N_2
REMARK    2  A    between atoms: N_9  and  C_14
REMARK    3  A    between atoms: C_14  and  C_15
REMARK    4  A    between atoms: C_18  and  C_21
REMARK    5  A    between atoms: N_23  and  C_24
REMARK    6  A    between atoms: C_24  and  C_25
REMARK    7  A    between atoms: C_25  and  C_26
REMARK                            x       y       z     vdW  Elec       q    Type
REMARK                         _______ _______ _______ _____ _____    ______ ____
ROOT
ATOM      1  C   UNL     1      -0.014  -4.776  -1.446  0.00  0.00    -0.028 A 
ATOM      2  C   UNL     1      -1.219  -4.986  -2.092  0.00  0.00    +0.006 A 
ATOM      3  C   UNL     1      -1.235  -5.438  -3.396  0.00  0.00    +0.013 A 
ATOM      4  C   UNL     1      -0.034  -5.684  -4.061  0.00  0.00    +0.037 A 
ATOM      5  C   UNL     1       1.178  -5.469  -3.403  0.00  0.00    +0.013 A 
ATOM      6  C   UNL     1       1.181  -5.011  -2.102  0.00  0.00    +0.006 A 
ENDROOT
BRANCH   4   7
ATOM      7  C   UNL     1      -0.044  -6.169  -5.458  0.00  0.00    +0.244 C 
ATOM      8  O   UNL     1      -1.101  -6.355  -6.029  0.00  0.00    -0.270 OA
ATOM      9  N   UNL     1       1.118  -6.405  -6.098  0.00  0.00    -0.311 N 
ATOM     10  H   UNL     1       1.962  -6.257  -5.643  0.00  0.00    +0.149 HD
BRANCH   9  11
ATOM     11  C   UNL     1       1.108  -6.886  -7.482  0.00  0.00    +0.109 C 
BRANCH  11  12
ATOM     12  C   UNL     1       2.547  -7.072  -7.968  0.00  0.00    +0.052 C 
BRANCH  12  13
ATOM     13  C   UNL     1       2.536  -7.566  -9.392  0.00  0.00    -0.040 C 
ATOM     14  C   UNL     1       2.642  -6.818 -10.513  0.00  0.00    -0.001 A 
ATOM     15  C   UNL     1       2.791  -5.375 -10.736  0.00  0.00    +0.010 A 
ATOM     16  C   UNL     1       2.872  -4.912 -12.003  0.00  0.00    +0.001 A 
ATOM     17  C   UNL     1       2.816  -5.772 -13.108  0.00  0.00    +0.002 A 
ATOM     18  C   UNL     1       2.679  -7.110 -12.984  0.00  0.00    +0.026 A 
ATOM     19  C   UNL     1       2.585  -7.706 -11.696  0.00  0.00    +0.043 A 
ATOM     20  N   UNL     1       2.450  -8.955 -11.321  0.00  0.00    -0.380 N 
ATOM     21  C   UNL     1       2.411  -9.001  -9.855  0.00  0.00    +0.144 C 
ATOM     22  H   UNL     1       2.390  -9.721 -11.913  0.00  0.00    +0.160 HD
ENDBRANCH  12  13
ENDBRANCH  11  12
ENDBRANCH   9  11
ENDBRANCH   4   7
BRANCH   1  23
ATOM     23  C   UNL     1      -0.003  -4.281  -0.022  0.00  0.00    +0.160 C 
BRANCH  23  32
ATOM     24  C   UNL     1      -0.018   1.461   0.010  0.00  0.00    +0.153 C 
ATOM     25  N   UNL     1       0.002  -0.004   0.002  0.00  0.00    -0.305 N 
ATOM     26  C   UNL     1      -1.194  -0.715   0.004  0.00  0.00    +0.068 A 
ATOM     27  C   UNL     1      -2.404  -0.029   0.013  0.00  0.00    +0.028 A 
ATOM     28  C   UNL     1      -3.594  -0.727   0.015  0.00  0.00    +0.002 A 
ATOM     29  C   UNL     1      -3.591  -2.112   0.008  0.00  0.00    +0.002 A 
ATOM     30  C   UNL     1      -2.397  -2.804  -0.001  0.00  0.00    +0.028 A 
ATOM     31  C   UNL     1      -1.191  -2.111  -0.004  0.00  0.00    +0.069 A 
ATOM     32  N   UNL     1       0.009  -2.816  -0.014  0.00  0.00    -0.298 N 
ATOM     33  C   UNL     1       1.183  -2.153  -0.015  0.00  0.00    +0.317 A 
ATOM     34  O   UNL     1       2.233  -2.764  -0.023  0.00  0.00    -0.262 OA
ATOM     35  C   UNL     1       1.179  -0.661  -0.013  0.00  0.00    +0.316 A 
ATOM     36  O   UNL     1       2.226  -0.045  -0.019  0.00  0.00    -0.262 OA
ENDBRANCH  23  32
ENDBRANCH   1  23
TORSDOF 6
