REMARK  Name = ZINC47036964
REMARK  5 active torsions:
REMARK  status: ('A' for Active; 'I' for Inactive)
REMARK    1  A    between atoms: C_3  and  N_10
REMARK    2  A    between atoms: C_5  and  N_7
REMARK    3  A    between atoms: N_10  and  N_11
REMARK    4  A    between atoms: N_14  and  C_15
REMARK    5  A    between atoms: C_15  and  C_16
REMARK                            x       y       z     vdW  Elec       q    Type
REMARK                         _______ _______ _______ _____ _____    ______ ____
ROOT
ATOM      1  N   UNL     1       3.565   3.523  -0.014  0.00  0.00    -0.220 N 
ATOM      2  C   UNL     1       4.724   4.211  -0.022  0.00  0.00    +0.316 C 
ATOM      3  O   UNL     1       4.709   5.427  -0.016  0.00  0.00    -0.251 OA
ATOM      4  N   UNL     1       5.899   3.552  -0.036  0.00  0.00    -0.294 N 
ATOM      5  H   UNL     1       2.719   3.998  -0.003  0.00  0.00    +0.174 HD
ATOM      6  H   UNL     1       5.911   2.582  -0.042  0.00  0.00    +0.151 HD
ENDROOT
BRANCH   1   7
ATOM      7  N   UNL     1       3.582   2.122  -0.021  0.00  0.00    -0.263 N 
ATOM      8  H   UNL     1       4.428   1.647  -0.032  0.00  0.00    +0.170 HD
BRANCH   7  11
ATOM      9  C   UNL     1      -0.017   1.378   0.010  0.00  0.00    +0.004 A 
ATOM     10  C   UNL     1       1.169   2.087   0.002  0.00  0.00    +0.024 A 
ATOM     11  C   UNL     1       2.381   1.409  -0.013  0.00  0.00    +0.047 A 
ATOM     12  C   UNL     1       2.396   0.020  -0.021  0.00  0.00    +0.057 A 
ATOM     13  C   UNL     1       1.207  -0.682  -0.013  0.00  0.00    +0.128 A 
ATOM     14  C   UNL     1       0.002  -0.004   0.002  0.00  0.00    +0.033 A 
BRANCH  13  15
ATOM     15  N   UNL     1       1.222  -2.163  -0.022  0.00  0.00    +0.056 N 
ATOM     16  O   UNL     1       2.276  -2.756  -0.035  0.00  0.00    -0.126 OA
ATOM     17  O   UNL     1       0.182  -2.778  -0.015  0.00  0.00    -0.126 OA
ENDBRANCH  13  15
ENDBRANCH   7  11
ENDBRANCH   1   7
BRANCH   4  18
ATOM     18  C   UNL     1       7.159   4.300  -0.045  0.00  0.00    +0.148 C 
BRANCH  18  19
ATOM     19  C   UNL     1       8.316   3.334  -0.061  0.00  0.00    +0.008 A 
ATOM     20  C   UNL     1       8.965   2.797  -1.123  0.00  0.00    +0.028 A 
ATOM     21  C   UNL     1      10.012   1.923  -0.897  0.00  0.00    +0.025 A 
ATOM     22  C   UNL     1      10.358   1.629   0.380  0.00  0.00    +0.060 A 
ATOM     23  S   UNL     1       9.193   2.608   1.314  0.00  0.00    -0.099 S 
ATOM     24 BR   UNL     1      10.946   1.149  -2.348  0.00  0.00    -0.050 Br
ENDBRANCH  18  19
ENDBRANCH   4  18
TORSDOF 5
