REMARK  Name = ZINC63280712
REMARK  6 active torsions:
REMARK  status: ('A' for Active; 'I' for Inactive)
REMARK    1  A    between atoms: C_1  and  C_2
REMARK    2  A    between atoms: C_2  and  C_3
REMARK    3  A    between atoms: C_2  and  C_4
REMARK    4  A    between atoms: C_4  and  C_6
REMARK    5  A    between atoms: C_4  and  N_14
REMARK    6  A    between atoms: C_23  and  C_25
REMARK                            x       y       z     vdW  Elec       q    Type
REMARK                         _______ _______ _______ _____ _____    ______ ____
ROOT
ATOM      1  N   UNL     1      -1.122  -1.429  -2.172  0.00  0.00    -0.288 N 
ATOM      2  C   UNL     1      -1.664  -0.253  -1.798  0.00  0.00    +0.303 C 
ATOM      3  O   UNL     1      -1.699   0.055  -0.623  0.00  0.00    -0.253 OA
ATOM      4  N   UNL     1      -2.168   0.582  -2.728  0.00  0.00    -0.283 N 
ATOM      5  C   UNL     1      -2.667   1.911  -2.348  0.00  0.00    +0.128 C 
ATOM      6  C   UNL     1      -1.939   2.967  -3.190  0.00  0.00    +0.127 C 
ATOM      7  N   UNL     1      -1.999   2.565  -4.602  0.00  0.00    -0.297 N 
ATOM      8  C   UNL     1      -1.500   1.236  -4.982  0.00  0.00    +0.127 C 
ATOM      9  C   UNL     1      -2.223   0.183  -4.142  0.00  0.00    +0.128 C 
ATOM     10  C   UNL     1      -2.503   3.401  -5.532  0.00  0.00    +0.242 C 
ATOM     11  O   UNL     1      -2.912   4.495  -5.206  0.00  0.00    -0.273 OA
ATOM     12  H   UNL     1      -1.032  -1.644  -3.113  0.00  0.00    +0.151 HD
ENDROOT
BRANCH  10  13
ATOM     13  C   UNL     1      -2.558   2.975  -6.977  0.00  0.00    +0.190 C 
ATOM     14  C   UNL     1      -3.453   1.766  -7.130  0.00  0.00    +0.016 C 
ATOM     15  C   UNL     1      -4.454   2.143  -7.957  0.00  0.00    -0.004 A 
ATOM     16  C   UNL     1      -5.625   1.436  -8.489  0.00  0.00    +0.010 A 
ATOM     17  C   UNL     1      -6.469   2.093  -9.316  0.00  0.00    +0.001 A 
ATOM     18  C   UNL     1      -6.255   3.431  -9.677  0.00  0.00    +0.002 A 
ATOM     19  C   UNL     1      -5.202   4.147  -9.229  0.00  0.00    +0.026 A 
ATOM     20  C   UNL     1      -4.250   3.555  -8.353  0.00  0.00    +0.043 A 
ATOM     21  N   UNL     1      -3.164   4.032  -7.793  0.00  0.00    -0.370 N 
ATOM     22  H   UNL     1      -2.819   4.933  -7.900  0.00  0.00    +0.161 HD
ENDBRANCH  10  13
BRANCH   1  23
ATOM     23  C   UNL     1      -0.670  -2.382  -1.155  0.00  0.00    +0.163 C 
BRANCH  23  24
ATOM     24  C   UNL     1       0.399  -3.270  -1.740  0.00  0.00    +0.239 C 
ATOM     25  O   UNL     1       0.515  -3.367  -2.943  0.00  0.00    -0.273 OA
ATOM     26  N   UNL     1       1.224  -3.957  -0.926  0.00  0.00    -0.263 N 
ATOM     27  C   UNL     1       2.144  -4.851  -1.462  0.00  0.00    +0.164 A 
ATOM     28  N   UNL     1       2.353  -5.149  -2.726  0.00  0.00    -0.233 NA
ATOM     29  C   UNL     1       3.274  -6.028  -3.076  0.00  0.00    +0.120 A 
ATOM     30  C   UNL     1       3.987  -6.604  -2.078  0.00  0.00    +0.068 A 
ATOM     31  S   UNL     1       3.265  -5.809  -0.651  0.00  0.00    -0.061 S 
ATOM     32  H   UNL     1       1.177  -3.827   0.034  0.00  0.00    +0.157 HD
ENDBRANCH  23  24
BRANCH  23  34
ATOM     33  C   UNL     1      -2.912  -2.344  -0.055  0.00  0.00    +0.009 C 
ATOM     34  C   UNL     1      -1.851  -3.240  -0.698  0.00  0.00    +0.012 C 
ATOM     35  C   UNL     1      -2.455  -3.961  -1.904  0.00  0.00    +0.009 C 
ENDBRANCH  23  34
ENDBRANCH   1  23
TORSDOF 4
