REMARK  Name = ZINC14727588
REMARK  13 active torsions:
REMARK  status: ('A' for Active; 'I' for Inactive)
REMARK    1  A    between atoms: C_1  and  C_2
REMARK    2  A    between atoms: C_2  and  C_32
REMARK    3  A    between atoms: C_3  and  C_4
REMARK    4  A    between atoms: C_4  and  C_5
REMARK    5  A    between atoms: C_6  and  O_31
REMARK    6  A    between atoms: C_7  and  C_26
REMARK    7  A    between atoms: C_10  and  O_11
REMARK    8  A    between atoms: C_14  and  C_18
REMARK    9  A    between atoms: C_21  and  O_25
REMARK   10  A    between atoms: C_23  and  O_24
REMARK   11  A    between atoms: C_26  and  C_27
REMARK   12  A    between atoms: C_28  and  C_29
REMARK   13  A    between atoms: C_28  and  C_30
REMARK                            x       y       z     vdW  Elec       q    Type
REMARK                         _______ _______ _______ _____ _____    ______ ____
ROOT
ATOM      1  C   UNL     1       5.598   0.424   2.240  0.00  0.00    +0.040 A 
ATOM      2  C   UNL     1       4.780   1.497   1.908  0.00  0.00    +0.131 A 
ATOM      3  C   UNL     1       3.411   1.443   2.141  0.00  0.00    +0.041 A 
ATOM      4  C   UNL     1       2.846   0.314   2.707  0.00  0.00    +0.141 A 
ATOM      5  C   UNL     1       3.671  -0.778   3.037  0.00  0.00    +0.102 A 
ATOM      6  C   UNL     1       5.054  -0.715   2.804  0.00  0.00    +0.138 A 
ATOM      7  C   UNL     1       3.064  -1.978   3.623  0.00  0.00    +0.181 C 
ATOM      8  O   UNL     1       3.679  -3.020   3.722  0.00  0.00    -0.291 OA
ATOM      9  C   UNL     1       1.626  -1.852   4.092  0.00  0.00    +0.131 C 
ATOM     10  C   UNL     1       0.879  -1.003   3.059  0.00  0.00    +0.245 C 
ATOM     11  O   UNL     1       1.514   0.271   2.943  0.00  0.00    -0.490 OA
ENDROOT
BRANCH   9  12
ATOM     12  C   UNL     1       1.583  -1.172   5.437  0.00  0.00    +0.008 A 
ATOM     13  C   UNL     1       2.093   0.104   5.582  0.00  0.00    +0.011 A 
ATOM     14  C   UNL     1       2.049   0.732   6.811  0.00  0.00    +0.046 A 
ATOM     15  C   UNL     1       1.504   0.078   7.907  0.00  0.00    +0.120 A 
ATOM     16  C   UNL     1       0.997  -1.204   7.766  0.00  0.00    +0.091 A 
ATOM     17  C   UNL     1       1.036  -1.831   6.529  0.00  0.00    +0.124 A 
BRANCH  17  18
ATOM     18  O   UNL     1       0.539  -3.087   6.387  0.00  0.00    -0.506 OA
ATOM     19  H   UNL     1       1.189  -3.787   6.541  0.00  0.00    +0.292 HD
ENDBRANCH  17  18
BRANCH  15  20
ATOM     20  O   UNL     1       1.467   0.694   9.118  0.00  0.00    -0.507 OA
ATOM     21  H   UNL     1       2.250   0.537   9.663  0.00  0.00    +0.292 HD
ENDBRANCH  15  20
ENDBRANCH   9  12
BRANCH   6  22
ATOM     22  O   UNL     1       5.850  -1.764   3.130  0.00  0.00    -0.506 OA
ATOM     23  H   UNL     1       5.960  -2.409   2.419  0.00  0.00    +0.292 HD
ENDBRANCH   6  22
BRANCH   2  24
ATOM     24  O   UNL     1       5.322   2.609   1.352  0.00  0.00    -0.506 OA
ATOM     25  H   UNL     1       5.356   2.589   0.385  0.00  0.00    +0.292 HD
ENDBRANCH   2  24
BRANCH   1  26
ATOM     26  C   UNL     1       7.082   0.502   1.984  0.00  0.00    +0.069 C 
BRANCH  26  29
ATOM     27  C   UNL     1       8.763   1.960   0.244  0.00  0.00    +0.038 C 
ATOM     28  C   UNL     1       8.083   0.703  -0.234  0.00  0.00    -0.079 C 
ATOM     29  C   UNL     1       7.381  -0.021   0.603  0.00  0.00    -0.023 C 
ATOM     30  C   UNL     1       8.212   0.278  -1.674  0.00  0.00    +0.038 C 
ENDBRANCH  26  29
ENDBRANCH   1  26
BRANCH   3  31
ATOM     31  C   UNL     1       2.540   2.617   1.776  0.00  0.00    +0.069 C 
BRANCH  31  32
ATOM     32  C   UNL     1       2.051   2.459   0.360  0.00  0.00    -0.023 C 
ATOM     33  C   UNL     1       0.766   2.468   0.105  0.00  0.00    -0.079 C 
ATOM     34  C   UNL     1      -0.226   2.501   1.239  0.00  0.00    +0.038 C 
ATOM     35  C   UNL     1       0.280   2.445  -1.321  0.00  0.00    +0.038 C 
ENDBRANCH  31  32
ENDBRANCH   3  31
TORSDOF 9
