REMARK  Name = ZINC40144215
REMARK  6 active torsions:
REMARK  status: ('A' for Active; 'I' for Inactive)
REMARK    1  A    between atoms: C_10  and  C_11
REMARK    2  A    between atoms: C_11  and  C_13
REMARK    3  A    between atoms: C_11  and  N_26
REMARK    4  A    between atoms: C_13  and  C_15
REMARK    5  A    between atoms: C_13  and  C_17
REMARK    6  A    between atoms: C_27  and  N_28
REMARK                            x       y       z     vdW  Elec       q    Type
REMARK                         _______ _______ _______ _____ _____    ______ ____
ROOT
ATOM      1  C   UNL     1       4.960   0.161  -0.046  0.00  0.00    +0.161 C 
ENDROOT
BRANCH   1  11
ATOM      2  C   UNL     1       0.080   1.672  -0.358  0.00  0.00    +0.001 A 
ATOM      3  C   UNL     1       1.296   2.320  -0.146  0.00  0.00    +0.001 A 
ATOM      4  C   UNL     1       2.465   1.624  -0.115  0.00  0.00    +0.009 A 
ATOM      5  C   UNL     1       2.450   0.231  -0.299  0.00  0.00    -0.013 A 
ATOM      6  C   UNL     1       1.213  -0.428  -0.514  0.00  0.00    -0.018 A 
ATOM      7  C   UNL     1       0.026   0.325  -0.540  0.00  0.00    +0.008 A 
ATOM      8  C   UNL     1       1.198  -1.821  -0.698  0.00  0.00    +0.008 A 
ATOM      9  C   UNL     1       2.367  -2.517  -0.667  0.00  0.00    +0.001 A 
ATOM     10  C   UNL     1       3.582  -1.869  -0.454  0.00  0.00    +0.006 A 
ATOM     11  C   UNL     1       3.636  -0.521  -0.273  0.00  0.00    -0.014 A 
ENDBRANCH   1  11
BRANCH   1  12
ATOM     12  N   UNL     1       6.042  -0.699  -0.533  0.00  0.00    -0.261 N 
ATOM     13  C   UNL     1       6.885  -0.420  -1.578  0.00  0.00    +0.117 A 
ATOM     14  C   UNL     1       7.750  -1.468  -1.714  0.00  0.00    +0.114 A 
ATOM     15  C   UNL     1       7.437  -2.420  -0.732  0.00  0.00    +0.266 A 
ATOM     16  O   UNL     1       8.005  -3.484  -0.559  0.00  0.00    -0.266 OA
ATOM     17  N   UNL     1       6.401  -1.948  -0.010  0.00  0.00    -0.261 N 
ATOM     18  H   UNL     1       5.977  -2.396   0.739  0.00  0.00    +0.190 HD
BRANCH  13  19
ATOM     19  N   UNL     1       6.864   0.713  -2.350  0.00  0.00    -0.343 N 
ATOM     20  H   UNL     1       6.209   1.407  -2.176  0.00  0.00    +0.144 HD
ATOM     21  H   UNL     1       7.505   0.821  -3.071  0.00  0.00    +0.144 HD
ENDBRANCH  13  19
ENDBRANCH   1  12
BRANCH   1  22
ATOM     22  C   UNL     1       5.150   0.421   1.450  0.00  0.00    +0.176 C 
BRANCH  22  23
ATOM     23  C   UNL     1       6.415   1.211   1.666  0.00  0.00    +0.099 A 
ATOM     24  N   UNL     1       7.630   0.876   1.341  0.00  0.00    -0.243 NA
ATOM     25  C   UNL     1       8.687   1.677   1.589  0.00  0.00    +0.079 A 
ATOM     26  C   UNL     1      10.056   1.480   1.312  0.00  0.00    +0.029 A 
ATOM     27  C   UNL     1      10.973   2.427   1.651  0.00  0.00    +0.002 A 
ATOM     28  C   UNL     1      10.601   3.610   2.275  0.00  0.00    +0.001 A 
ATOM     29  C   UNL     1       9.269   3.838   2.562  0.00  0.00    +0.017 A 
ATOM     30  C   UNL     1       8.335   2.889   2.225  0.00  0.00    +0.039 A 
ATOM     31  S   UNL     1       6.575   2.729   2.374  0.00  0.00    -0.071 S 
ENDBRANCH  22  23
BRANCH  22  32
ATOM     32  C   UNL     1       5.246  -0.863   2.163  0.00  0.00    +0.075 C 
ATOM     33  N   UNL     1       5.320  -1.854   2.713  0.00  0.00    -0.196 NA
ENDBRANCH  22  32
ENDBRANCH   1  22
TORSDOF 6
