REMARK  Name = ZINC40865519
REMARK  7 active torsions:
REMARK  status: ('A' for Active; 'I' for Inactive)
REMARK    1  A    between atoms: C_1  and  O_2
REMARK    2  A    between atoms: O_2  and  C_3
REMARK    3  A    between atoms: C_6  and  N_9
REMARK    4  A    between atoms: C_12  and  C_14
REMARK    5  A    between atoms: N_20  and  C_23
REMARK    6  A    between atoms: C_26  and  C_29
REMARK    7  A    between atoms: C_29  and  N_32
REMARK                            x       y       z     vdW  Elec       q    Type
REMARK                         _______ _______ _______ _____ _____    ______ ____
ROOT
ATOM      1  N   UNL     1      -4.885  -2.529  -0.033  0.00  0.00    -0.227 N 
ATOM      2  C   UNL     1      -5.183  -3.661  -0.704  0.00  0.00    +0.133 A 
ATOM      3  C   UNL     1      -6.491  -3.997  -0.352  0.00  0.00    +0.016 A 
ATOM      4  C   UNL     1      -6.905  -3.014   0.521  0.00  0.00    +0.170 A 
ATOM      5  N   UNL     1      -5.905  -2.171   0.674  0.00  0.00    -0.161 NA
ATOM      6  C   UNL     1      -7.166  -5.223  -0.895  0.00  0.00    +0.059 C 
ATOM      7  C   UNL     1      -6.568  -5.547  -2.267  0.00  0.00    +0.119 C 
ATOM      8  N   UNL     1      -5.113  -5.478  -2.276  0.00  0.00    -0.266 N 
ATOM      9  C   UNL     1      -4.422  -4.508  -1.632  0.00  0.00    +0.270 C 
ATOM     10  O   UNL     1      -3.230  -4.346  -1.813  0.00  0.00    -0.268 OA
ENDROOT
BRANCH   1  14
ATOM     11  C   UNL     1      -1.239  -0.512  -0.203  0.00  0.00    +0.120 A 
ATOM     12  C   UNL     1      -1.817  -0.999  -1.367  0.00  0.00    +0.048 A 
ATOM     13  C   UNL     1      -3.024  -1.667  -1.311  0.00  0.00    +0.031 A 
ATOM     14  C   UNL     1      -3.660  -1.852  -0.090  0.00  0.00    +0.066 A 
ATOM     15  C   UNL     1      -3.081  -1.364   1.074  0.00  0.00    +0.031 A 
ATOM     16  C   UNL     1      -1.871  -0.701   1.018  0.00  0.00    +0.048 A 
BRANCH  11  18
ATOM     17  C   UNL     1       0.543   0.304  -1.549  0.00  0.00    +0.277 C 
ATOM     18  O   UNL     1      -0.051   0.145  -0.259  0.00  0.00    -0.495 OA
ENDBRANCH  11  18
ENDBRANCH   1  14
BRANCH   8  19
ATOM     19  C   UNL     1      -4.400  -6.455  -2.979  0.00  0.00    +0.037 A 
ATOM     20  C   UNL     1      -3.616  -7.373  -2.292  0.00  0.00    +0.024 A 
ATOM     21  C   UNL     1      -2.914  -8.336  -2.990  0.00  0.00    +0.004 A 
ATOM     22  C   UNL     1      -2.990  -8.387  -4.370  0.00  0.00    -0.059 A 
ATOM     23  C   UNL     1      -3.770  -7.474  -5.056  0.00  0.00    +0.004 A 
ATOM     24  C   UNL     1      -4.479  -6.512  -4.364  0.00  0.00    +0.024 A 
BRANCH  22  25
ATOM     25  C   UNL     1      -2.222  -9.439  -5.127  0.00  0.00    -0.045 C 
ATOM     26  C   UNL     1      -1.577  -9.026  -6.452  0.00  0.00    -0.009 C 
ATOM     27  C   UNL     1      -2.812  -9.929  -6.451  0.00  0.00    -0.009 C 
BRANCH  25  28
ATOM     28  N   UNL     1      -1.505 -10.419  -4.300  0.00  0.00    +0.384 N 
ATOM     29  H   UNL     1      -2.131 -11.169  -4.049  0.00  0.00    -0.089 HD
ATOM     30  H   UNL     1      -0.724 -10.791  -4.820  0.00  0.00    -0.089 HD
ATOM     31  H   UNL     1      -1.167  -9.969  -3.462  0.00  0.00    -0.089 HD
ENDBRANCH  25  28
ENDBRANCH  22  25
ENDBRANCH   8  19
BRANCH   4  32
ATOM     32  C   UNL     1      -8.255  -2.922   1.184  0.00  0.00    +0.436 C 
ATOM     33  F   UNL     1      -8.223  -3.606   2.404  0.00  0.00    -0.164 F 
ATOM     34  F   UNL     1      -8.574  -1.579   1.410  0.00  0.00    -0.164 F 
ATOM     35  F   UNL     1      -9.222  -3.497   0.352  0.00  0.00    -0.164 F 
ENDBRANCH   4  32
TORSDOF 6
