REMARK  Name = ZINC09683036
REMARK  6 active torsions:
REMARK  status: ('A' for Active; 'I' for Inactive)
REMARK    1  A    between atoms: C_1  and  C_2
REMARK    2  A    between atoms: C_2  and  C_4
REMARK    3  A    between atoms: C_2  and  C_16
REMARK    4  A    between atoms: C_9  and  O_14
REMARK    5  A    between atoms: O_14  and  C_15
REMARK    6  A    between atoms: N_18  and  N_19
REMARK                            x       y       z     vdW  Elec       q    Type
REMARK                         _______ _______ _______ _____ _____    ______ ____
ROOT
ATOM      1  C   UNL     1      -0.578  -4.804   1.210  0.00  0.00    +0.237 C 
ATOM      2  O   UNL     1      -1.044  -4.028   2.017  0.00  0.00    -0.274 OA
ATOM      3  N   UNL     1      -0.679  -6.132   1.416  0.00  0.00    -0.223 N 
ATOM      4  H   UNL     1      -0.307  -6.753   0.770  0.00  0.00    +0.174 HD
ENDROOT
BRANCH   3   5
ATOM      5  N   UNL     1      -1.322  -6.616   2.563  0.00  0.00    -0.137 N 
ATOM      6  C   UNL     1      -2.556  -7.160   2.569  0.00  0.00    +0.263 C 
ATOM      7  O   UNL     1      -3.293  -7.318   1.619  0.00  0.00    -0.271 OA
ATOM      8  C   UNL     1      -2.827  -7.532   4.008  0.00  0.00    +0.114 C 
ATOM      9  C   UNL     1      -3.039  -9.036   4.138  0.00  0.00    +0.035 C 
ATOM     10  C   UNL     1      -3.284  -9.396   5.605  0.00  0.00    +0.003 C 
ATOM     11  C   UNL     1      -4.516  -8.645   6.114  0.00  0.00    +0.000 C 
ATOM     12  C   UNL     1      -4.278  -7.137   6.002  0.00  0.00    +0.003 C 
ATOM     13  C   UNL     1      -4.037  -6.769   4.535  0.00  0.00    +0.035 C 
ATOM     14  N   UNL     1      -1.609  -7.121   4.718  0.00  0.00    -0.284 N 
ATOM     15  C   UNL     1      -0.784  -6.601   3.789  0.00  0.00    +0.326 C 
ATOM     16  O   UNL     1       0.323  -6.165   4.037  0.00  0.00    -0.251 OA
ATOM     17  H   UNL     1      -1.433  -7.210   5.668  0.00  0.00    +0.151 HD
ENDBRANCH   3   5
BRANCH   1  19
ATOM     18  C   UNL     1      -0.613  -4.797  -1.270  0.00  0.00    +0.022 C 
ATOM     19  C   UNL     1       0.113  -4.284  -0.024  0.00  0.00    +0.103 C 
BRANCH  19  20
ATOM     20  C   UNL     1       0.089  -2.777  -0.015  0.00  0.00    -0.035 A 
ATOM     21  C   UNL     1      -1.134  -2.109   0.001  0.00  0.00    +0.005 A 
ATOM     22  C   UNL     1      -1.190  -0.749   0.009  0.00  0.00    +0.009 A 
ATOM     23  C   UNL     1       0.002  -0.004   0.002  0.00  0.00    -0.014 A 
ATOM     24  C   UNL     1      -0.017   1.400   0.010  0.00  0.00    +0.054 A 
ATOM     25  C   UNL     1       1.161   2.091   0.002  0.00  0.00    +0.121 A 
ATOM     26  C   UNL     1       2.387   1.419  -0.013  0.00  0.00    +0.046 A 
ATOM     27  C   UNL     1       2.439   0.060  -0.021  0.00  0.00    +0.012 A 
ATOM     28  C   UNL     1       1.246  -0.683  -0.013  0.00  0.00    -0.017 A 
ATOM     29  C   UNL     1       1.264  -2.088  -0.021  0.00  0.00    +0.013 A 
BRANCH  25  30
ATOM     30  O   UNL     1       1.141   3.450   0.009  0.00  0.00    -0.495 OA
ATOM     31  C   UNL     1       2.405   4.117   0.001  0.00  0.00    +0.277 C 
ENDBRANCH  25  30
ENDBRANCH  19  20
ENDBRANCH   1  19
TORSDOF 4
