REMARK  Name = ZINC39579363
REMARK  3 active torsions:
REMARK  status: ('A' for Active; 'I' for Inactive)
REMARK    1  A    between atoms: N_8  and  N_9
REMARK    2  A    between atoms: C_10  and  C_12
REMARK    3  A    between atoms: C_15  and  C_18
REMARK                            x       y       z     vdW  Elec       q    Type
REMARK                         _______ _______ _______ _____ _____    ______ ____
ROOT
ATOM      1  C   UNL     1       1.025  -6.909  -0.041  0.00  0.00    +0.240 C 
ATOM      2  C   UNL     1       1.393  -7.335  -1.451  0.00  0.00    +0.041 C 
ATOM      3  C   UNL     1       0.586  -8.387  -1.692  0.00  0.00    +0.092 C 
ATOM      4  N   UNL     1      -0.205  -8.634  -0.614  0.00  0.00    -0.153 NA
ATOM      5  N   UNL     1      -0.026  -7.867   0.340  0.00  0.00    -0.170 NA
ENDROOT
BRANCH   3   6
ATOM      6  C   UNL     1       0.562  -9.164  -2.953  0.00  0.00    +0.010 A 
ATOM      7  C   UNL     1       1.316  -8.764  -4.047  0.00  0.00    +0.011 A 
ATOM      8  C   UNL     1       1.314  -9.476  -5.245  0.00  0.00    +0.005 A 
ATOM      9  C   UNL     1       0.560 -10.604  -5.379  0.00  0.00    -0.039 A 
ATOM     10  C   UNL     1      -0.203 -11.021  -4.293  0.00  0.00    -0.011 A 
ATOM     11  C   UNL     1      -0.224 -10.335  -3.067  0.00  0.00    -0.008 A 
ATOM     12  C   UNL     1      -1.024 -10.851  -2.038  0.00  0.00    +0.009 A 
ATOM     13  C   UNL     1      -1.739 -11.991  -2.268  0.00  0.00    +0.001 A 
ATOM     14  C   UNL     1      -1.700 -12.661  -3.493  0.00  0.00    +0.004 A 
ATOM     15  C   UNL     1      -0.941 -12.180  -4.516  0.00  0.00    -0.039 A 
ATOM     16  C   UNL     1      -0.662 -12.629  -5.929  0.00  0.00    +0.040 C 
ATOM     17  C   UNL     1       0.328 -11.589  -6.499  0.00  0.00    +0.040 C 
ENDBRANCH   3   6
BRANCH   1  19
ATOM     18  N   UNL     1       1.339  -4.455  -0.029  0.00  0.00    -0.204 N 
ATOM     19  C   UNL     1       0.488  -5.500  -0.034  0.00  0.00    +0.263 C 
ATOM     20  O   UNL     1      -0.709  -5.308  -0.034  0.00  0.00    -0.271 OA
ATOM     21  H   UNL     1       2.296  -4.609  -0.029  0.00  0.00    +0.177 HD
BRANCH  18  29
ATOM     22  C   UNL     1       0.123   1.385   0.002  0.00  0.00    +0.001 A 
ATOM     23  C   UNL     1       1.323   2.076   0.005  0.00  0.00    +0.002 A 
ATOM     24  C   UNL     1       2.525   1.398   0.003  0.00  0.00    +0.024 A 
ATOM     25  C   UNL     1       2.541   0.007  -0.005  0.00  0.00    +0.043 A 
ATOM     26  C   UNL     1       1.325  -0.688  -0.009  0.00  0.00    +0.028 A 
ATOM     27  C   UNL     1       0.119   0.005  -0.006  0.00  0.00    +0.012 A 
ATOM     28  C   UNL     1       1.667  -2.129  -0.016  0.00  0.00    +0.152 C 
ATOM     29  N   UNL     1       0.840  -3.146  -0.022  0.00  0.00    -0.174 NA
ATOM     30  C   UNL     1       3.143  -2.171  -0.016  0.00  0.00    +0.269 C 
ATOM     31  O   UNL     1       3.832  -3.174  -0.021  0.00  0.00    -0.268 OA
ATOM     32  N   UNL     1       3.592  -0.904  -0.009  0.00  0.00    -0.280 N 
ATOM     33  H   UNL     1       4.530  -0.656  -0.008  0.00  0.00    +0.155 HD
ENDBRANCH  18  29
ENDBRANCH   1  19
TORSDOF 3
