REMARK  Name = ZINC35191335
REMARK  11 active torsions:
REMARK  status: ('A' for Active; 'I' for Inactive)
REMARK    1  A    between atoms: C_1  and  C_2
REMARK    2  A    between atoms: N_8  and  C_9
REMARK    3  A    between atoms: C_9  and  C_10
REMARK    4  A    between atoms: C_10  and  C_11
REMARK    5  A    between atoms: C_11  and  N_12
REMARK    6  A    between atoms: C_13  and  C_15
REMARK    7  A    between atoms: C_15  and  S_16
REMARK    8  A    between atoms: S_16  and  C_17
REMARK    9  A    between atoms: C_17  and  S_18
REMARK   10  A    between atoms: S_18  and  C_19
REMARK   11  A    between atoms: N_29  and  C_30
REMARK                            x       y       z     vdW  Elec       q    Type
REMARK                         _______ _______ _______ _____ _____    ______ ____
ROOT
ATOM      1  S   UNL     1      10.763  -1.845   7.887  0.00  0.00    -0.076 S 
ENDROOT
BRANCH   1   2
ATOM      2  C   UNL     1      11.584  -1.773   6.330  0.00  0.00    +0.177 A 
ATOM      3  N   UNL     1      12.100  -0.631   5.948  0.00  0.00    -0.223 NA
ATOM      4  C   UNL     1      12.742  -0.504   4.769  0.00  0.00    +0.079 A 
ATOM      5  C   UNL     1      13.293   0.715   4.362  0.00  0.00    +0.028 A 
ATOM      6  C   UNL     1      13.936   0.798   3.159  0.00  0.00    +0.002 A 
ATOM      7  C   UNL     1      14.051  -0.311   2.332  0.00  0.00    +0.001 A 
ATOM      8  C   UNL     1      13.522  -1.517   2.701  0.00  0.00    +0.015 A 
ATOM      9  C   UNL     1      12.861  -1.631   3.924  0.00  0.00    +0.065 A 
ATOM     10  C   UNL     1      12.274  -2.901   4.373  0.00  0.00    +0.267 A 
ATOM     11  O   UNL     1      12.345  -3.906   3.690  0.00  0.00    -0.267 OA
ATOM     12  N   UNL     1      11.658  -2.913   5.578  0.00  0.00    -0.255 N 
BRANCH  12  13
ATOM     13  C   UNL     1      11.086  -4.100   6.056  0.00  0.00    +0.052 A 
ATOM     14  C   UNL     1       9.764  -4.404   5.758  0.00  0.00    +0.029 A 
ATOM     15  C   UNL     1       9.203  -5.574   6.229  0.00  0.00    +0.040 A 
ATOM     16  C   UNL     1       9.957  -6.444   6.998  0.00  0.00    +0.124 A 
ATOM     17  C   UNL     1      11.275  -6.143   7.297  0.00  0.00    +0.040 A 
ATOM     18  C   UNL     1      11.842  -4.976   6.822  0.00  0.00    +0.029 A 
ATOM     19  F   UNL     1       9.406  -7.589   7.459  0.00  0.00    -0.205 F 
ENDBRANCH  12  13
ENDBRANCH   1   2
BRANCH   1  20
ATOM     20  C   UNL     1      10.896  -0.155   8.532  0.00  0.00    +0.146 C 
BRANCH  20  21
ATOM     21  S   UNL     1       9.734   0.922   7.649  0.00  0.00    -0.140 S 
BRANCH  21  22
ATOM     22  C   UNL     1       8.116   0.482   8.340  0.00  0.00    +0.165 C 
BRANCH  22  24
ATOM     23  N   UNL     1       5.755   1.159   8.042  0.00  0.00    -0.315 N 
ATOM     24  C   UNL     1       7.045   1.315   7.684  0.00  0.00    +0.223 C 
ATOM     25  O   UNL     1       7.345   2.127   6.834  0.00  0.00    -0.275 OA
ATOM     26  H   UNL     1       5.516   0.510   8.722  0.00  0.00    +0.149 HD
BRANCH  23  27
ATOM     27  C   UNL     1       4.715   1.969   7.404  0.00  0.00    +0.102 C 
BRANCH  27  28
ATOM     28  C   UNL     1       3.350   1.597   7.987  0.00  0.00    +0.000 C 
BRANCH  28  29
ATOM     29  C   UNL     1       2.263   2.444   7.321  0.00  0.00    -0.077 C 
BRANCH  29  36
ATOM     30  C   UNL     1       0.305   4.433   7.623  0.00  0.00    -0.013 C 
ATOM     31  C   UNL     1      -0.073   2.980   7.329  0.00  0.00    -0.072 C 
ATOM     32  C   UNL     1      -1.426   2.666   7.970  0.00  0.00    -0.016 C 
ATOM     33  C   UNL     1      -1.800   1.211   7.672  0.00  0.00    -0.003 C 
ATOM     34  C   UNL     1      -0.688   0.293   8.185  0.00  0.00    -0.019 C 
ATOM     35  C   UNL     1       0.638   0.695   7.536  0.00  0.00    -0.078 C 
ATOM     36  N   UNL     1       0.953   2.087   7.880  0.00  0.00    +0.381 N 
ATOM     37  H   UNL     1       0.979   2.187   8.884  0.00  0.00    -0.081 HD
ENDBRANCH  29  36
ENDBRANCH  28  29
ENDBRANCH  27  28
ENDBRANCH  23  27
ENDBRANCH  22  24
ENDBRANCH  21  22
ENDBRANCH  20  21
ENDBRANCH   1  20
TORSDOF 10
