REMARK  Name = ZINC27068065
REMARK  7 active torsions:
REMARK  status: ('A' for Active; 'I' for Inactive)
REMARK    1  A    between atoms: C_1  and  C_2
REMARK    2  A    between atoms: C_2  and  C_4
REMARK    3  A    between atoms: C_2  and  O_18
REMARK    4  A    between atoms: N_6  and  C_7
REMARK    5  A    between atoms: C_8  and  C_15
REMARK    6  A    between atoms: O_18  and  C_19
REMARK    7  A    between atoms: C_19  and  C_21
REMARK                            x       y       z     vdW  Elec       q    Type
REMARK                         _______ _______ _______ _____ _____    ______ ____
ROOT
ATOM      1  C   UNL     1       0.711  -0.444   1.236  0.00  0.00    +0.258 C 
ATOM      2  O   UNL     1       0.114  -1.069   2.086  0.00  0.00    -0.271 OA
ATOM      3  N   UNL     1       2.023  -0.177   1.392  0.00  0.00    -0.276 N 
ATOM      4  H   UNL     1       2.501   0.323   0.712  0.00  0.00    +0.155 HD
ENDROOT
BRANCH   3   5
ATOM      5  C   UNL     1       2.690  -0.619   2.525  0.00  0.00    +0.084 A 
ATOM      6  C   UNL     1       4.020  -0.436   2.853  0.00  0.00    +0.068 A 
ATOM      7  C   UNL     1       4.482  -1.006   4.118  0.00  0.00    -0.023 A 
ATOM      8  C   UNL     1       3.526  -1.650   4.811  0.00  0.00    -0.004 A 
ATOM      9  S   UNL     1       2.067  -1.492   3.814  0.00  0.00    -0.077 S 
ATOM     10  C   UNL     1       4.055  -2.219   6.100  0.00  0.00    +0.043 C 
ATOM     11  C   UNL     1       5.590  -2.214   5.928  0.00  0.00    +0.010 C 
ATOM     12  C   UNL     1       5.789  -1.077   4.906  0.00  0.00    +0.037 C 
BRANCH   6  13
ATOM     13  C   UNL     1       4.931   0.299   1.970  0.00  0.00    +0.244 C 
ATOM     14  O   UNL     1       5.063   1.502   2.097  0.00  0.00    -0.270 OA
ATOM     15  N   UNL     1       5.621  -0.358   1.016  0.00  0.00    -0.325 N 
ATOM     16  H   UNL     1       5.515  -1.317   0.915  0.00  0.00    +0.145 HD
ATOM     17  H   UNL     1       6.223   0.128   0.432  0.00  0.00    +0.145 HD
ENDBRANCH   6  13
ENDBRANCH   3   5
BRANCH   1  19
ATOM     18  C   UNL     1      -0.042   1.566  -0.007  0.00  0.00    +0.062 C 
ATOM     19  C   UNL     1      -0.014   0.036   0.005  0.00  0.00    +0.259 C 
BRANCH  19  20
ATOM     20  O   UNL     1      -1.352  -0.465   0.014  0.00  0.00    -0.448 OA
BRANCH  20  21
ATOM     21  C   UNL     1      -1.930  -0.689  -1.182  0.00  0.00    +0.362 C 
ATOM     22  O   UNL     1      -1.314  -0.464  -2.206  0.00  0.00    -0.243 OA
BRANCH  21  23
ATOM     23  C   UNL     1      -3.310  -1.206  -1.250  0.00  0.00    +0.187 A 
ATOM     24  C   UNL     1      -3.958  -1.330  -2.491  0.00  0.00    +0.149 A 
ATOM     25  N   UNL     1      -5.201  -1.797  -2.540  0.00  0.00    -0.237 NA
ATOM     26  C   UNL     1      -5.820  -2.142  -1.426  0.00  0.00    +0.132 A 
ATOM     27  C   UNL     1      -5.180  -2.019  -0.201  0.00  0.00    +0.131 A 
ATOM     28  N   UNL     1      -3.946  -1.563  -0.137  0.00  0.00    -0.244 NA
ATOM     29  N   UNL     1      -3.306  -0.967  -3.654  0.00  0.00    -0.341 N 
ATOM     30  H   UNL     1      -2.374  -0.700  -3.625  0.00  0.00    +0.144 HD
ATOM     31  H   UNL     1      -3.780  -0.979  -4.500  0.00  0.00    +0.144 HD
ENDBRANCH  21  23
ENDBRANCH  20  21
ENDBRANCH  19  20
ENDBRANCH   1  19
TORSDOF 6
