REMARK  Name = ZINC04694132
REMARK  1 active torsions:
REMARK  status: ('A' for Active; 'I' for Inactive)
REMARK    1  A    between atoms: C_6  and  N_7
REMARK                            x       y       z     vdW  Elec       q    Type
REMARK                         _______ _______ _______ _____ _____    ______ ____
ROOT
ATOM      1  C   UNL     1      -6.631  -0.589   0.154  0.00  0.00    +0.034 A 
ATOM      2  C   UNL     1      -5.573  -1.327   0.640  0.00  0.00    +0.026 A 
ATOM      3  C   UNL     1      -4.274  -0.837   0.576  0.00  0.00    +0.042 A 
ATOM      4  C   UNL     1      -4.058   0.439   0.019  0.00  0.00    -0.019 A 
ATOM      5  C   UNL     1      -5.123   1.161  -0.472  0.00  0.00    +0.038 A 
ATOM      6  C   UNL     1      -6.408   0.655  -0.407  0.00  0.00    +0.127 A 
ATOM      7  C   UNL     1      -2.685   0.920   0.028  0.00  0.00    +0.041 C 
ATOM      8  C   UNL     1      -2.114   2.181  -0.585  0.00  0.00    -0.002 C 
ATOM      9  C   UNL     1      -0.789   1.612  -1.224  0.00  0.00    +0.004 C 
ATOM     10  C   UNL     1      -0.013   1.086   0.008  0.00  0.00    +0.005 C 
ATOM     11  C   UNL     1      -0.767   1.600   1.264  0.00  0.00    +0.007 C 
ATOM     12  C   UNL     1      -1.445   2.898   0.654  0.00  0.00    +0.009 C 
ATOM     13  C   UNL     1      -2.062   0.777   1.441  0.00  0.00    +0.108 C 
ATOM     14  S   UNL     1      -1.802  -1.001   1.650  0.00  0.00    +0.114 S 
ATOM     15  O   UNL     1      -1.834  -1.325   3.034  0.00  0.00    -0.237 OA
ATOM     16  N   UNL     1      -3.228  -1.623   1.058  0.00  0.00    -0.264 N 
ATOM     17  H   UNL     1      -3.337  -2.587   1.048  0.00  0.00    +0.162 HD
ENDROOT
BRANCH   6  18
ATOM     18  N   UNL     1      -7.543   1.444  -0.936  0.00  0.00    +0.056 N 
ATOM     19  O   UNL     1      -7.345   2.540  -1.430  0.00  0.00    -0.126 OA
ATOM     20  O   UNL     1      -8.674   0.998  -0.878  0.00  0.00    -0.126 OA
ENDBRANCH   6  18
TORSDOF 1
