REMARK  Name = ZINC45970952
REMARK  4 active torsions:
REMARK  status: ('A' for Active; 'I' for Inactive)
REMARK    1  A    between atoms: N_11  and  C_12
REMARK    2  A    between atoms: C_12  and  C_13
REMARK    3  A    between atoms: N_15  and  N_16
REMARK    4  A    between atoms: N_16  and  C_17
REMARK                            x       y       z     vdW  Elec       q    Type
REMARK                         _______ _______ _______ _____ _____    ______ ____
ROOT
ATOM      1  C   UNL     1       5.342   0.391   1.372  0.00  0.00    +0.249 C 
ATOM      2  O   UNL     1       4.675  -0.019   2.299  0.00  0.00    -0.272 OA
ATOM      3  N   UNL     1       6.481   1.071   1.610  0.00  0.00    -0.235 N 
ATOM      4  H   UNL     1       7.014   1.398   0.869  0.00  0.00    +0.173 HD
ENDROOT
BRANCH   3   5
ATOM      5  N   UNL     1       6.895   1.304   2.928  0.00  0.00    -0.264 N 
ATOM      6  H   UNL     1       6.361   0.977   3.669  0.00  0.00    +0.170 HD
BRANCH   5   7
ATOM      7  C   UNL     1       8.076   2.010   3.175  0.00  0.00    +0.045 A 
ATOM      8  C   UNL     1       8.838   2.484   2.115  0.00  0.00    +0.027 A 
ATOM      9  C   UNL     1      10.005   3.181   2.361  0.00  0.00    +0.040 A 
ATOM     10  C   UNL     1      10.416   3.406   3.664  0.00  0.00    +0.124 A 
ATOM     11  C   UNL     1       9.658   2.934   4.723  0.00  0.00    +0.040 A 
ATOM     12  C   UNL     1       8.488   2.242   4.481  0.00  0.00    +0.027 A 
ATOM     13  F   UNL     1      11.557   4.088   3.903  0.00  0.00    -0.205 F 
ENDBRANCH   5   7
ENDBRANCH   3   5
BRANCH   1  14
ATOM     14  C   UNL     1       4.897   0.139  -0.045  0.00  0.00    +0.222 C 
BRANCH  14  25
ATOM     15  C   UNL     1      -0.016   1.360   0.009  0.00  0.00    +0.002 A 
ATOM     16  C   UNL     1       1.169   2.084   0.002  0.00  0.00    +0.002 A 
ATOM     17  C   UNL     1       2.384   1.437  -0.013  0.00  0.00    +0.028 A 
ATOM     18  C   UNL     1       2.428   0.046  -0.021  0.00  0.00    +0.071 A 
ATOM     19  C   UNL     1       1.227  -0.689  -0.013  0.00  0.00    +0.088 A 
ATOM     20  C   UNL     1       0.002  -0.004   0.002  0.00  0.00    +0.030 A 
ATOM     21  N   UNL     1       1.248  -2.035  -0.021  0.00  0.00    -0.248 NA
ATOM     22  C   UNL     1       2.374  -2.689  -0.036  0.00  0.00    +0.181 A 
ATOM     23  C   UNL     1       3.650  -1.965  -0.044  0.00  0.00    +0.270 A 
ATOM     24  O   UNL     1       4.704  -2.574  -0.059  0.00  0.00    -0.266 OA
ATOM     25  N   UNL     1       3.640  -0.614  -0.036  0.00  0.00    -0.297 N 
ENDBRANCH  14  25
ENDBRANCH   1  14
TORSDOF 4
