REMARK  Name = ZINC39351807
REMARK  3 active torsions:
REMARK  status: ('A' for Active; 'I' for Inactive)
REMARK    1  A    between atoms: C_4  and  C_7
REMARK    2  A    between atoms: C_12  and  C_13
REMARK    3  A    between atoms: C_17  and  C_19
REMARK                            x       y       z     vdW  Elec       q    Type
REMARK                         _______ _______ _______ _____ _____    ______ ____
ROOT
ATOM      1  C   UNL     1       3.672  -0.740  -0.076  0.00  0.00    -0.008 A 
ATOM      2  C   UNL     1       4.612  -0.466  -1.068  0.00  0.00    +0.009 A 
ATOM      3  C   UNL     1       5.843  -1.089  -1.040  0.00  0.00    +0.001 A 
ATOM      4  C   UNL     1       6.144  -1.984  -0.029  0.00  0.00    +0.001 A 
ATOM      5  C   UNL     1       5.215  -2.260   0.957  0.00  0.00    +0.011 A 
ATOM      6  C   UNL     1       3.983  -1.638   0.942  0.00  0.00    +0.040 A 
ENDROOT
BRANCH   1  10
ATOM      7  C   UNL     1      -0.126   1.173  -0.147  0.00  0.00    +0.000 A 
ATOM      8  C   UNL     1       0.295   0.436  -1.239  0.00  0.00    +0.001 A 
ATOM      9  C   UNL     1       1.527  -0.187  -1.222  0.00  0.00    +0.008 A 
ATOM     10  C   UNL     1       2.347  -0.072  -0.101  0.00  0.00    -0.017 A 
ATOM     11  C   UNL     1       1.918   0.671   0.997  0.00  0.00    +0.008 A 
ATOM     12  C   UNL     1       0.684   1.290   0.968  0.00  0.00    +0.001 A 
ENDBRANCH   1  10
BRANCH   6  13
ATOM     13  C   UNL     1       2.974  -1.935   2.021  0.00  0.00    +0.396 C 
ATOM     14  O   UNL     1       2.002  -2.893   1.560  0.00  0.00    -0.453 OA
ATOM     15  C   UNL     1       1.704  -3.654   2.639  0.00  0.00    +0.245 C 
ATOM     16  C   UNL     1       2.654  -3.494   3.582  0.00  0.00    +0.247 C 
ATOM     17  O   UNL     1       3.599  -2.610   3.131  0.00  0.00    -0.439 OA
BRANCH  16  18
ATOM     18  C   UNL     1       2.671  -4.136   4.843  0.00  0.00    +0.424 C 
ATOM     19  O   UNL     1       1.772  -4.910   5.149  0.00  0.00    -0.237 OA
ATOM     20  O   UNL     1       3.586  -3.918   5.629  0.00  0.00    -0.237 OA
ENDBRANCH  16  18
ENDBRANCH   6  13
TORSDOF 3
