REMARK  Name = ZINC40570595
REMARK  6 active torsions:
REMARK  status: ('A' for Active; 'I' for Inactive)
REMARK    1  A    between atoms: C_1  and  N_2
REMARK    2  A    between atoms: C_3  and  C_5
REMARK    3  A    between atoms: C_9  and  N_10
REMARK    4  A    between atoms: C_11  and  C_13
REMARK    5  A    between atoms: C_13  and  C_25
REMARK    6  A    between atoms: C_14  and  C_15
REMARK                            x       y       z     vdW  Elec       q    Type
REMARK                         _______ _______ _______ _____ _____    ______ ____
ROOT
ATOM      1  N   UNL     1      -0.618  -2.395  -2.504  0.00  0.00    -0.275 N 
ATOM      2  C   UNL     1      -0.597  -3.216  -3.573  0.00  0.00    +0.259 C 
ATOM      3  O   UNL     1      -0.282  -4.383  -3.438  0.00  0.00    -0.269 OA
ATOM      4  H   UNL     1      -0.869  -1.465  -2.611  0.00  0.00    +0.156 HD
ENDROOT
BRANCH   1   9
ATOM      5  C   UNL     1      -0.246  -2.191  -0.050  0.00  0.00    +0.069 A 
ATOM      6  C   UNL     1       0.139  -2.938   1.135  0.00  0.00    -0.023 A 
ATOM      7  C   UNL     1       0.425  -4.237   0.900  0.00  0.00    -0.004 A 
ATOM      8  S   UNL     1       0.184  -4.442  -0.840  0.00  0.00    -0.077 S 
ATOM      9  C   UNL     1      -0.280  -2.881  -1.251  0.00  0.00    +0.085 A 
ATOM     10  C   UNL     1       0.851  -5.260   1.907  0.00  0.00    +0.043 C 
ATOM     11  C   UNL     1       1.281  -4.528   3.187  0.00  0.00    +0.005 C 
ATOM     12  C   UNL     1       0.211  -3.495   3.550  0.00  0.00    +0.005 C 
ATOM     13  C   UNL     1       0.226  -2.350   2.535  0.00  0.00    +0.037 C 
BRANCH   5  16
ATOM     14  C   UNL     1       0.026   1.589  -0.063  0.00  0.00    +0.128 C 
ATOM     15  N   UNL     1       0.369   0.166  -0.136  0.00  0.00    -0.314 N 
ATOM     16  C   UNL     1      -0.590  -0.767   0.023  0.00  0.00    +0.246 C 
ATOM     17  O   UNL     1      -1.741  -0.429   0.227  0.00  0.00    -0.270 OA
ATOM     18  H   UNL     1       1.287  -0.103  -0.298  0.00  0.00    +0.149 HD
ENDBRANCH   5  16
ENDBRANCH   1   9
BRANCH   2  19
ATOM     19  C   UNL     1      -0.954  -2.701  -4.900  0.00  0.00    +0.114 C 
ATOM     20  C   UNL     1      -1.071  -3.570  -5.971  0.00  0.00    +0.034 C 
BRANCH  20  21
ATOM     21  C   UNL     1      -1.050  -4.965  -5.754  0.00  0.00    +0.001 A 
ATOM     22  C   UNL     1      -1.741  -5.665  -4.784  0.00  0.00    +0.091 A 
ATOM     23  N   UNL     1      -1.466  -6.980  -4.893  0.00  0.00    -0.360 N 
ATOM     24  H   UNL     1      -1.836  -7.670  -4.321  0.00  0.00    +0.165 HD
ATOM     25  C   UNL     1      -0.588  -7.210  -5.933  0.00  0.00    +0.047 A 
ATOM     26  C   UNL     1      -0.290  -5.972  -6.523  0.00  0.00    +0.007 A 
ATOM     27  C   UNL     1       0.576  -5.905  -7.610  0.00  0.00    +0.010 A 
ATOM     28  C   UNL     1       1.138  -7.062  -8.107  0.00  0.00    +0.001 A 
ATOM     29  C   UNL     1       0.843  -8.287  -7.528  0.00  0.00    +0.002 A 
ATOM     30  C   UNL     1      -0.007  -8.366  -6.446  0.00  0.00    +0.026 A 
ENDBRANCH  20  21
BRANCH  19  31
ATOM     31  C   UNL     1      -1.183  -1.300  -5.087  0.00  0.00    +0.104 C 
ATOM     32  N   UNL     1      -1.364  -0.188  -5.234  0.00  0.00    -0.191 NA
ENDBRANCH  19  31
ENDBRANCH   2  19
TORSDOF 5
