REMARK  Name = ZINC11535526
REMARK  9 active torsions:
REMARK  status: ('A' for Active; 'I' for Inactive)
REMARK    1  A    between atoms: C_1  and  C_2
REMARK    2  A    between atoms: C_2  and  C_3
REMARK    3  A    between atoms: C_3  and  C_5
REMARK    4  A    between atoms: C_3  and  C_6
REMARK    5  A    between atoms: C_11  and  N_12
REMARK    6  A    between atoms: C_13  and  C_15
REMARK    7  A    between atoms: C_15  and  S_16
REMARK    8  A    between atoms: S_16  and  C_17
REMARK    9  A    between atoms: C_23  and  N_25
REMARK                            x       y       z     vdW  Elec       q    Type
REMARK                         _______ _______ _______ _____ _____    ______ ____
ROOT
ATOM      1  N   UNL     1      -0.289   1.272  -2.443  0.00  0.00    -0.285 N 
ATOM      2  C   UNL     1      -0.969   1.030  -1.305  0.00  0.00    +0.227 C 
ATOM      3  O   UNL     1      -2.168   1.207  -1.266  0.00  0.00    -0.275 OA
ATOM      4  H   UNL     1       0.807   1.184  -2.458  0.00  0.00    +0.155 HD
ENDROOT
BRANCH   1  10
ATOM      5  C   UNL     1      -0.523   1.206  -4.846  0.00  0.00    -0.023 A 
ATOM      6  C   UNL     1      -1.206   1.566  -5.992  0.00  0.00    +0.006 A 
ATOM      7  C   UNL     1      -2.339   2.353  -5.905  0.00  0.00    +0.000 A 
ATOM      8  C   UNL     1      -2.794   2.781  -4.671  0.00  0.00    +0.002 A 
ATOM      9  C   UNL     1      -2.120   2.420  -3.521  0.00  0.00    +0.023 A 
ATOM     10  C   UNL     1      -0.978   1.635  -3.606  0.00  0.00    +0.037 A 
BRANCH   5  11
ATOM     11  C   UNL     1       0.712   0.348  -4.941  0.00  0.00    +0.017 C 
ATOM     12  C   UNL     1       0.383  -0.936  -5.705  0.00  0.00    +0.012 C 
BRANCH  11  14
ATOM     13  C   UNL     1       3.101   0.295  -5.670  0.00  0.00    +0.004 C 
ATOM     14  C   UNL     1       1.809   1.115  -5.682  0.00  0.00    +0.004 C 
ENDBRANCH  11  14
ENDBRANCH   5  11
ENDBRANCH   1  10
BRANCH   2  15
ATOM     15  C   UNL     1      -0.239   0.540  -0.081  0.00  0.00    +0.173 C 
BRANCH  15  16
ATOM     16  S   UNL     1      -1.418   0.311   1.273  0.00  0.00    -0.078 S 
BRANCH  16  17
ATOM     17  C   UNL     1      -0.326  -0.248   2.538  0.00  0.00    +0.171 A 
ATOM     18  N   UNL     1      -0.827  -0.541   3.771  0.00  0.00    -0.302 N 
ATOM     19  H   UNL     1      -1.903  -0.424   3.970  0.00  0.00    +0.171 HD
ATOM     20  C   UNL     1      -0.006  -0.975   4.750  0.00  0.00    +0.254 A 
ATOM     21  O   UNL     1      -0.448  -1.244   5.856  0.00  0.00    -0.268 OA
ATOM     22  C   UNL     1       1.359  -1.107   4.478  0.00  0.00    +0.113 A 
ATOM     23  C   UNL     1       1.820  -0.791   3.208  0.00  0.00    +0.124 A 
ATOM     24  N   UNL     1       0.959  -0.370   2.275  0.00  0.00    -0.209 NA
BRANCH  23  25
ATOM     25  N   UNL     1       3.162  -0.911   2.908  0.00  0.00    -0.343 N 
ATOM     26  H   UNL     1       3.525  -0.660   1.901  0.00  0.00    +0.144 HD
ATOM     27  H   UNL     1       3.868  -1.257   3.677  0.00  0.00    +0.144 HD
ENDBRANCH  23  25
ENDBRANCH  16  17
ENDBRANCH  15  16
ENDBRANCH   2  15
TORSDOF 7
