REMARK  Name = ZINC56157559
REMARK  10 active torsions:
REMARK  status: ('A' for Active; 'I' for Inactive)
REMARK    1  A    between atoms: C_1  and  C_2
REMARK    2  A    between atoms: C_6  and  O_8
REMARK    3  A    between atoms: O_8  and  C_9
REMARK    4  A    between atoms: C_9  and  C_11
REMARK    5  A    between atoms: C_9  and  C_12
REMARK    6  A    between atoms: N_14  and  C_15
REMARK    7  A    between atoms: C_17  and  S_23
REMARK    8  A    between atoms: C_19  and  C_22
REMARK    9  A    between atoms: C_20  and  C_21
REMARK   10  A    between atoms: S_23  and  N_26
REMARK                            x       y       z     vdW  Elec       q    Type
REMARK                         _______ _______ _______ _____ _____    ______ ____
ROOT
ATOM      1  C   UNL     1       0.971  -2.771   4.574  0.00  0.00    +0.258 C 
ATOM      2  O   UNL     1       1.425  -3.860   4.293  0.00  0.00    -0.271 OA
ATOM      3  N   UNL     1       1.212  -2.233   5.787  0.00  0.00    -0.282 N 
ATOM      4  H   UNL     1       0.798  -1.392   6.035  0.00  0.00    +0.155 HD
ENDROOT
BRANCH   3   5
ATOM      5  C   UNL     1       2.059  -2.889   6.687  0.00  0.00    +0.039 A 
ATOM      6  C   UNL     1       2.087  -4.277   6.731  0.00  0.00    +0.052 A 
ATOM      7  C   UNL     1       2.923  -4.922   7.621  0.00  0.00    +0.107 A 
ATOM      8  C   UNL     1       3.733  -4.186   8.468  0.00  0.00    +0.032 A 
ATOM      9  C   UNL     1       3.707  -2.805   8.427  0.00  0.00    -0.044 A 
ATOM     10  C   UNL     1       2.877  -2.154   7.534  0.00  0.00    -0.026 A 
ATOM     11  C   UNL     1       2.855  -0.648   7.485  0.00  0.00    +0.046 C 
ATOM     12  C   UNL     1       4.590  -2.008   9.352  0.00  0.00    +0.044 C 
BRANCH   7  13
ATOM     13  S   UNL     1       2.960  -6.682   7.677  0.00  0.00    +0.056 S 
ATOM     14  O   UNL     1       3.424  -7.038   8.972  0.00  0.00    -0.153 OA
ATOM     15  O   UNL     1       1.712  -7.131   7.166  0.00  0.00    -0.153 OA
BRANCH  13  16
ATOM     16  N   UNL     1       4.118  -7.183   6.605  0.00  0.00    -0.204 NA
ATOM     17  H   UNL     1       4.621  -6.529   6.094  0.00  0.00    +0.144 HD
ATOM     18  H   UNL     1       4.293  -8.130   6.487  0.00  0.00    +0.144 HD
ENDBRANCH  13  16
ENDBRANCH   7  13
ENDBRANCH   3   5
BRANCH   1  19
ATOM     19  C   UNL     1       0.139  -2.018   3.568  0.00  0.00    +0.256 C 
ATOM     20  C   UNL     1      -1.256  -1.769   4.146  0.00  0.00    +0.062 C 
BRANCH  19  21
ATOM     21  O   UNL     1       0.027  -2.789   2.370  0.00  0.00    -0.478 OA
BRANCH  21  27
ATOM     22  C   UNL     1      -0.252   1.481   0.023  0.00  0.00    +0.044 C 
ATOM     23  C   UNL     1      -0.164  -0.023   0.014  0.00  0.00    -0.047 A 
ATOM     24  C   UNL     1      -0.137  -0.706  -1.188  0.00  0.00    +0.005 A 
ATOM     25  C   UNL     1      -0.056  -2.086  -1.200  0.00  0.00    +0.024 A 
ATOM     26  C   UNL     1      -0.001  -2.787  -0.009  0.00  0.00    +0.083 A 
ATOM     27  C   UNL     1      -0.027  -2.103   1.198  0.00  0.00    +0.140 A 
ATOM     28  C   UNL     1      -0.103  -0.718   1.206  0.00  0.00    +0.050 A 
ATOM     29 CL   UNL     1       0.100  -4.520  -0.025  0.00  0.00    -0.080 Cl
ENDBRANCH  21  27
ENDBRANCH  19  21
ENDBRANCH   1  19
TORSDOF 6
