REMARK  Name = ZINC35930033
REMARK  5 active torsions:
REMARK  status: ('A' for Active; 'I' for Inactive)
REMARK    1  A    between atoms: C_4  and  C_7
REMARK    2  A    between atoms: C_7  and  N_8
REMARK    3  A    between atoms: C_16  and  C_31
REMARK    4  A    between atoms: C_18  and  N_30
REMARK    5  A    between atoms: N_19  and  C_23
REMARK                            x       y       z     vdW  Elec       q    Type
REMARK                         _______ _______ _______ _____ _____    ______ ____
ROOT
ATOM      1  N   UNL     1       3.401  -1.609   2.422  0.00  0.00    -0.295 NA
ATOM      2  C   UNL     1       3.847  -0.250   2.758  0.00  0.00    +0.103 C 
ATOM      3  C   UNL     1       4.403  -0.236   4.186  0.00  0.00    +0.123 C 
ATOM      4  N   UNL     1       5.439  -1.275   4.293  0.00  0.00    -0.297 N 
ATOM      5  C   UNL     1       5.108  -2.637   3.846  0.00  0.00    +0.123 C 
ATOM      6  C   UNL     1       4.524  -2.556   2.431  0.00  0.00    +0.103 C 
ATOM      7  C   UNL     1       6.691  -0.980   4.803  0.00  0.00    +0.220 A 
ATOM      8  N   UNL     1       7.588  -1.958   4.871  0.00  0.00    -0.214 NA
ATOM      9  C   UNL     1       8.812  -1.762   5.346  0.00  0.00    +0.089 A 
ATOM     10  C   UNL     1       9.157  -0.466   5.790  0.00  0.00    +0.086 A 
ATOM     11  C   UNL     1      10.288   0.132   6.333  0.00  0.00    +0.131 A 
ATOM     12  N   UNL     1       9.995   1.429   6.554  0.00  0.00    -0.216 N 
ATOM     13  N   UNL     1       8.678   1.692   6.161  0.00  0.00    -0.144 NA
ATOM     14  C   UNL     1       8.132   0.590   5.696  0.00  0.00    +0.189 A 
ATOM     15  N   UNL     1       6.930   0.257   5.189  0.00  0.00    -0.193 NA
ENDROOT
BRANCH  12  16
ATOM     16  C   UNL     1      10.877   2.371   7.097  0.00  0.00    +0.068 A 
ATOM     17  C   UNL     1      11.794   1.988   8.066  0.00  0.00    +0.029 A 
ATOM     18  C   UNL     1      12.662   2.920   8.600  0.00  0.00    +0.022 A 
ATOM     19  C   UNL     1      12.619   4.234   8.170  0.00  0.00    +0.041 A 
ATOM     20  C   UNL     1      11.705   4.619   7.204  0.00  0.00    +0.022 A 
ATOM     21  C   UNL     1      10.839   3.690   6.662  0.00  0.00    +0.029 A 
ATOM     22 CL   UNL     1      13.711   5.403   8.843  0.00  0.00    -0.084 Cl
ENDBRANCH  12  16
BRANCH   9  23
ATOM     23  C   UNL     1       9.788  -2.872   5.410  0.00  0.00    +0.001 A 
ATOM     24  C   UNL     1      10.536  -3.081   6.570  0.00  0.00    +0.013 A 
ATOM     25  C   UNL     1      11.444  -4.116   6.625  0.00  0.00    +0.039 A 
ATOM     26  C   UNL     1      11.617  -4.949   5.530  0.00  0.00    +0.123 A 
ATOM     27  C   UNL     1      10.877  -4.745   4.376  0.00  0.00    +0.039 A 
ATOM     28  C   UNL     1       9.961  -3.716   4.313  0.00  0.00    +0.013 A 
ATOM     29  F   UNL     1      12.509  -5.962   5.588  0.00  0.00    -0.205 F 
ENDBRANCH   9  23
BRANCH  11  30
ATOM     30  N   UNL     1      11.494  -0.490   6.598  0.00  0.00    -0.342 N 
ATOM     31  H   UNL     1      11.661  -1.385   6.265  0.00  0.00    +0.144 HD
ATOM     32  H   UNL     1      12.173  -0.031   7.117  0.00  0.00    +0.144 HD
ENDBRANCH  11  30
BRANCH   1  33
ATOM     33  C   UNL     1       2.705  -1.630   1.129  0.00  0.00    +0.119 C 
BRANCH  33  37
ATOM     34  C   UNL     1      -0.921   0.607   1.423  0.00  0.00    +0.000 A 
ATOM     35  C   UNL     1       0.250   1.237   1.046  0.00  0.00    +0.000 A 
ATOM     36  C   UNL     1       1.424   0.512   0.951  0.00  0.00    +0.005 A 
ATOM     37  C   UNL     1       1.426  -0.841   1.233  0.00  0.00    -0.033 A 
ATOM     38  C   UNL     1       0.255  -1.470   1.612  0.00  0.00    +0.005 A 
ATOM     39  C   UNL     1      -0.919  -0.746   1.706  0.00  0.00    +0.000 A 
ENDBRANCH  33  37
ENDBRANCH   1  33
TORSDOF 5
