REMARK  Name = ZINC14470797
REMARK  8 active torsions:
REMARK  status: ('A' for Active; 'I' for Inactive)
REMARK    1  A    between atoms: C_1  and  C_2
REMARK    2  A    between atoms: C_2  and  C_3
REMARK    3  A    between atoms: C_2  and  C_4
REMARK    4  A    between atoms: C_2  and  N_5
REMARK    5  A    between atoms: N_5  and  S_6
REMARK    6  A    between atoms: S_6  and  C_9
REMARK    7  A    between atoms: C_22  and  C_25
REMARK    8  A    between atoms: C_29  and  N_31
REMARK                            x       y       z     vdW  Elec       q    Type
REMARK                         _______ _______ _______ _____ _____    ______ ____
ROOT
ATOM      1  C   UNL     1      -1.329   2.070   0.444  0.00  0.00    +0.106 A 
ATOM      2  C   UNL     1      -1.821   3.287   0.006  0.00  0.00    +0.030 A 
ATOM      3  C   UNL     1      -1.030   4.415   0.092  0.00  0.00    +0.025 A 
ATOM      4  C   UNL     1       0.252   4.327   0.620  0.00  0.00    +0.031 A 
ATOM      5  C   UNL     1       0.746   3.111   1.066  0.00  0.00    -0.018 A 
ATOM      6  C   UNL     1      -0.059   1.984   0.975  0.00  0.00    +0.034 A 
ATOM      7  C   UNL     1       2.118   2.969   1.645  0.00  0.00    +0.049 C 
ATOM      8  C   UNL     1       3.063   2.308   0.670  0.00  0.00    -0.023 C 
ATOM      9  C   UNL     1       4.261   2.830   0.774  0.00  0.00    -0.030 C 
ATOM     10  C   UNL     1       4.279   3.909   1.839  0.00  0.00    +0.033 C 
ATOM     11  C   UNL     1       2.783   4.324   1.958  0.00  0.00    +0.029 C 
ATOM     12  C   UNL     1       2.494   5.319   0.830  0.00  0.00    +0.105 C 
ATOM     13  N   UNL     1       1.043   5.478   0.697  0.00  0.00    -0.336 N 
ATOM     14  H   UNL     1       0.641   6.360   0.663  0.00  0.00    +0.147 HD
ENDROOT
BRANCH  12  15
ATOM     15  C   UNL     1       3.121   6.649   1.159  0.00  0.00    -0.025 A 
ATOM     16  C   UNL     1       2.486   7.515   2.030  0.00  0.00    +0.007 A 
ATOM     17  C   UNL     1       3.062   8.733   2.336  0.00  0.00    +0.022 A 
ATOM     18  C   UNL     1       4.269   9.091   1.762  0.00  0.00    +0.071 A 
ATOM     19  C   UNL     1       4.901   8.226   0.887  0.00  0.00    +0.145 A 
ATOM     20  C   UNL     1       4.327   7.006   0.585  0.00  0.00    +0.039 A 
ATOM     21 CL   UNL     1       4.990  10.624   2.141  0.00  0.00    -0.081 Cl
BRANCH  19  22
ATOM     22  N   UNL     1       6.193   8.608   0.273  0.00  0.00    +0.058 N 
ATOM     23  O   UNL     1       6.750   7.847  -0.498  0.00  0.00    -0.126 OA
ATOM     24  O   UNL     1       6.699   9.684   0.538  0.00  0.00    -0.126 OA
ENDBRANCH  19  22
ENDBRANCH  12  15
BRANCH   1  25
ATOM     25  S   UNL     1      -2.332   0.626   0.329  0.00  0.00    +0.059 S 
ATOM     26  O   UNL     1      -3.414   0.950  -0.534  0.00  0.00    -0.153 OA
ATOM     27  O   UNL     1      -1.452  -0.460   0.072  0.00  0.00    -0.153 OA
BRANCH  25  28
ATOM     28  N   UNL     1      -2.985   0.362   1.828  0.00  0.00    -0.185 NA
ATOM     29  H   UNL     1      -2.720  -0.416   2.342  0.00  0.00    +0.149 HD
BRANCH  28  31
ATOM     30  C   UNL     1      -5.240   1.263   1.537  0.00  0.00    +0.029 C 
ATOM     31  C   UNL     1      -3.962   1.305   2.377  0.00  0.00    +0.032 C 
ATOM     32  C   UNL     1      -4.288   0.918   3.821  0.00  0.00    +0.029 C 
ATOM     33  C   UNL     1      -3.379   2.719   2.348  0.00  0.00    +0.029 C 
ENDBRANCH  28  31
ENDBRANCH  25  28
ENDBRANCH   1  25
TORSDOF 5
