REMARK  Name = ZINC61589897
REMARK  4 active torsions:
REMARK  status: ('A' for Active; 'I' for Inactive)
REMARK    1  A    between atoms: C_3  and  S_8
REMARK    2  A    between atoms: C_6  and  N_7
REMARK    3  A    between atoms: S_8  and  C_9
REMARK    4  A    between atoms: C_9  and  C_15
REMARK                            x       y       z     vdW  Elec       q    Type
REMARK                         _______ _______ _______ _____ _____    ______ ____
ROOT
ATOM      1  S   UNL     1       3.577   1.877   0.294  0.00  0.00    -0.106 S 
ENDROOT
BRANCH   1   4
ATOM      2  C   UNL     1       1.197  -0.774   2.160  0.00  0.00    +0.024 A 
ATOM      3  C   UNL     1       2.092   0.249   1.915  0.00  0.00    +0.016 A 
ATOM      4  C   UNL     1       2.436   0.572   0.608  0.00  0.00    +0.009 A 
ATOM      5  C   UNL     1       1.879  -0.134  -0.451  0.00  0.00    +0.016 A 
ATOM      6  C   UNL     1       0.985  -1.157  -0.205  0.00  0.00    +0.024 A 
ATOM      7  C   UNL     1       0.641  -1.480   1.101  0.00  0.00    +0.025 A 
BRANCH   7   8
ATOM      8  N   UNL     1      -0.266  -2.516   1.350  0.00  0.00    -0.358 N 
ATOM      9  H   UNL     1      -0.506  -2.742   2.262  0.00  0.00    +0.142 HD
ATOM     10  H   UNL     1      -0.654  -3.009   0.610  0.00  0.00    +0.142 HD
ENDBRANCH   7   8
ENDBRANCH   1   4
BRANCH   1  11
ATOM     11  C   UNL     1       5.171   1.032   0.111  0.00  0.00    +0.131 C 
ATOM     12  C   UNL     1       6.281   2.069  -0.033  0.00  0.00    +0.031 C 
ATOM     13  C   UNL     1       7.586   1.409  -0.468  0.00  0.00    +0.013 C 
ATOM     14  C   UNL     1       8.166   0.587   0.687  0.00  0.00    +0.069 C 
ATOM     15  S   UNL     1       6.992  -0.737   1.106  0.00  0.00    -0.159 S 
ATOM     16  C   UNL     1       5.429   0.160   1.344  0.00  0.00    +0.098 C 
BRANCH  11  17
ATOM     17  C   UNL     1       5.138   0.162  -1.119  0.00  0.00    +0.373 C 
ATOM     18  O   UNL     1       5.146   0.673  -2.226  0.00  0.00    -0.245 OA
ATOM     19  O   UNL     1       5.104  -1.051  -1.007  0.00  0.00    -0.245 OA
ENDBRANCH  11  17
ENDBRANCH   1  11
TORSDOF 4
