REMARK  Name = ZINC39711663
REMARK  11 active torsions:
REMARK  status: ('A' for Active; 'I' for Inactive)
REMARK    1  A    between atoms: C_1  and  C_2
REMARK    2  A    between atoms: C_2  and  C_3
REMARK    3  A    between atoms: C_2  and  C_4
REMARK    4  A    between atoms: C_2  and  N_5
REMARK    5  A    between atoms: C_6  and  C_11
REMARK    6  A    between atoms: C_11  and  C_13
REMARK    7  A    between atoms: C_11  and  N_28
REMARK    8  A    between atoms: N_28  and  C_29
REMARK    9  A    between atoms: N_28  and  C_36
REMARK   10  A    between atoms: C_29  and  C_30
REMARK   11  A    between atoms: C_36  and  C_37
REMARK                            x       y       z     vdW  Elec       q    Type
REMARK                         _______ _______ _______ _____ _____    ______ ____
ROOT
ATOM      1  C   UNL     1      -0.235  -2.853  -2.948  0.00  0.00    -0.009 C 
ENDROOT
BRANCH   1   2
ATOM      2  C   UNL     1       0.735  -2.618  -4.107  0.00  0.00    +0.088 C 
ATOM      3  C   UNL     1       1.171  -1.167  -4.062  0.00  0.00    -0.006 C 
ATOM      4  C   UNL     1       0.932  -0.407  -5.164  0.00  0.00    -0.003 A 
ATOM      5  C   UNL     1       1.322   1.004  -5.199  0.00  0.00    +0.059 A 
ATOM      6  C   UNL     1       1.068   1.736  -6.315  0.00  0.00    +0.167 A 
ATOM      7  C   UNL     1       0.436   1.160  -7.439  0.00  0.00    +0.168 A 
ATOM      8  C   UNL     1       0.050  -0.164  -7.455  0.00  0.00    +0.073 A 
ATOM      9  C   UNL     1       0.273  -0.991  -6.347  0.00  0.00    +0.044 A 
ATOM     10  N   UNL     1      -0.108  -2.270  -6.383  0.00  0.00    -0.284 N 
ATOM     11  C   UNL     1       0.069  -3.104  -5.375  0.00  0.00    +0.223 C 
ATOM     12  O   UNL     1      -0.301  -4.259  -5.466  0.00  0.00    -0.275 OA
ATOM     13  O   UNL     1       0.314   2.123  -8.397  0.00  0.00    -0.453 OA
ATOM     14  C   UNL     1       0.485   3.376  -7.713  0.00  0.00    +0.466 C 
ATOM     15  O   UNL     1       1.327   3.049  -6.593  0.00  0.00    -0.453 OA
ATOM     16  H   UNL     1      -0.537  -2.601  -7.188  0.00  0.00    +0.155 HD
ENDBRANCH   1   2
BRANCH   1  18
ATOM     17  N   UNL     1       0.800  -1.120  -1.523  0.00  0.00    -0.183 NA
ATOM     18  C   UNL     1       0.472  -2.558  -1.624  0.00  0.00    +0.205 C 
ATOM     19  N   UNL     1       1.774  -3.237  -1.572  0.00  0.00    -0.152 NA
ATOM     20  N   UNL     1       2.662  -2.389  -1.465  0.00  0.00    -0.070 NA
ATOM     21  N   UNL     1       2.167  -1.086  -1.429  0.00  0.00    -0.179 N 
ATOM     22  H   UNL     1       2.704  -0.282  -1.349  0.00  0.00    +0.191 HD
BRANCH  17  24
ATOM     23  C   UNL     1       0.464   0.984  -0.315  0.00  0.00    +0.029 C 
ATOM     24  C   UNL     1       0.175  -0.519  -0.338  0.00  0.00    +0.035 C 
ATOM     25  C   UNL     1       0.747  -1.167   0.924  0.00  0.00    +0.029 C 
ATOM     26  C   UNL     1      -1.337  -0.747  -0.388  0.00  0.00    +0.029 C 
ENDBRANCH  17  24
ENDBRANCH   1  18
BRANCH   1  27
ATOM     27  N   UNL     1      -0.685  -4.251  -2.962  0.00  0.00    +0.390 N 
ATOM     28  H   UNL     1      -1.051  -4.478  -3.874  0.00  0.00    -0.080 HD
BRANCH  27  29
ATOM     29  C   UNL     1      -1.735  -4.438  -1.952  0.00  0.00    -0.042 C 
BRANCH  29  30
ATOM     30  C   UNL     1      -3.024  -3.838  -2.451  0.00  0.00    -0.064 A 
ATOM     31  C   UNL     1      -3.262  -2.486  -2.297  0.00  0.00    +0.002 A 
ATOM     32  C   UNL     1      -4.445  -1.935  -2.755  0.00  0.00    +0.000 A 
ATOM     33  C   UNL     1      -5.389  -2.738  -3.367  0.00  0.00    +0.000 A 
ATOM     34  C   UNL     1      -5.151  -4.091  -3.522  0.00  0.00    +0.000 A 
ATOM     35  C   UNL     1      -3.966  -4.640  -3.068  0.00  0.00    +0.002 A 
ENDBRANCH  29  30
ENDBRANCH  27  29
BRANCH  27  36
ATOM     36  C   UNL     1       0.450  -5.134  -2.657  0.00  0.00    -0.040 C 
BRANCH  36  37
ATOM     37  C   UNL     1       0.027  -6.571  -2.822  0.00  0.00    -0.046 A 
ATOM     38  C   UNL     1      -0.509  -7.272  -1.752  0.00  0.00    +0.005 A 
ATOM     39  C   UNL     1      -0.884  -8.591  -1.950  0.00  0.00    +0.020 A 
ATOM     40  C   UNL     1      -0.713  -9.161  -3.197  0.00  0.00    +0.111 A 
ATOM     41  N   UNL     1      -0.199  -8.464  -4.192  0.00  0.00    -0.263 NA
ATOM     42  C   UNL     1       0.163  -7.205  -4.042  0.00  0.00    +0.112 A 
ENDBRANCH  36  37
ENDBRANCH  27  36
ENDBRANCH   1  27
TORSDOF 8
