REMARK  Name = ZINC63372850
REMARK  10 active torsions:
REMARK  status: ('A' for Active; 'I' for Inactive)
REMARK    1  A    between atoms: C_1  and  C_2
REMARK    2  A    between atoms: C_2  and  C_3
REMARK    3  A    between atoms: C_2  and  C_4
REMARK    4  A    between atoms: C_4  and  C_5
REMARK    5  A    between atoms: C_5  and  C_7
REMARK    6  A    between atoms: C_5  and  N_21
REMARK    7  A    between atoms: N_9  and  C_10
REMARK    8  A    between atoms: C_10  and  C_11
REMARK    9  A    between atoms: C_15  and  C_17
REMARK   10  A    between atoms: C_24  and  C_40
REMARK                            x       y       z     vdW  Elec       q    Type
REMARK                         _______ _______ _______ _____ _____    ______ ____
ROOT
ATOM      1  C   UNL     1      -1.416  -2.058  -0.121  0.00  0.00    +0.171 C 
ENDROOT
BRANCH   1   2
ATOM      2  N   UNL     1      -0.876  -2.426  -1.433  0.00  0.00    -0.212 N 
ATOM      3  C   UNL     1       0.225  -3.184  -1.613  0.00  0.00    +0.249 C 
ATOM      4  O   UNL     1       0.950  -3.641  -0.755  0.00  0.00    -0.273 OA
ATOM      5  C   UNL     1       0.368  -3.345  -3.110  0.00  0.00    +0.136 C 
ATOM      6  C   UNL     1       1.711  -2.793  -3.587  0.00  0.00    +0.139 C 
ATOM      7  C   UNL     1       1.424  -1.539  -4.399  0.00  0.00    -0.034 C 
ATOM      8  C   UNL     1       2.128  -0.561  -3.835  0.00  0.00    -0.001 A 
ATOM      9  C   UNL     1       2.310   0.852  -4.205  0.00  0.00    +0.010 A 
ATOM     10  C   UNL     1       3.106   1.588  -3.385  0.00  0.00    +0.001 A 
ATOM     11  C   UNL     1       3.731   1.067  -2.249  0.00  0.00    +0.002 A 
ATOM     12  C   UNL     1       3.624  -0.222  -1.837  0.00  0.00    +0.026 A 
ATOM     13  C   UNL     1       2.816  -1.096  -2.620  0.00  0.00    +0.043 A 
ATOM     14  N   UNL     1       2.558  -2.376  -2.467  0.00  0.00    -0.375 N 
ATOM     15  C   UNL     1       0.456  -1.495  -5.556  0.00  0.00    +0.052 C 
ATOM     16  C   UNL     1      -0.866  -2.115  -5.061  0.00  0.00    +0.115 C 
ATOM     17  N   UNL     1      -0.695  -2.472  -3.650  0.00  0.00    -0.269 N 
ATOM     18  C   UNL     1      -1.420  -2.058  -2.601  0.00  0.00    +0.313 C 
ATOM     19  O   UNL     1      -2.449  -1.418  -2.698  0.00  0.00    -0.252 OA
ATOM     20  C   UNL     1       0.165  -4.800  -3.536  0.00  0.00    +0.044 C 
ATOM     21  H   UNL     1       2.866  -2.946  -1.745  0.00  0.00    +0.160 HD
ENDBRANCH   1   2
BRANCH   1  22
ATOM     22  C   UNL     1      -2.819  -2.590   0.013  0.00  0.00    +0.234 C 
ATOM     23  O   UNL     1      -3.320  -3.216  -0.898  0.00  0.00    -0.274 OA
ATOM     24  N   UNL     1      -3.518  -2.371   1.144  0.00  0.00    -0.310 N 
ATOM     25  H   UNL     1      -3.118  -1.870   1.872  0.00  0.00    +0.149 HD
BRANCH  24  26
ATOM     26  C   UNL     1      -4.882  -2.888   1.274  0.00  0.00    +0.139 C 
BRANCH  26  27
ATOM     27  C   UNL     1      -5.437  -2.509   2.623  0.00  0.00    -0.030 A 
ATOM     28  C   UNL     1      -5.257  -3.350   3.706  0.00  0.00    +0.005 A 
ATOM     29  C   UNL     1      -5.765  -3.002   4.943  0.00  0.00    +0.001 A 
ATOM     30  C   UNL     1      -6.454  -1.813   5.098  0.00  0.00    +0.012 A 
ATOM     31  C   UNL     1      -6.634  -0.972   4.015  0.00  0.00    +0.055 A 
ATOM     32  C   UNL     1      -6.121  -1.318   2.779  0.00  0.00    +0.017 A 
BRANCH  31  33
ATOM     33  C   UNL     1      -7.385   0.323   4.184  0.00  0.00    +0.417 C 
ATOM     34  F   UNL     1      -7.799   0.452   5.514  0.00  0.00    -0.166 F 
ATOM     35  F   UNL     1      -6.549   1.394   3.850  0.00  0.00    -0.166 F 
ATOM     36  F   UNL     1      -8.504   0.326   3.345  0.00  0.00    -0.166 F 
ENDBRANCH  31  33
ENDBRANCH  26  27
ENDBRANCH  24  26
ENDBRANCH   1  22
BRANCH   1  37
ATOM     37  C   UNL     1      -1.433  -0.534   0.013  0.00  0.00    +0.035 C 
BRANCH  37  39
ATOM     38  C   UNL     1      -0.019   1.526   0.010  0.00  0.00    +0.007 C 
ATOM     39  C   UNL     1       0.002  -0.004   0.002  0.00  0.00    -0.015 C 
ATOM     40  C   UNL     1       0.742  -0.511   1.242  0.00  0.00    +0.007 C 
ENDBRANCH  37  39
ENDBRANCH   1  37
TORSDOF 7
