REMARK  Name = ZINC05557301
REMARK  4 active torsions:
REMARK  status: ('A' for Active; 'I' for Inactive)
REMARK    1  A    between atoms: C_4  and  C_7
REMARK    2  A    between atoms: C_10  and  N_13
REMARK    3  A    between atoms: N_13  and  C_14
REMARK    4  A    between atoms: C_15  and  C_25
REMARK                            x       y       z     vdW  Elec       q    Type
REMARK                         _______ _______ _______ _____ _____    ______ ____
ROOT
ATOM      1  C   UNL     1      -3.797   1.621  -0.300  0.00  0.00    +0.203 A 
ATOM      2  C   UNL     1      -2.719   0.809   0.088  0.00  0.00    +0.095 A 
ATOM      3  C   UNL     1      -2.646  -0.507  -0.375  0.00  0.00    +0.029 A 
ATOM      4  C   UNL     1      -3.660  -0.976  -1.226  0.00  0.00    +0.018 A 
ATOM      5  C   UNL     1      -3.630  -2.296  -1.719  0.00  0.00    +0.015 A 
ATOM      6  C   UNL     1      -4.617  -2.735  -2.539  0.00  0.00    +0.051 A 
ATOM      7  C   UNL     1      -5.674  -1.878  -2.904  0.00  0.00    +0.183 A 
ATOM      8  O   UNL     1      -6.561  -2.285  -3.647  0.00  0.00    -0.288 OA
ATOM      9  C   UNL     1      -5.717  -0.565  -2.422  0.00  0.00    +0.097 A 
ATOM     10  C   UNL     1      -4.718  -0.108  -1.587  0.00  0.00    +0.141 A 
ATOM     11  O   UNL     1      -4.751   1.157  -1.116  0.00  0.00    -0.440 OA
ENDROOT
BRANCH   2  12
ATOM     12  C   UNL     1      -1.675   1.340   0.982  0.00  0.00    +0.246 C 
ATOM     13  O   UNL     1      -1.690   2.512   1.306  0.00  0.00    -0.270 OA
ATOM     14  N   UNL     1      -0.704   0.526   1.442  0.00  0.00    -0.325 N 
ATOM     15  H   UNL     1      -0.692  -0.409   1.184  0.00  0.00    +0.145 HD
ATOM     16  H   UNL     1      -0.015   0.876   2.028  0.00  0.00    +0.145 HD
ENDBRANCH   2  12
BRANCH   1  17
ATOM     17  N   UNL     1      -3.870   2.900   0.157  0.00  0.00    -0.285 N 
ATOM     18  H   UNL     1      -3.057   3.396   0.344  0.00  0.00    +0.155 HD
BRANCH  17  22
ATOM     19  C   UNL     1      -7.586   4.692   0.750  0.00  0.00    -0.018 A 
ATOM     20  C   UNL     1      -6.460   5.480   0.516  0.00  0.00    +0.010 A 
ATOM     21  C   UNL     1      -5.232   4.886   0.320  0.00  0.00    +0.024 A 
ATOM     22  C   UNL     1      -5.116   3.501   0.355  0.00  0.00    +0.034 A 
ATOM     23  C   UNL     1      -6.238   2.712   0.582  0.00  0.00    +0.024 A 
ATOM     24  C   UNL     1      -7.467   3.303   0.784  0.00  0.00    +0.010 A 
BRANCH  19  28
ATOM     25  C   UNL     1     -11.378   6.519   1.353  0.00  0.00    +0.000 A 
ATOM     26  C   UNL     1     -11.264   5.141   1.389  0.00  0.00    +0.001 A 
ATOM     27  C   UNL     1     -10.035   4.543   1.194  0.00  0.00    +0.008 A 
ATOM     28  C   UNL     1      -8.909   5.329   0.960  0.00  0.00    -0.018 A 
ATOM     29  C   UNL     1      -9.029   6.717   0.931  0.00  0.00    +0.008 A 
ATOM     30  C   UNL     1     -10.263   7.305   1.122  0.00  0.00    +0.001 A 
ENDBRANCH  19  28
ENDBRANCH  17  22
ENDBRANCH   1  17
TORSDOF 4
