REMARK  Name = ZINC41229031
REMARK  6 active torsions:
REMARK  status: ('A' for Active; 'I' for Inactive)
REMARK    1  A    between atoms: C_1  and  C_2
REMARK    2  A    between atoms: C_4  and  C_16
REMARK    3  A    between atoms: C_5  and  C_15
REMARK    4  A    between atoms: C_6  and  C_9
REMARK    5  A    between atoms: C_7  and  C_8
REMARK    6  A    between atoms: C_11  and  N_14
REMARK                            x       y       z     vdW  Elec       q    Type
REMARK                         _______ _______ _______ _____ _____    ______ ____
ROOT
ATOM      1  C   UNL     1       0.187   1.498   0.017  0.00  0.00    +0.044 C 
ATOM      2  C   UNL     1       0.101  -0.006   0.005  0.00  0.00    -0.047 A 
ATOM      3  C   UNL     1      -0.076  -0.678  -1.191  0.00  0.00    +0.007 A 
ATOM      4  C   UNL     1      -0.156  -2.059  -1.209  0.00  0.00    -0.047 A 
ATOM      5  C   UNL     1      -0.059  -2.774  -0.032  0.00  0.00    -0.038 A 
ATOM      6  C   UNL     1       0.120  -2.102   1.175  0.00  0.00    +0.010 A 
ATOM      7  C   UNL     1       0.204  -0.712   1.187  0.00  0.00    -0.038 A 
ATOM      8  C   UNL     1       0.403   0.021   2.489  0.00  0.00    +0.045 C 
ATOM      9  C   UNL     1      -0.146  -4.278  -0.053  0.00  0.00    +0.045 C 
ATOM     10  C   UNL     1      -0.349  -2.784  -2.516  0.00  0.00    +0.044 C 
ENDROOT
BRANCH   6  11
ATOM     11  C   UNL     1       0.225  -2.866   2.444  0.00  0.00    +0.116 A 
ATOM     12  C   UNL     1      -0.490  -2.604   3.632  0.00  0.00    +0.096 A 
ATOM     13  C   UNL     1      -0.114  -3.522   4.557  0.00  0.00    +0.216 A 
ATOM     14  O   UNL     1       0.796  -4.333   3.993  0.00  0.00    -0.339 OA
ATOM     15  N   UNL     1       0.995  -3.907   2.657  0.00  0.00    -0.076 NA
BRANCH  13  16
ATOM     16  N   UNL     1      -0.585  -3.608   5.855  0.00  0.00    -0.327 N 
ATOM     17  H   UNL     1      -1.246  -2.973   6.174  0.00  0.00    +0.145 HD
ATOM     18  H   UNL     1      -0.255  -4.303   6.446  0.00  0.00    +0.145 HD
ENDBRANCH  13  16
ENDBRANCH   6  11
TORSDOF 2
