REMARK  Name = ZINC58489244
REMARK  9 active torsions:
REMARK  status: ('A' for Active; 'I' for Inactive)
REMARK    1  A    between atoms: C_4  and  C_7
REMARK    2  A    between atoms: C_15  and  N_17
REMARK    3  A    between atoms: N_17  and  C_18
REMARK    4  A    between atoms: C_18  and  C_20
REMARK    5  A    between atoms: C_18  and  C_22
REMARK    6  A    between atoms: C_20  and  O_21
REMARK    7  A    between atoms: C_22  and  C_24
REMARK    8  A    between atoms: C_22  and  O_33
REMARK    9  A    between atoms: C_27  and  N_30
REMARK                            x       y       z     vdW  Elec       q    Type
REMARK                         _______ _______ _______ _____ _____    ______ ____
ROOT
ATOM      1  N   UNK A   1       4.787  -4.097  -0.078  0.00  0.00    -0.321 N 
ATOM      2  H   UNK A   1       5.618  -4.597  -0.090  0.00  0.00    +0.148 HD
ENDROOT
BRANCH   1  11
ATOM      3  C   UNK A   0       3.698  -0.688  -0.038  0.00  0.00    +0.162 A 
ATOM      4  N   UNK A   0       4.814   0.017  -0.041  0.00  0.00    -0.227 NA
ATOM      5  C   UNK A   0       6.005  -0.598  -0.055  0.00  0.00    +0.077 A 
ATOM      6  C   UNK A   0       7.209   0.120  -0.058  0.00  0.00    +0.028 A 
ATOM      7  C   UNK A   0       8.394  -0.554  -0.073  0.00  0.00    +0.002 A 
ATOM      8  C   UNK A   0       8.428  -1.945  -0.086  0.00  0.00    +0.001 A 
ATOM      9  C   UNK A   0       7.275  -2.674  -0.085  0.00  0.00    +0.013 A 
ATOM     10  C   UNK A   0       6.042  -2.014  -0.069  0.00  0.00    +0.040 A 
ATOM     11  C   UNK A   0       4.812  -2.719  -0.065  0.00  0.00    +0.131 A 
ATOM     12  N   UNK A   0       3.687  -2.019  -0.045  0.00  0.00    -0.212 NA
BRANCH   3  16
ATOM     13  C   UNK A   0      -0.017   1.379   0.010  0.00  0.00    +0.000 A 
ATOM     14  C   UNK A   0       1.169   2.092   0.002  0.00  0.00    +0.001 A 
ATOM     15  C   UNK A   0       2.377   1.427  -0.013  0.00  0.00    +0.011 A 
ATOM     16  C   UNK A   0       2.402   0.033  -0.021  0.00  0.00    +0.019 A 
ATOM     17  C   UNK A   0       1.205  -0.680  -0.013  0.00  0.00    +0.011 A 
ATOM     18  C   UNK A   0       0.002  -0.004   0.002  0.00  0.00    +0.001 A 
ENDBRANCH   3  16
ENDBRANCH   1  11
BRANCH   1  19
ATOM     19  C   UNK A   1       3.506  -4.807  -0.075  0.00  0.00    +0.130 C 
BRANCH  19  20
ATOM     20  C   UNK A   1       2.987  -4.930  -1.509  0.00  0.00    +0.181 C 
BRANCH  20  21
ATOM     21  O   UNK A   1       3.874  -5.756  -2.267  0.00  0.00    -0.393 OA
ATOM     22  H   UNK A   1       3.607  -5.878  -3.188  0.00  0.00    +0.209 HD
ENDBRANCH  20  21
ENDBRANCH  19  20
BRANCH  19  23
ATOM     23  C   UNK A   1       3.698  -6.203   0.520  0.00  0.00    +0.167 C 
BRANCH  23  24
ATOM     24  C   UNK A   1       4.208  -6.082   1.933  0.00  0.00    -0.017 A 
ATOM     25  C   UNK A   1       5.548  -5.831   2.164  0.00  0.00    +0.008 A 
ATOM     26  C   UNK A   1       6.016  -5.719   3.460  0.00  0.00    +0.033 A 
ATOM     27  C   UNK A   1       5.145  -5.858   4.524  0.00  0.00    +0.126 A 
ATOM     28  C   UNK A   1       3.806  -6.108   4.293  0.00  0.00    +0.033 A 
ATOM     29  C   UNK A   1       3.336  -6.215   2.997  0.00  0.00    +0.008 A 
BRANCH  27  30
ATOM     30  N   UNK A   1       5.647  -5.739   5.912  0.00  0.00    +0.056 N 
ATOM     31  O   UNK A   1       6.819  -5.521   6.114  0.00  0.00    -0.126 OA
ATOM     32  O   UNK A   1       4.886  -5.861   6.843  0.00  0.00    -0.126 OA
ENDBRANCH  27  30
ENDBRANCH  23  24
BRANCH  23  33
ATOM     33  O   UNK A   1       4.643  -6.931  -0.267  0.00  0.00    -0.385 OA
ATOM     34  H   UNK A   1       5.516  -6.518  -0.314  0.00  0.00    +0.210 HD
ENDBRANCH  23  33
ENDBRANCH  19  23
ENDBRANCH   1  19
TORSDOF 9
