REMARK  Name = ZINC37865621
REMARK  7 active torsions:
REMARK  status: ('A' for Active; 'I' for Inactive)
REMARK    1  A    between atoms: C_1  and  C_2
REMARK    2  A    between atoms: C_2  and  C_3
REMARK    3  A    between atoms: C_8  and  C_24
REMARK    4  A    between atoms: C_12  and  C_15
REMARK    5  A    between atoms: C_13  and  O_14
REMARK    6  A    between atoms: C_15  and  N_16
REMARK    7  A    between atoms: C_20  and  C_23
REMARK                            x       y       z     vdW  Elec       q    Type
REMARK                         _______ _______ _______ _____ _____    ______ ____
ROOT
ATOM      1  C   UNL     1       0.731  -0.503   1.223  0.00  0.00    -0.005 A 
ATOM      2  C   UNL     1       2.062  -0.804   1.145  0.00  0.00    +0.022 A 
ATOM      3  C   UNL     1       2.732  -1.265   2.277  0.00  0.00    +0.065 A 
ATOM      4  C   UNL     1       4.165  -1.616   2.233  0.00  0.00    +0.203 A 
ATOM      5  O   UNL     1       4.877  -1.311   1.292  0.00  0.00    -0.286 OA
ATOM      6  C   UNL     1       4.685  -2.357   3.400  0.00  0.00    +0.099 A 
ATOM      7  C   UNL     1       3.904  -2.430   4.515  0.00  0.00    +0.211 A 
ATOM      8  O   UNL     1       2.707  -1.849   4.594  0.00  0.00    -0.462 OA
ATOM      9  C   UNL     1       2.052  -1.417   3.499  0.00  0.00    +0.143 A 
ATOM     10  C   UNL     1       0.700  -1.111   3.559  0.00  0.00    +0.021 A 
ATOM     11  C   UNL     1       0.047  -0.651   2.427  0.00  0.00    +0.125 A 
ENDROOT
BRANCH   6  12
ATOM     12  C   UNL     1       6.012  -3.003   3.360  0.00  0.00    +0.146 A 
ATOM     13  N   UNL     1       6.574  -3.714   4.386  0.00  0.00    -0.338 N 
ATOM     14  H   UNL     1       6.177  -3.881   5.255  0.00  0.00    +0.167 HD
ATOM     15  C   UNL     1       7.811  -4.151   3.952  0.00  0.00    +0.066 A 
ATOM     16  C   UNL     1       8.826  -4.900   4.530  0.00  0.00    +0.028 A 
ATOM     17  C   UNL     1       9.971  -5.170   3.812  0.00  0.00    +0.002 A 
ATOM     18  C   UNL     1      10.116  -4.699   2.515  0.00  0.00    +0.002 A 
ATOM     19  C   UNL     1       9.128  -3.959   1.928  0.00  0.00    +0.030 A 
ATOM     20  C   UNL     1       7.957  -3.672   2.638  0.00  0.00    +0.089 A 
ATOM     21  N   UNL     1       6.828  -2.986   2.333  0.00  0.00    -0.228 NA
ENDBRANCH   6  12
BRANCH   1  23
ATOM     22  C   UNL     1      -0.019   1.526   0.010  0.00  0.00    +0.009 C 
ATOM     23  C   UNL     1       0.002  -0.004   0.002  0.00  0.00    +0.035 C 
ENDBRANCH   1  23
BRANCH  11  24
ATOM     24  O   UNL     1      -1.275  -0.347   2.491  0.00  0.00    -0.506 OA
ATOM     25  H   UNL     1      -1.859  -1.091   2.292  0.00  0.00    +0.292 HD
ENDBRANCH  11  24
BRANCH  10  26
ATOM     26  C   UNL     1      -0.055  -1.271   4.853  0.00  0.00    -0.036 C 
BRANCH  26  27
ATOM     27  N   UNL     1       0.011  -0.018   5.617  0.00  0.00    +0.383 N 
ATOM     28  C   UNL     1      -0.689   1.040   4.880  0.00  0.00    -0.078 C 
ATOM     29  C   UNL     1      -0.554   2.366   5.632  0.00  0.00    -0.018 C 
ATOM     30  C   UNL     1      -1.170   2.220   7.026  0.00  0.00    -0.001 C 
ATOM     31  C   UNL     1      -0.483   1.065   7.759  0.00  0.00    -0.031 C 
ATOM     32  C   UNL     1      -0.620  -0.213   6.928  0.00  0.00    -0.075 C 
ATOM     33  C   UNL     1      -1.143   0.861   9.124  0.00  0.00    +0.005 C 
ATOM     34  H   UNL     1       0.976   0.245   5.746  0.00  0.00    -0.081 HD
ENDBRANCH  26  27
ENDBRANCH  10  26
TORSDOF 5
