REMARK  Name = ZINC08917751
REMARK  8 active torsions:
REMARK  status: ('A' for Active; 'I' for Inactive)
REMARK    1  A    between atoms: C_1  and  C_2
REMARK    2  A    between atoms: C_5  and  N_9
REMARK    3  A    between atoms: C_6  and  C_8
REMARK    4  A    between atoms: C_14  and  C_15
REMARK    5  A    between atoms: C_14  and  N_70
REMARK    6  A    between atoms: C_26  and  C_33
REMARK    7  A    between atoms: C_28  and  C_32
REMARK    8  A    between atoms: C_29  and  O_31
REMARK                            x       y       z     vdW  Elec       q    Type
REMARK                         _______ _______ _______ _____ _____    ______ ____
ROOT
ATOM      1  C   UNL     1       0.560  -1.421   2.197  0.00  0.00    +0.090 C 
ATOM      2  C   UNL     1      -0.199  -0.273   2.874  0.00  0.00    +0.071 C 
ATOM      3  C   UNL     1      -1.661  -0.736   2.831  0.00  0.00    +0.187 C 
ATOM      4  C   UNL     1      -2.303  -0.400   1.480  0.00  0.00    +0.076 C 
ATOM      5  C   UNL     1      -2.080   1.074   1.202  0.00  0.00    -0.061 C 
ATOM      6  C   UNL     1      -3.126   1.836   1.080  0.00  0.00    -0.027 C 
ATOM      7  C   UNL     1      -3.035   3.321   0.875  0.00  0.00    +0.027 C 
ATOM      8  C   UNL     1      -1.717   3.630   0.160  0.00  0.00    +0.008 C 
ATOM      9  C   UNL     1      -0.565   3.065   0.989  0.00  0.00    -0.001 C 
ATOM     10  C   UNL     1      -0.657   1.547   1.115  0.00  0.00    +0.018 C 
ATOM     11  C   UNL     1       0.101   1.099   2.360  0.00  0.00    +0.132 C 
ATOM     12  C   UNL     1      -0.004   0.940  -0.131  0.00  0.00    +0.018 C 
ATOM     13  C   UNL     1       0.752   3.434   0.302  0.00  0.00    +0.008 C 
ATOM     14  O   UNL     1      -1.529  -2.205   2.870  0.00  0.00    -0.460 OA
ATOM     15  C   UNL     1      -0.470  -2.536   2.102  0.00  0.00    +0.309 C 
ATOM     16  O   UNL     1      -0.357  -3.546   1.449  0.00  0.00    -0.251 OA
ENDROOT
BRANCH  11  17
ATOM     17  O   UNL     1       1.510   1.187   2.105  0.00  0.00    -0.391 OA
ATOM     18  H   UNL     1       2.062   0.918   2.852  0.00  0.00    +0.210 HD
ENDBRANCH  11  17
BRANCH   1  19
ATOM     19  C   UNL     1       1.738  -1.874   3.071  0.00  0.00    -0.064 C 
BRANCH  19  25
ATOM     20  N   UNL     1       4.897  -4.172   1.463  0.00  0.00    -0.333 N 
ATOM     21  C   UNL     1       4.071  -3.391   0.532  0.00  0.00    +0.086 C 
ATOM     22  C   UNL     1       3.341  -2.288   1.304  0.00  0.00    -0.060 C 
ATOM     23  C   UNL     1       3.339  -3.678   3.286  0.00  0.00    -0.060 C 
ATOM     24  C   UNL     1       4.069  -4.780   2.514  0.00  0.00    +0.086 C 
ATOM     25  N   UNL     1       2.496  -2.914   2.343  0.00  0.00    +0.382 N 
ATOM     26  H   UNL     1       1.833  -3.556   1.892  0.00  0.00    -0.082 HD
BRANCH  20  31
ATOM     27  C   UNL     1       7.892  -8.116  -1.301  0.00  0.00    +0.044 C 
ATOM     28  C   UNL     1       7.096  -7.068  -0.566  0.00  0.00    -0.050 A 
ATOM     29  C   UNL     1       5.714  -7.084  -0.625  0.00  0.00    +0.005 A 
ATOM     30  C   UNL     1       4.982  -6.125   0.046  0.00  0.00    +0.023 A 
ATOM     31  C   UNL     1       5.634  -5.144   0.783  0.00  0.00    +0.033 A 
ATOM     32  C   UNL     1       7.022  -5.129   0.837  0.00  0.00    -0.029 A 
ATOM     33  C   UNL     1       7.748  -6.093   0.166  0.00  0.00    +0.008 A 
ATOM     34  C   UNL     1       7.735  -4.063   1.629  0.00  0.00    +0.045 C 
ENDBRANCH  20  31
ENDBRANCH  19  25
ENDBRANCH   1  19
TORSDOF 4
