REMARK  Name = ZINC26894501
REMARK  3 active torsions:
REMARK  status: ('A' for Active; 'I' for Inactive)
REMARK    1  A    between atoms: C_1  and  C_2
REMARK    2  A    between atoms: C_5  and  C_8
REMARK    3  A    between atoms: C_25  and  C_27
REMARK                            x       y       z     vdW  Elec       q    Type
REMARK                         _______ _______ _______ _____ _____    ______ ____
ROOT
ATOM      1  C   UNL     1       0.796  -4.142  -0.675  0.00  0.00    +0.234 C 
ATOM      2  C   UNL     1       0.305  -2.752  -0.339  0.00  0.00    +0.025 C 
ATOM      3  C   UNL     1      -1.008  -2.517  -0.304  0.00  0.00    +0.050 C 
ATOM      4  C   UNL     1      -1.934  -3.643  -0.570  0.00  0.00    +0.038 A 
ATOM      5  C   UNL     1      -3.271  -3.426  -0.880  0.00  0.00    +0.013 A 
ATOM      6  C   UNL     1      -4.098  -4.506  -1.121  0.00  0.00    +0.001 A 
ATOM      7  C   UNL     1      -3.600  -5.796  -1.054  0.00  0.00    +0.004 A 
ATOM      8  C   UNL     1      -2.270  -6.021  -0.746  0.00  0.00    +0.046 A 
ATOM      9  C   UNL     1      -1.431  -4.949  -0.503  0.00  0.00    +0.131 A 
ATOM     10  O   UNL     1      -0.121  -5.127  -0.199  0.00  0.00    -0.479 OA
ATOM     11  N   UNL     1      -1.532  -1.251  -0.018  0.00  0.00    -0.283 N 
ATOM     12  C   UNL     1      -0.654  -0.178  -0.043  0.00  0.00    +0.219 A 
ATOM     13  N   UNL     1      -0.884   1.105  -0.054  0.00  0.00    -0.201 NA
ATOM     14  C   UNL     1       0.278   1.767  -0.089  0.00  0.00    +0.247 A 
ATOM     15  N   UNL     1       1.264   0.905  -0.098  0.00  0.00    -0.156 NA
ATOM     16  N   UNL     1       0.690  -0.366  -0.065  0.00  0.00    -0.221 N 
ATOM     17  C   UNL     1       1.325  -1.678  -0.050  0.00  0.00    +0.172 C 
ATOM     18  H   UNL     1      -2.601  -1.137   0.214  0.00  0.00    +0.155 HD
ENDROOT
BRANCH   1  23
ATOM     19  C   UNL     1       1.322  -4.638  -6.408  0.00  0.00    +0.044 C 
ATOM     20  C   UNL     1       1.185  -4.510  -4.913  0.00  0.00    -0.050 A 
ATOM     21  C   UNL     1       2.310  -4.339  -4.128  0.00  0.00    +0.004 A 
ATOM     22  C   UNL     1       2.184  -4.220  -2.756  0.00  0.00    +0.008 A 
ATOM     23  C   UNL     1       0.933  -4.271  -2.170  0.00  0.00    -0.003 A 
ATOM     24  C   UNL     1      -0.191  -4.448  -2.954  0.00  0.00    +0.008 A 
ATOM     25  C   UNL     1      -0.066  -4.562  -4.326  0.00  0.00    +0.004 A 
ENDBRANCH   1  23
BRANCH  17  26
ATOM     26  C   UNL     1       1.937  -1.922   1.305  0.00  0.00    -0.019 A 
ATOM     27  C   UNL     1       1.137  -1.931   2.433  0.00  0.00    +0.006 A 
ATOM     28  C   UNL     1       1.698  -2.159   3.676  0.00  0.00    +0.000 A 
ATOM     29  C   UNL     1       3.060  -2.368   3.792  0.00  0.00    +0.000 A 
ATOM     30  C   UNL     1       3.860  -2.354   2.664  0.00  0.00    +0.000 A 
ATOM     31  C   UNL     1       3.298  -2.130   1.421  0.00  0.00    +0.006 A 
ENDBRANCH  17  26
TORSDOF 2
