REMARK  Name = ZINC59833757
REMARK  4 active torsions:
REMARK  status: ('A' for Active; 'I' for Inactive)
REMARK    1  A    between atoms: C_3  and  S_6
REMARK    2  A    between atoms: S_6  and  N_9
REMARK    3  A    between atoms: N_9  and  C_10
REMARK    4  A    between atoms: C_16  and  C_18
REMARK                            x       y       z     vdW  Elec       q    Type
REMARK                         _______ _______ _______ _____ _____    ______ ____
ROOT
ATOM      1  C   UNL     1       4.451   0.730   2.400  0.00  0.00    +0.080 C 
ATOM      2  C   UNL     1       5.925   0.320   2.376  0.00  0.00    +0.039 C 
ATOM      3  C   UNL     1       6.122  -0.913   3.264  0.00  0.00    +0.109 C 
ATOM      4  N   UNL     1       5.599  -0.619   4.605  0.00  0.00    -0.296 N 
ATOM      5  C   UNL     1       4.219  -0.131   4.733  0.00  0.00    +0.109 C 
ATOM      6  C   UNL     1       4.043   1.094   3.829  0.00  0.00    +0.039 C 
ATOM      7  C   UNL     1       6.370  -0.795   5.696  0.00  0.00    +0.264 C 
ATOM      8  O   UNL     1       7.478  -1.284   5.586  0.00  0.00    -0.268 OA
ENDROOT
BRANCH   7   9
ATOM      9  C   UNL     1       5.872  -0.395   7.019  0.00  0.00    +0.122 A 
ATOM     10  C   UNL     1       4.966  -1.085   7.763  0.00  0.00    +0.078 A 
ATOM     11  C   UNL     1       4.758  -0.365   8.966  0.00  0.00    +0.020 A 
ATOM     12  C   UNL     1       3.952  -0.584  10.090  0.00  0.00    +0.031 A 
ATOM     13  C   UNL     1       3.964   0.312  11.120  0.00  0.00    +0.042 A 
ATOM     14  C   UNL     1       4.771   1.443  11.064  0.00  0.00    +0.022 A 
ATOM     15  C   UNL     1       5.571   1.681   9.969  0.00  0.00    +0.028 A 
ATOM     16  C   UNL     1       5.575   0.780   8.906  0.00  0.00    +0.049 A 
ATOM     17  N   UNL     1       6.253   0.741   7.710  0.00  0.00    -0.349 N 
ATOM     18  H   UNL     1       6.892   1.403   7.401  0.00  0.00    +0.166 HD
ATOM     19 CL   UNL     1       2.964   0.037  12.512  0.00  0.00    -0.084 Cl
ATOM     20 CL   UNL     1       4.203  -2.579   7.319  0.00  0.00    -0.081 Cl
ENDBRANCH   7   9
BRANCH   1  21
ATOM     21  N   UNL     1       4.253   1.889   1.526  0.00  0.00    -0.186 NA
ATOM     22  H   UNL     1       4.410   2.784   1.865  0.00  0.00    +0.148 HD
BRANCH  21  23
ATOM     23  S   UNL     1       3.760   1.671  -0.040  0.00  0.00    +0.065 S 
ATOM     24  O   UNL     1       4.604   0.672  -0.596  0.00  0.00    -0.153 OA
ATOM     25  O   UNL     1       3.635   2.966  -0.610  0.00  0.00    -0.153 OA
BRANCH  23  28
ATOM     26  C   UNL     1      -0.218   0.872   0.079  0.00  0.00    +0.010 A 
ATOM     27  C   UNL     1       0.942   1.623   0.035  0.00  0.00    +0.036 A 
ATOM     28  C   UNL     1       2.138   0.986   0.015  0.00  0.00    +0.142 A 
ATOM     29  S   UNL     1       1.643  -0.729   0.058  0.00  0.00    -0.077 S 
ATOM     30  C   UNL     1      -0.125  -0.480   0.100  0.00  0.00    +0.047 A 
ENDBRANCH  23  28
ENDBRANCH  21  23
ENDBRANCH   1  21
TORSDOF 4
