REMARK  Name = ZINC02718945
REMARK  6 active torsions:
REMARK  status: ('A' for Active; 'I' for Inactive)
REMARK    1  A    between atoms: C_1  and  C_2
REMARK    2  A    between atoms: C_3  and  C_26
REMARK    3  A    between atoms: C_4  and  C_21
REMARK    4  A    between atoms: C_10  and  S_12
REMARK    5  A    between atoms: S_12  and  C_13
REMARK    6  A    between atoms: C_13  and  C_14
REMARK                            x       y       z     vdW  Elec       q    Type
REMARK                         _______ _______ _______ _____ _____    ______ ____
ROOT
ATOM      1  C   UNL     1       0.540   1.416   0.152  0.00  0.00    +0.064 C 
ATOM      2  C   UNL     1       0.289  -0.064   0.009  0.00  0.00    +0.026 C 
ATOM      3  C   UNL     1      -1.000  -0.514  -0.061  0.00  0.00    +0.060 C 
ATOM      4  C   UNL     1      -1.205  -2.012  -0.205  0.00  0.00    +0.172 C 
ATOM      5  N   UNL     1       0.013  -2.828  -0.256  0.00  0.00    -0.187 N 
ATOM      6  C   UNL     1       1.236  -2.204  -0.172  0.00  0.00    +0.217 C 
ATOM      7  N   UNL     1       1.324  -0.887  -0.052  0.00  0.00    -0.330 N 
ATOM      8  N   UNL     1       2.178  -3.155  -0.242  0.00  0.00    -0.190 NA
ATOM      9  C   UNL     1       1.619  -4.346  -0.365  0.00  0.00    +0.197 C 
ATOM     10  N   UNL     1       0.259  -4.198  -0.379  0.00  0.00    -0.118 NA
ATOM     11  H   UNL     1       2.211  -0.498  -0.001  0.00  0.00    +0.168 HD
ENDROOT
BRANCH   4  12
ATOM     12  C   UNL     1      -1.984  -2.259  -1.471  0.00  0.00    +0.017 A 
ATOM     13  C   UNL     1      -1.560  -2.211  -2.757  0.00  0.00    +0.013 A 
ATOM     14  C   UNL     1      -2.462  -2.478  -3.771  0.00  0.00    +0.008 A 
ATOM     15  C   UNL     1      -3.744  -2.780  -3.448  0.00  0.00    +0.045 A 
ATOM     16  S   UNL     1      -3.704  -2.699  -1.665  0.00  0.00    -0.099 S 
ENDBRANCH   4  12
BRANCH   3  17
ATOM     17  C   UNL     1      -2.089   0.372   0.000  0.00  0.00    +0.241 C 
ATOM     18  O   UNL     1      -1.896   1.576   0.011  0.00  0.00    -0.271 OA
ATOM     19  N   UNL     1      -3.348  -0.109   0.046  0.00  0.00    -0.325 N 
ATOM     20  H   UNL     1      -3.499  -1.065   0.108  0.00  0.00    +0.145 HD
ATOM     21  H   UNL     1      -4.101   0.501   0.016  0.00  0.00    +0.145 HD
ENDBRANCH   3  17
BRANCH   9  22
ATOM     22  S   UNL     1       2.484  -5.876  -0.490  0.00  0.00    -0.082 S 
BRANCH  22  23
ATOM     23  C   UNL     1       4.233  -5.399  -0.408  0.00  0.00    +0.115 C 
BRANCH  23  24
ATOM     24  C   UNL     1       5.095  -6.631  -0.505  0.00  0.00    -0.002 A 
ATOM     25  C   UNL     1       5.460  -7.312   0.641  0.00  0.00    +0.007 A 
ATOM     26  C   UNL     1       6.251  -8.442   0.552  0.00  0.00    +0.000 A 
ATOM     27  C   UNL     1       6.677  -8.893  -0.683  0.00  0.00    +0.003 A 
ATOM     28  C   UNL     1       6.312  -8.215  -1.831  0.00  0.00    +0.038 A 
ATOM     29  C   UNL     1       5.516  -7.085  -1.743  0.00  0.00    +0.127 A 
ATOM     30  F   UNL     1       5.155  -6.424  -2.865  0.00  0.00    -0.205 F 
ENDBRANCH  23  24
ENDBRANCH  22  23
ENDBRANCH   9  22
TORSDOF 5
