REMARK  Name = ZINC60383119
REMARK  6 active torsions:
REMARK  status: ('A' for Active; 'I' for Inactive)
REMARK    1  A    between atoms: C_9  and  S_11
REMARK    2  A    between atoms: S_11  and  C_12
REMARK    3  A    between atoms: C_12  and  C_13
REMARK    4  A    between atoms: N_15  and  C_16
REMARK    5  A    between atoms: C_20  and  S_22
REMARK    6  A    between atoms: S_22  and  N_25
REMARK                            x       y       z     vdW  Elec       q    Type
REMARK                         _______ _______ _______ _____ _____    ______ ____
ROOT
ATOM      1  C   UNL     1       8.684  -5.105  -0.197  0.00  0.00    +0.035 A 
ATOM      2  C   UNL     1       8.115  -6.367  -0.299  0.00  0.00    +0.023 A 
ATOM      3  C   UNL     1       8.924  -7.482  -0.401  0.00  0.00    +0.004 A 
ATOM      4  C   UNL     1      10.300  -7.341  -0.401  0.00  0.00    +0.029 A 
ATOM      5  C   UNL     1      10.870  -6.085  -0.300  0.00  0.00    +0.114 A 
ATOM      6  C   UNL     1      10.065  -4.966  -0.204  0.00  0.00    +0.052 A 
ENDROOT
BRANCH   1   9
ATOM      7  C   UNL     1       8.239  -2.817  -0.677  0.00  0.00    +0.227 C 
ATOM      8  O   UNL     1       9.320  -2.733  -1.220  0.00  0.00    -0.275 OA
ATOM      9  N   UNL     1       7.867  -3.974  -0.094  0.00  0.00    -0.285 N 
ATOM     10  H   UNL     1       7.032  -4.022   0.398  0.00  0.00    +0.155 HD
BRANCH   7  11
ATOM     11  C   UNL     1       7.312  -1.629  -0.656  0.00  0.00    +0.173 C 
BRANCH  11  12
ATOM     12  S   UNL     1       8.094  -0.237  -1.516  0.00  0.00    -0.079 S 
BRANCH  12  21
ATOM     13  C   UNL     1       4.239   4.733  -1.438  0.00  0.00    +0.002 A 
ATOM     14  C   UNL     1       3.413   3.864  -0.742  0.00  0.00    +0.002 A 
ATOM     15  C   UNL     1       3.818   2.574  -0.479  0.00  0.00    +0.030 A 
ATOM     16  C   UNL     1       5.070   2.137  -0.918  0.00  0.00    +0.090 A 
ATOM     17  C   UNL     1       5.903   3.021  -1.624  0.00  0.00    +0.067 A 
ATOM     18  C   UNL     1       5.479   4.317  -1.879  0.00  0.00    +0.028 A 
ATOM     19  N   UNL     1       7.055   2.312  -1.920  0.00  0.00    -0.333 N 
ATOM     20  H   UNL     1       7.828   2.646  -2.403  0.00  0.00    +0.168 HD
ATOM     21  C   UNL     1       6.902   1.056  -1.405  0.00  0.00    +0.168 A 
ATOM     22  N   UNL     1       5.735   0.956  -0.817  0.00  0.00    -0.222 NA
ENDBRANCH  12  21
ENDBRANCH  11  12
ENDBRANCH   7  11
ENDBRANCH   1   9
BRANCH   5  23
ATOM     23  S   UNL     1      12.623  -5.912  -0.300  0.00  0.00    +0.100 S 
ATOM     24  O   UNL     1      12.910  -4.683   0.354  0.00  0.00    -0.146 OA
ATOM     25  O   UNL     1      13.154  -7.153   0.143  0.00  0.00    -0.146 OA
BRANCH  23  26
ATOM     26  N   UNL     1      13.096  -5.730  -1.877  0.00  0.00    -0.118 NA
ATOM     27  C   UNL     1      14.349  -5.582  -2.163  0.00  0.00    +0.117 C 
ATOM     28  C   UNL     1      15.393  -5.580  -1.049  0.00  0.00    +0.073 C 
ATOM     29  C   UNL     1      16.198  -6.854  -1.186  0.00  0.00    +0.008 C 
ATOM     30  C   UNL     1      17.401  -6.718  -2.121  0.00  0.00    +0.002 C 
ATOM     31  C   UNL     1      17.081  -5.942  -3.400  0.00  0.00    +0.019 C 
ATOM     32  C   UNL     1      15.751  -6.323  -4.012  0.00  0.00    +0.102 C 
ATOM     33  N   UNL     1      14.728  -5.437  -3.417  0.00  0.00    -0.331 N 
ATOM     34  H   UNL     1      14.331  -4.738  -3.960  0.00  0.00    +0.147 HD
ENDBRANCH  23  26
ENDBRANCH   5  23
TORSDOF 6
