REMARK  Name = ZINC20275123
REMARK  9 active torsions:
REMARK  status: ('A' for Active; 'I' for Inactive)
REMARK    1  A    between atoms: C_1  and  O_2
REMARK    2  A    between atoms: O_2  and  C_3
REMARK    3  A    between atoms: C_8  and  N_9
REMARK    4  A    between atoms: C_13  and  N_34
REMARK    5  A    between atoms: C_15  and  S_16
REMARK    6  A    between atoms: S_16  and  C_17
REMARK    7  A    between atoms: C_17  and  C_18
REMARK    8  A    between atoms: N_20  and  C_21
REMARK    9  A    between atoms: C_22  and  C_32
REMARK                            x       y       z     vdW  Elec       q    Type
REMARK                         _______ _______ _______ _____ _____    ______ ____
ROOT
ATOM      1  S   UNL     1      -0.989  -0.626   2.705  0.00  0.00    -0.078 S 
ENDROOT
BRANCH   1   8
ATOM      2  N   UNL     1      -1.202  -0.724   0.009  0.00  0.00    -0.252 N 
ATOM      3  C   UNL     1      -1.793  -1.058  -1.157  0.00  0.00    +0.261 A 
ATOM      4  O   UNL     1      -1.290  -0.740  -2.222  0.00  0.00    -0.267 OA
ATOM      5  C   UNL     1      -2.990  -1.779  -1.124  0.00  0.00    +0.114 A 
ATOM      6  C   UNL     1      -3.533  -2.117   0.108  0.00  0.00    +0.124 A 
ATOM      7  N   UNL     1      -2.906  -1.754   1.233  0.00  0.00    -0.208 NA
ATOM      8  C   UNL     1      -1.775  -1.079   1.194  0.00  0.00    +0.178 A 
BRANCH   2  14
ATOM      9  C   UNL     1      -0.017   1.389   0.010  0.00  0.00    +0.144 A 
ATOM     10  C   UNL     1       1.176   2.094   0.002  0.00  0.00    +0.048 A 
ATOM     11  C   UNL     1       2.380   1.416  -0.013  0.00  0.00    +0.004 A 
ATOM     12  C   UNL     1       2.400   0.034  -0.021  0.00  0.00    +0.002 A 
ATOM     13  C   UNL     1       1.215  -0.677  -0.013  0.00  0.00    +0.030 A 
ATOM     14  C   UNL     1       0.002  -0.004   0.002  0.00  0.00    +0.093 A 
BRANCH   9  16
ATOM     15  C   UNL     1      -1.145   3.482   0.026  0.00  0.00    +0.277 C 
ATOM     16  O   UNL     1      -1.202   2.054   0.019  0.00  0.00    -0.493 OA
ENDBRANCH   9  16
ENDBRANCH   2  14
BRANCH   6  17
ATOM     17  N   UNL     1      -4.717  -2.825   0.173  0.00  0.00    -0.343 N 
ATOM     18  H   UNL     1      -5.146  -3.091   1.151  0.00  0.00    +0.144 HD
ATOM     19  H   UNL     1      -5.232  -3.122  -0.752  0.00  0.00    +0.144 HD
ENDBRANCH   6  17
ENDBRANCH   1   8
BRANCH   1  20
ATOM     20  C   UNL     1      -2.156  -1.336   3.892  0.00  0.00    +0.173 C 
BRANCH  20  21
ATOM     21  C   UNL     1      -1.674  -1.064   5.294  0.00  0.00    +0.228 C 
ATOM     22  O   UNL     1      -0.643  -0.451   5.473  0.00  0.00    -0.275 OA
ATOM     23  N   UNL     1      -2.389  -1.503   6.349  0.00  0.00    -0.278 N 
ATOM     24  H   UNL     1      -3.323  -2.059   6.187  0.00  0.00    +0.155 HD
BRANCH  23  25
ATOM     25  C   UNL     1      -1.945  -1.252   7.640  0.00  0.00    +0.090 A 
ATOM     26  C   UNL     1      -2.534  -1.610   8.837  0.00  0.00    +0.084 A 
ATOM     27  C   UNL     1      -1.853  -1.246  10.085  0.00  0.00    -0.018 A 
ATOM     28  C   UNL     1      -0.722  -0.543   9.904  0.00  0.00    -0.004 A 
ATOM     29  S   UNL     1      -0.522  -0.407   8.146  0.00  0.00    -0.077 S 
ATOM     30  C   UNL     1       0.176   0.074  10.939  0.00  0.00    +0.043 C 
ATOM     31  C   UNL     1      -0.483   1.399  11.365  0.00  0.00    +0.005 C 
ATOM     32  C   UNL     1      -1.925   1.101  11.793  0.00  0.00    +0.000 C 
ATOM     33  C   UNL     1      -1.808   0.171  12.982  0.00  0.00    +0.000 C 
ATOM     34  C   UNL     1      -1.617  -1.289  12.609  0.00  0.00    +0.005 C 
ATOM     35  C   UNL     1      -2.463  -1.703  11.411  0.00  0.00    +0.037 C 
BRANCH  26  36
ATOM     36  C   UNL     1      -3.775  -2.324   8.859  0.00  0.00    +0.102 C 
ATOM     37  N   UNL     1      -4.760  -2.890   8.877  0.00  0.00    -0.191 NA
ENDBRANCH  26  36
ENDBRANCH  23  25
ENDBRANCH  20  21
ENDBRANCH   1  20
TORSDOF 8
