REMARK  Name = ZINC63818958
REMARK  7 active torsions:
REMARK  status: ('A' for Active; 'I' for Inactive)
REMARK    1  A    between atoms: C_7  and  C_10
REMARK    2  A    between atoms: C_10  and  C_11
REMARK    3  A    between atoms: C_11  and  N_12
REMARK    4  A    between atoms: C_13  and  C_15
REMARK    5  A    between atoms: C_19  and  S_21
REMARK    6  A    between atoms: S_21  and  N_24
REMARK    7  A    between atoms: N_24  and  C_25
REMARK                            x       y       z     vdW  Elec       q    Type
REMARK                         _______ _______ _______ _____ _____    ______ ____
ROOT
ATOM      1  C   UNL     1      -3.053  -4.237  -4.228  0.00  0.00    +0.039 A 
ATOM      2  C   UNL     1      -3.323  -4.227  -2.859  0.00  0.00    +0.013 A 
ATOM      3  C   UNL     1      -3.596  -5.410  -2.204  0.00  0.00    +0.003 A 
ATOM      4  C   UNL     1      -3.603  -6.605  -2.901  0.00  0.00    +0.029 A 
ATOM      5  C   UNL     1      -3.336  -6.622  -4.259  0.00  0.00    +0.109 A 
ATOM      6  C   UNL     1      -3.067  -5.445  -4.927  0.00  0.00    +0.041 A 
ENDROOT
BRANCH   1   8
ATOM      7  N   UNL     1      -2.747  -1.808  -4.259  0.00  0.00    -0.311 N 
ATOM      8  C   UNL     1      -2.760  -2.973  -4.937  0.00  0.00    +0.244 C 
ATOM      9  O   UNL     1      -2.530  -2.984  -6.130  0.00  0.00    -0.270 OA
ATOM     10  H   UNL     1      -2.930  -1.799  -3.307  0.00  0.00    +0.149 HD
BRANCH   7  11
ATOM     11  C   UNL     1      -2.456  -0.555  -4.961  0.00  0.00    +0.109 C 
BRANCH  11  12
ATOM     12  C   UNL     1      -2.504   0.608  -3.969  0.00  0.00    +0.052 C 
BRANCH  12  19
ATOM     13  C   UNL     1      -5.205   3.812  -5.838  0.00  0.00    +0.001 A 
ATOM     14  C   UNL     1      -4.498   4.872  -6.423  0.00  0.00    +0.002 A 
ATOM     15  C   UNL     1      -3.150   4.934  -6.429  0.00  0.00    +0.026 A 
ATOM     16  C   UNL     1      -2.380   3.900  -5.828  0.00  0.00    +0.043 A 
ATOM     17  N   UNL     1      -1.086   3.733  -5.707  0.00  0.00    -0.380 N 
ATOM     18  C   UNL     1      -0.841   2.476  -4.990  0.00  0.00    +0.144 C 
ATOM     19  C   UNL     1      -2.206   1.897  -4.691  0.00  0.00    -0.040 C 
ATOM     20  C   UNL     1      -3.103   2.769  -5.203  0.00  0.00    -0.001 A 
ATOM     21  C   UNL     1      -4.571   2.779  -5.239  0.00  0.00    +0.010 A 
ATOM     22  H   UNL     1      -0.404   4.339  -6.036  0.00  0.00    +0.160 HD
ENDBRANCH  12  19
ENDBRANCH  11  12
ENDBRANCH   7  11
ENDBRANCH   1   8
BRANCH   5  23
ATOM     23  S   UNL     1      -3.347  -8.149  -5.138  0.00  0.00    +0.072 S 
ATOM     24  O   UNL     1      -2.433  -8.004  -6.216  0.00  0.00    -0.150 OA
ATOM     25  O   UNL     1      -3.221  -9.178  -4.165  0.00  0.00    -0.150 OA
BRANCH  23  26
ATOM     26  N   UNL     1      -4.851  -8.316  -5.811  0.00  0.00    -0.216 N 
ATOM     27  H   UNL     1      -4.949  -8.347  -6.776  0.00  0.00    +0.174 HD
BRANCH  26  28
ATOM     28  C   UNL     1      -5.979  -8.411  -4.990  0.00  0.00    +0.052 A 
ATOM     29  C   UNL     1      -6.240  -9.590  -4.304  0.00  0.00    +0.028 A 
ATOM     30  C   UNL     1      -7.354  -9.686  -3.492  0.00  0.00    +0.051 A 
ATOM     31  C   UNL     1      -8.213  -8.607  -3.359  0.00  0.00    +0.166 A 
ATOM     32  C   UNL     1      -7.953  -7.423  -4.045  0.00  0.00    +0.168 A 
ATOM     33  C   UNL     1      -6.834  -7.326  -4.855  0.00  0.00    +0.074 A 
ATOM     34  O   UNL     1      -8.936  -6.523  -3.750  0.00  0.00    -0.453 OA
ATOM     35  C   UNL     1     -10.018  -7.300  -3.202  0.00  0.00    +0.466 C 
ATOM     36  O   UNL     1      -9.360  -8.448  -2.634  0.00  0.00    -0.453 OA
ENDBRANCH  26  28
ENDBRANCH  23  26
ENDBRANCH   5  23
TORSDOF 7
