REMARK  Name = ZINC21232708
REMARK  7 active torsions:
REMARK  status: ('A' for Active; 'I' for Inactive)
REMARK    1  A    between atoms: C_1  and  O_2
REMARK    2  A    between atoms: O_2  and  C_3
REMARK    3  A    between atoms: C_6  and  O_37
REMARK    4  A    between atoms: C_7  and  C_9
REMARK    5  A    between atoms: C_14  and  C_24
REMARK    6  A    between atoms: C_28  and  N_30
REMARK    7  A    between atoms: O_37  and  C_38
REMARK                            x       y       z     vdW  Elec       q    Type
REMARK                         _______ _______ _______ _____ _____    ______ ____
ROOT
ATOM      1  C   UNL     1       6.097  -3.199   1.726  0.00  0.00    +0.036 C 
ATOM      2  C   UNL     1       5.661  -1.768   1.414  0.00  0.00    +0.060 C 
ATOM      3  C   UNL     1       4.199  -1.754   0.999  0.00  0.00    +0.017 C 
ATOM      4  C   UNL     1       3.332  -2.630   1.534  0.00  0.00    +0.036 C 
ATOM      5  C   UNL     1       1.853  -2.706   1.239  0.00  0.00    +0.136 C 
ATOM      6  N   UNL     1       1.427  -1.915   0.105  0.00  0.00    -0.331 N 
ATOM      7  C   UNL     1       1.522  -0.524   0.119  0.00  0.00    +0.049 A 
ATOM      8  C   UNL     1       0.392   0.278   0.135  0.00  0.00    +0.025 A 
ATOM      9  C   UNL     1       0.533   1.650   0.246  0.00  0.00    +0.002 A 
ATOM     10  C   UNL     1       1.790   2.218   0.342  0.00  0.00    +0.002 A 
ATOM     11  C   UNL     1       2.922   1.421   0.310  0.00  0.00    +0.025 A 
ATOM     12  C   UNL     1       2.783   0.050   0.183  0.00  0.00    +0.052 A 
ATOM     13  N   UNL     1       3.877  -0.802   0.086  0.00  0.00    -0.316 N 
ATOM     14  C   UNL     1       3.781  -3.599   2.462  0.00  0.00    +0.163 C 
ATOM     15  O   UNL     1       2.971  -4.366   2.945  0.00  0.00    -0.292 OA
ATOM     16  C   UNL     1       5.218  -3.716   2.871  0.00  0.00    +0.088 C 
ATOM     17  H   UNL     1       1.019  -2.410  -0.789  0.00  0.00    +0.147 HD
ATOM     18  H   UNL     1       4.502  -0.664  -0.808  0.00  0.00    +0.152 HD
ENDROOT
BRANCH   5  19
ATOM     19  C   UNL     1       1.098  -2.236   2.456  0.00  0.00    -0.021 A 
ATOM     20  C   UNL     1       1.244  -0.935   2.900  0.00  0.00    +0.007 A 
ATOM     21  C   UNL     1       0.548  -0.502   4.013  0.00  0.00    +0.022 A 
ATOM     22  C   UNL     1      -0.286  -1.374   4.690  0.00  0.00    +0.071 A 
ATOM     23  C   UNL     1      -0.427  -2.678   4.249  0.00  0.00    +0.145 A 
ATOM     24  C   UNL     1       0.266  -3.108   3.132  0.00  0.00    +0.040 A 
ATOM     25 CL   UNL     1      -1.155  -0.833   6.091  0.00  0.00    -0.081 Cl
BRANCH  23  26
ATOM     26  N   UNL     1      -1.319  -3.611   4.972  0.00  0.00    +0.058 N 
ATOM     27  O   UNL     1      -1.443  -4.759   4.583  0.00  0.00    -0.126 OA
ATOM     28  O   UNL     1      -1.929  -3.232   5.956  0.00  0.00    -0.126 OA
ENDBRANCH  23  26
ENDBRANCH   5  19
BRANCH   1  33
ATOM     29  C   UNL     1       9.280  -2.506   3.641  0.00  0.00    +0.121 A 
ATOM     30  C   UNL     1      10.207  -3.236   2.912  0.00  0.00    +0.049 A 
ATOM     31  C   UNL     1       9.804  -3.953   1.803  0.00  0.00    +0.049 A 
ATOM     32  C   UNL     1       8.471  -3.942   1.417  0.00  0.00    +0.124 A 
ATOM     33  C   UNL     1       7.545  -3.212   2.145  0.00  0.00    +0.002 A 
ATOM     34  C   UNL     1       7.949  -2.491   3.252  0.00  0.00    +0.053 A 
BRANCH  29  36
ATOM     35  C   UNL     1      11.064  -1.857   5.073  0.00  0.00    +0.277 C 
ATOM     36  O   UNL     1       9.677  -1.801   4.734  0.00  0.00    -0.495 OA
ENDBRANCH  29  36
BRANCH  32  37
ATOM     37  O   UNL     1       8.074  -4.647   0.324  0.00  0.00    -0.495 OA
ATOM     38  C   UNL     1       9.082  -5.377  -0.379  0.00  0.00    +0.277 C 
ENDBRANCH  32  37
ENDBRANCH   1  33
TORSDOF 5
