REMARK  Name = ZINC01463261
REMARK  5 active torsions:
REMARK  status: ('A' for Active; 'I' for Inactive)
REMARK    1  A    between atoms: C_1  and  C_2
REMARK    2  A    between atoms: N_7  and  C_8
REMARK    3  A    between atoms: C_8  and  C_10
REMARK    4  A    between atoms: C_8  and  C_17
REMARK    5  A    between atoms: C_26  and  O_27
REMARK                            x       y       z     vdW  Elec       q    Type
REMARK                         _______ _______ _______ _____ _____    ______ ____
ROOT
ATOM      1  C   UNL     1      -1.290   1.681   0.017  0.00  0.00    +0.136 C 
ENDROOT
BRANCH   1   2
ATOM      2  C   UNL     1      -2.332   0.856  -0.693  0.00  0.00    +0.021 A 
ATOM      3  C   UNL     1      -2.237  -0.533  -0.674  0.00  0.00    +0.010 A 
ATOM      4  C   UNL     1      -3.166  -1.307  -1.300  0.00  0.00    +0.010 A 
ATOM      5  C   UNL     1      -4.230  -0.699  -1.987  0.00  0.00    +0.004 A 
ATOM      6  C   UNL     1      -5.206  -1.466  -2.651  0.00  0.00    +0.011 A 
ATOM      7  C   UNL     1      -6.213  -0.807  -3.298  0.00  0.00    +0.020 A 
ATOM      8  C   UNL     1      -6.252   0.586  -3.286  0.00  0.00    +0.111 A 
ATOM      9  N   UNL     1      -5.341   1.296  -2.666  0.00  0.00    -0.251 NA
ATOM     10  C   UNL     1      -4.330   0.713  -2.015  0.00  0.00    +0.113 A 
ATOM     11  C   UNL     1      -3.353   1.483  -1.349  0.00  0.00    +0.148 A 
BRANCH  11  12
ATOM     12  O   UNL     1      -3.426   2.839  -1.361  0.00  0.00    -0.504 OA
ATOM     13  H   UNL     1      -2.961   3.252  -2.102  0.00  0.00    +0.292 HD
ENDBRANCH  11  12
ENDBRANCH   1   2
BRANCH   1  20
ATOM     14  C   UNL     1       3.456   4.492   0.295  0.00  0.00    +0.089 C 
ATOM     15  C   UNL     1       2.703   3.188   0.233  0.00  0.00    +0.136 A 
ATOM     16  C   UNL     1       1.361   3.033   0.164  0.00  0.00    +0.090 A 
ATOM     17  C   UNL     1       1.181   1.624   0.131  0.00  0.00    +0.162 A 
ATOM     18  N   UNL     1       2.379   1.102   0.173  0.00  0.00    -0.063 NA
ATOM     19  O   UNL     1       3.232   1.956   0.229  0.00  0.00    -0.358 OA
ATOM     20  N   UNL     1      -0.028   0.939   0.063  0.00  0.00    -0.315 N 
ATOM     21  H   UNL     1      -0.034  -0.031   0.042  0.00  0.00    +0.148 HD
ENDBRANCH   1  20
BRANCH   1  22
ATOM     22  C   UNL     1      -1.752   1.974   1.421  0.00  0.00    -0.022 A 
ATOM     23  C   UNL     1      -2.312   3.202   1.723  0.00  0.00    +0.006 A 
ATOM     24  C   UNL     1      -2.736   3.471   3.011  0.00  0.00    +0.001 A 
ATOM     25  C   UNL     1      -2.600   2.513   3.998  0.00  0.00    +0.015 A 
ATOM     26  C   UNL     1      -2.040   1.284   3.697  0.00  0.00    +0.018 A 
ATOM     27  C   UNL     1      -1.620   1.013   2.406  0.00  0.00    +0.021 A 
ATOM     28 BR   UNL     1      -1.854  -0.027   5.047  0.00  0.00    -0.050 Br
ENDBRANCH   1  22
TORSDOF 4
