REMARK  Name = ZINC25449318
REMARK  11 active torsions:
REMARK  status: ('A' for Active; 'I' for Inactive)
REMARK    1  A    between atoms: C_1  and  C_2
REMARK    2  A    between atoms: C_2  and  O_3
REMARK    3  A    between atoms: O_3  and  C_4
REMARK    4  A    between atoms: C_4  and  C_6
REMARK    5  A    between atoms: C_7  and  C_35
REMARK    6  A    between atoms: C_13  and  C_17
REMARK    7  A    between atoms: C_17  and  C_19
REMARK    8  A    between atoms: C_17  and  N_20
REMARK    9  A    between atoms: C_23  and  C_26
REMARK   10  A    between atoms: C_26  and  C_28
REMARK   11  A    between atoms: C_31  and  O_34
REMARK                            x       y       z     vdW  Elec       q    Type
REMARK                         _______ _______ _______ _____ _____    ______ ____
ROOT
ATOM      1  C   UNL     1      -7.909   2.487   1.005  0.00  0.00    -0.004 C 
ATOM      2  C   UNL     1      -8.869   1.471   0.383  0.00  0.00    -0.005 C 
ENDROOT
BRANCH   1  10
ATOM      3  C   UNL     1      -7.864   2.934   7.313  0.00  0.00    +0.102 A 
ATOM      4  C   UNL     1      -8.955   3.139   6.519  0.00  0.00    -0.015 A 
ATOM      5  C   UNL     1      -8.840   3.011   5.134  0.00  0.00    +0.076 A 
ATOM      6  C   UNL     1      -9.875   3.184   4.089  0.00  0.00    +0.260 A 
ATOM      7  O   UNL     1     -11.019   3.480   4.386  0.00  0.00    -0.267 OA
ATOM      8  N   UNL     1      -9.519   3.004   2.802  0.00  0.00    -0.312 N 
ATOM      9  H   UNL     1     -10.265   3.125   2.003  0.00  0.00    +0.170 HD
ATOM     10  C   UNL     1      -8.249   2.675   2.461  0.00  0.00    +0.097 A 
ATOM     11  N   UNL     1      -7.314   2.510   3.357  0.00  0.00    -0.228 NA
ATOM     12  C   UNL     1      -7.556   2.667   4.652  0.00  0.00    +0.116 A 
ATOM     13  S   UNL     1      -6.585   2.541   6.132  0.00  0.00    -0.062 S 
ATOM     14  C   UNL     1     -10.281   3.502   7.137  0.00  0.00    +0.046 C 
BRANCH   3  15
ATOM     15  C   UNL     1      -7.766   3.017   8.772  0.00  0.00    +0.346 C 
ATOM     16  O   UNL     1      -8.748   3.301   9.432  0.00  0.00    -0.244 OA
BRANCH  15  17
ATOM     17  O   UNL     1      -6.588   2.777   9.384  0.00  0.00    -0.461 OA
BRANCH  17  19
ATOM     18  C   UNL     1      -5.155   2.573  11.343  0.00  0.00    +0.048 C 
ATOM     19  C   UNL     1      -6.566   2.876  10.833  0.00  0.00    +0.229 C 
ENDBRANCH  17  19
ENDBRANCH  15  17
ENDBRANCH   3  15
ENDBRANCH   1  10
BRANCH   1  20
ATOM     20  N   UNL     1      -6.530   1.994   0.884  0.00  0.00    +0.386 N 
ATOM     21  C   UNL     1      -6.422   0.610   1.362  0.00  0.00    -0.077 C 
ATOM     22  C   UNL     1      -4.953   0.181   1.359  0.00  0.00    -0.007 C 
ATOM     23  C   UNL     1      -4.397   0.294  -0.064  0.00  0.00    +0.057 C 
ATOM     24  C   UNL     1      -4.566   1.734  -0.556  0.00  0.00    -0.007 C 
ATOM     25  C   UNL     1      -6.046   2.119  -0.497  0.00  0.00    -0.077 C 
ATOM     26  H   UNL     1      -5.889   2.620   1.522  0.00  0.00    -0.081 HD
BRANCH  23  27
ATOM     27  C   UNL     1      -2.934  -0.070  -0.063  0.00  0.00    +0.166 C 
ATOM     28  O   UNL     1      -2.280   0.052   0.951  0.00  0.00    -0.292 OA
BRANCH  27  29
ATOM     29  C   UNL     1      -2.302  -0.572  -1.290  0.00  0.00    +0.018 A 
ATOM     30  C   UNL     1      -0.944  -0.911  -1.292  0.00  0.00    +0.015 A 
ATOM     31  C   UNL     1      -0.359  -1.385  -2.438  0.00  0.00    +0.046 A 
ATOM     32  C   UNL     1      -1.113  -1.524  -3.599  0.00  0.00    +0.117 A 
ATOM     33  C   UNL     1      -2.461  -1.183  -3.604  0.00  0.00    +0.046 A 
ATOM     34  C   UNL     1      -3.055  -0.708  -2.463  0.00  0.00    +0.015 A 
BRANCH  32  35
ATOM     35  O   UNL     1      -0.530  -1.993  -4.731  0.00  0.00    -0.507 OA
ATOM     36  H   UNL     1      -1.124  -2.104  -5.650  0.00  0.00    +0.292 HD
ENDBRANCH  32  35
ENDBRANCH  27  29
ENDBRANCH  23  27
ENDBRANCH   1  20
TORSDOF 8
