REMARK  Name = ZINC15027508
REMARK  5 active torsions:
REMARK  status: ('A' for Active; 'I' for Inactive)
REMARK    1  A    between atoms: C_4  and  C_7
REMARK    2  A    between atoms: C_12  and  N_13
REMARK    3  A    between atoms: C_14  and  C_16
REMARK    4  A    between atoms: C_16  and  N_17
REMARK    5  A    between atoms: C_26  and  C_28
REMARK                            x       y       z     vdW  Elec       q    Type
REMARK                         _______ _______ _______ _____ _____    ______ ____
ROOT
ATOM      1  N   UNL     1       2.268  -1.972   1.711  0.00  0.00    -0.284 N 
ATOM      2  C   UNL     1       2.660  -2.983   2.511  0.00  0.00    +0.231 C 
ATOM      3  O   UNL     1       3.814  -3.358   2.494  0.00  0.00    -0.274 OA
ATOM      4  H   UNL     1       1.363  -1.628   1.772  0.00  0.00    +0.155 HD
ENDROOT
BRANCH   1  10
ATOM      5  C   UNL     1       2.702  -0.923  -0.430  0.00  0.00    +0.003 A 
ATOM      6  C   UNL     1       3.604  -0.369  -1.336  0.00  0.00    +0.010 A 
ATOM      7  C   UNL     1       4.948  -0.316  -1.025  0.00  0.00    +0.001 A 
ATOM      8  C   UNL     1       5.404  -0.813   0.184  0.00  0.00    +0.002 A 
ATOM      9  C   UNL     1       4.520  -1.365   1.089  0.00  0.00    +0.024 A 
ATOM     10  C   UNL     1       3.166  -1.419   0.793  0.00  0.00    +0.041 A 
BRANCH   5  14
ATOM     11  C   UNL     1      -1.440  -1.092  -1.375  0.00  0.00    +0.000 A 
ATOM     12  C   UNL     1      -0.748   0.096  -1.521  0.00  0.00    +0.001 A 
ATOM     13  C   UNL     1       0.597   0.157  -1.216  0.00  0.00    +0.008 A 
ATOM     14  C   UNL     1       1.258  -0.982  -0.760  0.00  0.00    -0.016 A 
ATOM     15  C   UNL     1       0.555  -2.177  -0.614  0.00  0.00    +0.008 A 
ATOM     16  C   UNL     1      -0.789  -2.226  -0.923  0.00  0.00    +0.001 A 
ENDBRANCH   5  14
ENDBRANCH   1  10
BRANCH   2  17
ATOM     17  C   UNL     1       1.666  -3.648   3.427  0.00  0.00    +0.181 C 
BRANCH  17  18
ATOM     18  N   UNL     1       2.335  -4.711   4.189  0.00  0.00    -0.278 NA
ATOM     19  C   UNL     1       2.614  -5.872   3.337  0.00  0.00    +0.121 C 
ATOM     20  C   UNL     1       3.211  -6.990   4.150  0.00  0.00    -0.030 A 
ATOM     21  C   UNL     1       3.875  -8.010   3.483  0.00  0.00    +0.005 A 
ATOM     22  C   UNL     1       4.434  -9.057   4.187  0.00  0.00    +0.000 A 
ATOM     23  C   UNL     1       4.332  -9.091   5.566  0.00  0.00    +0.000 A 
ATOM     24  C   UNL     1       3.673  -8.077   6.231  0.00  0.00    +0.004 A 
ATOM     25  C   UNL     1       3.113  -7.024   5.524  0.00  0.00    -0.041 A 
ATOM     26  C   UNL     1       2.413  -5.933   6.294  0.00  0.00    +0.063 C 
ATOM     27  C   UNL     1       1.530  -5.114   5.352  0.00  0.00    +0.148 C 
BRANCH  27  28
ATOM     28  C   UNL     1       1.026  -3.888   6.069  0.00  0.00    +0.228 C 
ATOM     29  O   UNL     1       1.719  -2.894   6.131  0.00  0.00    -0.274 OA
ATOM     30  N   UNL     1      -0.194  -3.895   6.642  0.00  0.00    -0.328 N 
ATOM     31  H   UNL     1      -0.748  -4.690   6.593  0.00  0.00    +0.145 HD
ATOM     32  H   UNL     1      -0.518  -3.106   7.103  0.00  0.00    +0.145 HD
ENDBRANCH  27  28
ENDBRANCH  17  18
ENDBRANCH   2  17
TORSDOF 5
