REMARK  Name = ZINC13564695
REMARK  7 active torsions:
REMARK  status: ('A' for Active; 'I' for Inactive)
REMARK    1  A    between atoms: C_1  and  C_2
REMARK    2  A    between atoms: C_5  and  C_8
REMARK    3  A    between atoms: C_11  and  C_24
REMARK    4  A    between atoms: N_16  and  C_18
REMARK    5  A    between atoms: C_24  and  N_25
REMARK    6  A    between atoms: N_25  and  C_26
REMARK    7  A    between atoms: C_26  and  C_27
REMARK                            x       y       z     vdW  Elec       q    Type
REMARK                         _______ _______ _______ _____ _____    ______ ____
ROOT
ATOM      1  C   UNL     1      -0.090  -4.257   0.004  0.00  0.00    +0.102 A 
ATOM      2  C   UNL     1       0.303  -5.066   1.084  0.00  0.00    +0.045 A 
ATOM      3  C   UNL     1       0.611  -4.791   2.434  0.00  0.00    +0.020 A 
ATOM      4  C   UNL     1       0.967  -5.827   3.241  0.00  0.00    +0.001 A 
ATOM      5  C   UNL     1       1.017  -7.134   2.714  0.00  0.00    +0.252 A 
ATOM      6  O   UNL     1       1.337  -8.064   3.442  0.00  0.00    -0.268 OA
ATOM      7  N   UNL     1       0.723  -7.374   1.434  0.00  0.00    -0.307 N 
ATOM      8  C   UNL     1       0.373  -6.400   0.614  0.00  0.00    +0.145 A 
ATOM      9  N   UNL     1       0.026  -6.380  -0.721  0.00  0.00    -0.215 N 
ATOM     10  N   UNL     1      -0.261  -5.058  -1.082  0.00  0.00    -0.164 NA
ATOM     11  H   UNL     1       0.766  -8.283   1.100  0.00  0.00    +0.170 HD
ENDROOT
BRANCH   1  16
ATOM     12  C   UNL     1      -0.864   1.438   0.154  0.00  0.00    +0.044 C 
ATOM     13  C   UNL     1      -0.661  -0.055   0.115  0.00  0.00    -0.050 A 
ATOM     14  C   UNL     1       0.470  -0.611   0.687  0.00  0.00    +0.004 A 
ATOM     15  C   UNL     1       0.663  -1.976   0.655  0.00  0.00    +0.010 A 
ATOM     16  C   UNL     1      -0.288  -2.799   0.043  0.00  0.00    +0.003 A 
ATOM     17  C   UNL     1      -1.429  -2.229  -0.533  0.00  0.00    +0.010 A 
ATOM     18  C   UNL     1      -1.610  -0.863  -0.488  0.00  0.00    +0.004 A 
ENDBRANCH   1  16
BRANCH   9  19
ATOM     19  C   UNL     1      -0.033  -7.491  -1.567  0.00  0.00    +0.068 A 
ATOM     20  C   UNL     1      -0.677  -8.649  -1.152  0.00  0.00    +0.028 A 
ATOM     21  C   UNL     1      -0.734  -9.744  -1.991  0.00  0.00    +0.002 A 
ATOM     22  C   UNL     1      -0.149  -9.689  -3.243  0.00  0.00    +0.000 A 
ATOM     23  C   UNL     1       0.493  -8.538  -3.660  0.00  0.00    +0.002 A 
ATOM     24  C   UNL     1       0.548  -7.437  -2.828  0.00  0.00    +0.028 A 
ENDBRANCH   9  19
BRANCH   4  25
ATOM     25  C   UNL     1       1.304  -5.579   4.689  0.00  0.00    -0.041 C 
BRANCH  25  26
ATOM     26  N   UNL     1       0.111  -5.805   5.515  0.00  0.00    +0.384 N 
ATOM     27  H   UNL     1      -0.622  -5.174   5.228  0.00  0.00    -0.085 HD
ATOM     28  H   UNL     1      -0.202  -6.758   5.401  0.00  0.00    -0.085 HD
BRANCH  26  29
ATOM     29  C   UNL     1       0.440  -5.564   6.926  0.00  0.00    -0.046 C 
BRANCH  29  30
ATOM     30  C   UNL     1      -0.784  -5.795   7.774  0.00  0.00    -0.064 A 
ATOM     31  C   UNL     1      -1.653  -4.752   8.033  0.00  0.00    +0.004 A 
ATOM     32  C   UNL     1      -2.776  -4.963   8.810  0.00  0.00    +0.038 A 
ATOM     33  C   UNL     1      -3.031  -6.221   9.330  0.00  0.00    +0.123 A 
ATOM     34  C   UNL     1      -2.159  -7.266   9.071  0.00  0.00    +0.038 A 
ATOM     35  C   UNL     1      -1.040  -7.053   8.289  0.00  0.00    +0.004 A 
ATOM     36  F   UNL     1      -4.128  -6.429  10.090  0.00  0.00    -0.205 F 
ENDBRANCH  29  30
ENDBRANCH  26  29
ENDBRANCH  25  26
ENDBRANCH   4  25
TORSDOF 6
