REMARK  Name = ZINC03273934
REMARK  7 active torsions:
REMARK  status: ('A' for Active; 'I' for Inactive)
REMARK    1  A    between atoms: C_1  and  C_2
REMARK    2  A    between atoms: C_1  and  N_4
REMARK    3  A    between atoms: N_4  and  C_5
REMARK    4  A    between atoms: N_4  and  C_8
REMARK    5  A    between atoms: C_5  and  C_6
REMARK    6  A    between atoms: C_9  and  C_10
REMARK    7  A    between atoms: C_10  and  C_12
REMARK                            x       y       z     vdW  Elec       q    Type
REMARK                         _______ _______ _______ _____ _____    ______ ____
ROOT
ATOM      1  N   UNL     1      -3.592   1.867   0.029  0.00  0.00    -0.314 N 
ENDROOT
BRANCH   1   2
ATOM      2  C   UNL     1      -2.402   1.202   0.020  0.00  0.00    +0.075 C 
ATOM      3  C   UNL     1      -1.238   1.895   0.018  0.00  0.00    +0.070 C 
BRANCH   3   4
ATOM      4  C   UNL     1      -0.014   1.211   0.009  0.00  0.00    +0.260 C 
ATOM      5  O   UNL     1       0.002  -0.004   0.002  0.00  0.00    -0.283 OA
BRANCH   4   6
ATOM      6  C   UNL     1       1.280   1.982   0.001  0.00  0.00    +0.455 C 
ATOM      7  F   UNL     1       2.356   1.088  -0.015  0.00  0.00    -0.163 F 
ATOM      8  F   UNL     1       1.333   2.794  -1.138  0.00  0.00    -0.163 F 
ATOM      9  F   UNL     1       1.354   2.781   1.146  0.00  0.00    -0.163 F 
ENDBRANCH   4   6
ENDBRANCH   3   4
ENDBRANCH   1   2
BRANCH   1  10
ATOM     10  C   UNL     1      -4.850   1.117   0.031  0.00  0.00    +0.230 C 
BRANCH  10  11
ATOM     11  C   UNL     1      -5.275   0.853   1.453  0.00  0.00    +0.373 C 
ATOM     12  O   UNL     1      -4.596   1.250   2.370  0.00  0.00    -0.245 OA
ATOM     13  O   UNL     1      -6.408   0.176   1.700  0.00  0.00    -0.245 OA
ENDBRANCH  10  11
ENDBRANCH   1  10
BRANCH   1  14
ATOM     14  C   UNL     1      -3.611   3.332   0.037  0.00  0.00    +0.230 C 
BRANCH  14  15
ATOM     15  C   UNL     1      -3.625   3.842  -1.381  0.00  0.00    +0.373 C 
ATOM     16  O   UNL     1      -3.619   3.062  -2.303  0.00  0.00    -0.245 OA
ATOM     17  O   UNL     1      -3.644   5.163  -1.619  0.00  0.00    -0.245 OA
ENDBRANCH  14  15
ENDBRANCH   1  14
TORSDOF 7
