REMARK  Name = ZINC08924173
REMARK  11 active torsions:
REMARK  status: ('A' for Active; 'I' for Inactive)
REMARK    1  A    between atoms: C_1  and  C_2
REMARK    2  A    between atoms: C_2  and  C_3
REMARK    3  A    between atoms: C_3  and  C_5
REMARK    4  A    between atoms: C_3  and  N_69
REMARK    5  A    between atoms: C_8  and  S_17
REMARK    6  A    between atoms: N_9  and  C_10
REMARK    7  A    between atoms: C_10  and  C_11
REMARK    8  A    between atoms: S_17  and  C_18
REMARK    9  A    between atoms: C_18  and  C_19
REMARK   10  A    between atoms: C_34  and  N_69
REMARK   11  A    between atoms: C_35  and  N_69
REMARK                            x       y       z     vdW  Elec       q    Type
REMARK                         _______ _______ _______ _____ _____    ______ ____
ROOT
ATOM      1  C   UNL     1       5.938   3.368   3.494  0.00  0.00    +0.121 A 
ATOM      2  N   UNL     1       5.672   2.800   2.351  0.00  0.00    -0.135 NA
ATOM      3  N   UNL     1       4.403   2.639   2.224  0.00  0.00    -0.123 NA
ATOM      4  C   UNL     1       3.786   3.107   3.284  0.00  0.00    +0.192 A 
ATOM      5  N   UNL     1       4.747   3.584   4.128  0.00  0.00    -0.303 N 
ENDROOT
BRANCH   1   6
ATOM      6  C   UNL     1       7.306   3.721   4.018  0.00  0.00    +0.000 C 
BRANCH   6   9
ATOM      7  C   UNL     1       7.440   5.585   2.479  0.00  0.00    -0.096 C 
ATOM      8  C   UNL     1       9.465   4.625   3.396  0.00  0.00    -0.096 C 
ATOM      9  N   UNL     1       8.092   4.338   2.928  0.00  0.00    +0.383 N 
ATOM     10  H   UNL     1       8.139   3.683   2.139  0.00  0.00    -0.082 HD
ENDBRANCH   6   9
BRANCH   6  12
ATOM     11  C   UNL     1       8.204   1.503   3.298  0.00  0.00    +0.002 C 
ATOM     12  C   UNL     1       8.017   2.449   4.486  0.00  0.00    -0.011 C 
ENDBRANCH   6  12
ENDBRANCH   1   6
BRANCH   5  13
ATOM     13  C   UNL     1       4.543   4.199   5.442  0.00  0.00    +0.160 C 
BRANCH  13  14
ATOM     14  C   UNL     1       4.569   3.131   6.506  0.00  0.00    -0.028 A 
ATOM     15  C   UNL     1       3.397   2.502   6.882  0.00  0.00    +0.005 A 
ATOM     16  C   UNL     1       3.421   1.520   7.854  0.00  0.00    +0.000 A 
ATOM     17  C   UNL     1       4.616   1.174   8.458  0.00  0.00    +0.000 A 
ATOM     18  C   UNL     1       5.787   1.807   8.086  0.00  0.00    +0.000 A 
ATOM     19  C   UNL     1       5.763   2.786   7.110  0.00  0.00    +0.005 A 
ENDBRANCH  13  14
ENDBRANCH   5  13
BRANCH   4  20
ATOM     20  S   UNL     1       2.046   3.112   3.566  0.00  0.00    -0.077 S 
BRANCH  20  21
ATOM     21  C   UNL     1       1.477   2.335   2.033  0.00  0.00    +0.173 C 
BRANCH  21  22
ATOM     22  C   UNL     1      -0.026   2.232   2.051  0.00  0.00    +0.227 C 
ATOM     23  O   UNL     1      -0.651   2.642   3.006  0.00  0.00    -0.275 OA
ATOM     24  N   UNL     1      -0.676   1.682   1.006  0.00  0.00    -0.278 N 
ATOM     25  C   UNL     1      -0.148   1.785  -0.365  0.00  0.00    +0.204 C 
ATOM     26  C   UNL     1      -1.258   2.256  -1.269  0.00  0.00    +0.237 C 
ATOM     27  O   UNL     1      -0.981   2.828  -2.302  0.00  0.00    -0.274 OA
ATOM     28  N   UNL     1      -2.546   2.056  -0.955  0.00  0.00    -0.253 N 
ATOM     29  C   UNL     1      -2.942   1.475   0.187  0.00  0.00    +0.243 C 
ATOM     30  O   UNL     1      -4.127   1.365   0.418  0.00  0.00    -0.273 OA
ATOM     31  C   UNL     1      -1.943   0.956   1.187  0.00  0.00    +0.114 C 
ATOM     32  C   UNL     1      -1.709  -0.537   0.958  0.00  0.00    +0.035 C 
ATOM     33  C   UNL     1      -0.680  -1.053   1.967  0.00  0.00    +0.003 C 
ATOM     34  C   UNL     1      -1.203  -0.827   3.387  0.00  0.00    +0.000 C 
ATOM     35  C   UNL     1      -1.433   0.668   3.614  0.00  0.00    +0.003 C 
ATOM     36  C   UNL     1      -2.462   1.185   2.606  0.00  0.00    +0.035 C 
ATOM     37  H   UNL     1      -3.225   2.347  -1.584  0.00  0.00    +0.158 HD
ENDBRANCH  21  22
ENDBRANCH  20  21
ENDBRANCH   4  20
TORSDOF 8
