REMARK  Name = ZINC32809988
REMARK  6 active torsions:
REMARK  status: ('A' for Active; 'I' for Inactive)
REMARK    1  A    between atoms: C_4  and  C_7
REMARK    2  A    between atoms: C_8  and  C_9
REMARK    3  A    between atoms: N_22  and  C_23
REMARK    4  A    between atoms: C_23  and  C_24
REMARK    5  A    between atoms: C_24  and  N_25
REMARK    6  A    between atoms: N_25  and  C_26
REMARK                            x       y       z     vdW  Elec       q    Type
REMARK                         _______ _______ _______ _____ _____    ______ ____
ROOT
ATOM      1  C   UNL     1       2.253   1.501  -0.231  0.00  0.00    +0.156 A 
ATOM      2  N   UNL     1       2.343   0.171  -0.231  0.00  0.00    -0.213 NA
ATOM      3  C   UNL     1       1.295  -0.602  -0.013  0.00  0.00    +0.131 A 
ATOM      4  C   UNL     1       0.025  -0.003   0.230  0.00  0.00    +0.051 A 
ATOM      5  C   UNL     1      -1.257  -0.656   0.492  0.00  0.00    -0.025 A 
ATOM      6  C   UNL     1      -2.323   0.146   0.692  0.00  0.00    -0.004 A 
ATOM      7  S   UNL     1      -1.696   1.797   0.541  0.00  0.00    -0.073 S 
ATOM      8  C   UNL     1       0.004   1.407   0.216  0.00  0.00    +0.114 A 
ATOM      9  N   UNL     1       1.093   2.112  -0.009  0.00  0.00    -0.221 NA
ATOM     10  C   UNL     1      -3.734  -0.274   0.975  0.00  0.00    +0.043 C 
ATOM     11  C   UNL     1      -3.873  -1.765   0.637  0.00  0.00    +0.005 C 
ATOM     12  C   UNL     1      -2.702  -2.522   1.270  0.00  0.00    +0.005 C 
ATOM     13  C   UNL     1      -1.404  -2.175   0.541  0.00  0.00    +0.037 C 
ATOM     14  N   UNL     1       1.429  -1.979  -0.021  0.00  0.00    -0.330 N 
ATOM     15  H   UNL     1       0.538  -2.619   0.066  0.00  0.00    +0.147 HD
ENDROOT
BRANCH   1  17
ATOM     16  C   UNL     1       3.382   3.649  -0.482  0.00  0.00    +0.011 C 
ATOM     17  C   UNL     1       3.459   2.307  -0.480  0.00  0.00    +0.049 C 
BRANCH  16  21
ATOM     18  C   UNL     1       6.858   5.973  -1.201  0.00  0.00    +0.000 A 
ATOM     19  C   UNL     1       5.647   6.600  -0.970  0.00  0.00    +0.001 A 
ATOM     20  C   UNL     1       4.512   5.851  -0.735  0.00  0.00    +0.008 A 
ATOM     21  C   UNL     1       4.589   4.456  -0.732  0.00  0.00    -0.025 A 
ATOM     22  C   UNL     1       5.817   3.829  -0.961  0.00  0.00    +0.008 A 
ATOM     23  C   UNL     1       6.942   4.591  -1.200  0.00  0.00    +0.001 A 
ENDBRANCH  16  21
ENDBRANCH   1  17
BRANCH  14  24
ATOM     24  C   UNL     1       2.756  -2.585  -0.147  0.00  0.00    +0.084 C 
BRANCH  24  25
ATOM     25  C   UNL     1       2.625  -4.109  -0.130  0.00  0.00    -0.063 C 
BRANCH  25  26
ATOM     26  N   UNL     1       3.956  -4.718  -0.256  0.00  0.00    +0.383 N 
ATOM     27  H   UNL     1       4.416  -4.400  -1.204  0.00  0.00    -0.085 HD
ATOM     28  H   UNL     1       4.588  -4.394   0.584  0.00  0.00    -0.085 HD
BRANCH  26  29
ATOM     29  C   UNL     1       3.869  -6.184  -0.243  0.00  0.00    -0.049 C 
ATOM     30  C   UNL     1       3.883  -6.692   1.208  0.00  0.00    +0.008 C 
ATOM     31  C   UNL     1       4.114  -8.222   1.229  0.00  0.00    +0.164 C 
ATOM     32  S   UNL     1       5.079  -8.506  -0.311  0.00  0.00    -0.033 S 
ATOM     33  O   UNL     1       4.323  -9.335  -1.183  0.00  0.00    -0.174 OA
ATOM     34  O   UNL     1       6.405  -8.881   0.036  0.00  0.00    -0.174 OA
ATOM     35  C   UNL     1       5.096  -6.790  -0.981  0.00  0.00    +0.150 C 
ENDBRANCH  26  29
ENDBRANCH  25  26
ENDBRANCH  24  25
ENDBRANCH  14  24
TORSDOF 6
