REMARK  Name = ZINC10188469
REMARK  9 active torsions:
REMARK  status: ('A' for Active; 'I' for Inactive)
REMARK    1  A    between atoms: C_1  and  N_2
REMARK    2  A    between atoms: N_2  and  C_3
REMARK    3  A    between atoms: N_2  and  C_4
REMARK    4  A    between atoms: C_7  and  C_10
REMARK    5  A    between atoms: C_10  and  C_12
REMARK    6  A    between atoms: C_10  and  N_63
REMARK    7  A    between atoms: C_12  and  N_13
REMARK    8  A    between atoms: C_14  and  C_16
REMARK    9  A    between atoms: N_18  and  C_19
REMARK                            x       y       z     vdW  Elec       q    Type
REMARK                         _______ _______ _______ _____ _____    ______ ____
ROOT
ATOM      1  C   UNL     1       2.404  -0.149   0.962  0.00  0.00    -0.020 C 
ENDROOT
BRANCH   1  11
ATOM      2  C   UNL     1       1.628  -0.749   3.178  0.00  0.00    -0.073 C 
ATOM      3  C   UNL     1       1.023  -1.918   3.955  0.00  0.00    +0.017 C 
ATOM      4  C   UNL     1       1.996  -3.068   3.995  0.00  0.00    -0.048 A 
ATOM      5  C   UNL     1       1.797  -4.071   4.931  0.00  0.00    +0.004 A 
ATOM      6  C   UNL     1       2.662  -5.144   4.999  0.00  0.00    +0.000 A 
ATOM      7  C   UNL     1       3.733  -5.219   4.128  0.00  0.00    +0.000 A 
ATOM      8  C   UNL     1       3.933  -4.221   3.196  0.00  0.00    +0.002 A 
ATOM      9  C   UNL     1       3.065  -3.141   3.128  0.00  0.00    -0.061 A 
ATOM     10  C   UNL     1       3.330  -2.072   2.100  0.00  0.00    -0.042 C 
ATOM     11  N   UNL     1       2.114  -1.270   1.885  0.00  0.00    +0.388 N 
ATOM     12  H   UNL     1       1.388  -1.865   1.469  0.00  0.00    -0.080 HD
ENDBRANCH   1  11
BRANCH   1  16
ATOM     13  C   UNL     1       6.295   1.439   1.740  0.00  0.00    +0.029 A 
ATOM     14  C   UNL     1       6.003   0.890   0.498  0.00  0.00    +0.023 A 
ATOM     15  C   UNL     1       4.745   0.378   0.250  0.00  0.00    +0.004 A 
ATOM     16  C   UNL     1       3.776   0.411   1.236  0.00  0.00    -0.059 A 
ATOM     17  C   UNL     1       4.062   0.961   2.472  0.00  0.00    +0.004 A 
ATOM     18  C   UNL     1       5.320   1.470   2.729  0.00  0.00    +0.023 A 
BRANCH  13  20
ATOM     19  C   UNL     1       8.594   1.925   0.951  0.00  0.00    +0.129 C 
ATOM     20  N   UNL     1       7.566   1.958   1.995  0.00  0.00    -0.336 N 
ATOM     21  C   UNL     1       7.873   2.537   3.305  0.00  0.00    +0.129 C 
ENDBRANCH  13  20
ENDBRANCH   1  16
BRANCH   1  22
ATOM     22  C   UNL     1       1.357   0.950   1.154  0.00  0.00    +0.094 C 
BRANCH  22  23
ATOM     23  N   UNL     1       0.045   0.453   0.734  0.00  0.00    -0.309 N 
ATOM     24  C   UNL     1      -1.051   1.219   0.900  0.00  0.00    +0.299 C 
ATOM     25  O   UNL     1      -0.952   2.319   1.403  0.00  0.00    -0.265 OA
ATOM     26  H   UNL     1      -0.035  -0.427   0.331  0.00  0.00    +0.149 HD
BRANCH  24  27
ATOM     27  C   UNL     1      -2.388   0.715   0.466  0.00  0.00    +0.303 C 
ATOM     28  O   UNL     1      -2.488  -0.385  -0.038  0.00  0.00    -0.265 OA
ATOM     29  N   UNL     1      -3.484   1.481   0.632  0.00  0.00    -0.275 N 
ATOM     30  H   UNL     1      -3.395   2.392   0.954  0.00  0.00    +0.155 HD
BRANCH  29  31
ATOM     31  C   UNL     1      -4.750   0.963   0.342  0.00  0.00    +0.069 A 
ATOM     32  C   UNL     1      -4.940  -0.410   0.264  0.00  0.00    +0.026 A 
ATOM     33  C   UNL     1      -6.192  -0.919  -0.018  0.00  0.00    +0.002 A 
ATOM     34  C   UNL     1      -7.257  -0.062  -0.234  0.00  0.00    +0.003 A 
ATOM     35  C   UNL     1      -7.072   1.306  -0.163  0.00  0.00    +0.040 A 
ATOM     36  C   UNL     1      -5.822   1.823   0.124  0.00  0.00    +0.144 A 
ATOM     37  F   UNL     1      -5.642   3.160   0.193  0.00  0.00    -0.204 F 
ENDBRANCH  29  31
ENDBRANCH  24  27
ENDBRANCH  22  23
ENDBRANCH   1  22
TORSDOF 7
