REMARK  Name = ZINC04595253
REMARK  9 active torsions:
REMARK  status: ('A' for Active; 'I' for Inactive)
REMARK    1  A    between atoms: C_1  and  C_2
REMARK    2  A    between atoms: C_6  and  O_12
REMARK    3  A    between atoms: C_9  and  C_11
REMARK    4  A    between atoms: O_12  and  C_13
REMARK    5  A    between atoms: C_13  and  C_15
REMARK    6  A    between atoms: C_16  and  C_31
REMARK    7  A    between atoms: C_21  and  C_23
REMARK    8  A    between atoms: C_28  and  O_29
REMARK    9  A    between atoms: O_29  and  C_30
REMARK                            x       y       z     vdW  Elec       q    Type
REMARK                         _______ _______ _______ _____ _____    ______ ____
ROOT
ATOM      1  C   UNL     1      -2.122  -2.375   4.833  0.00  0.00    +0.078 C 
ATOM      2  C   UNL     1      -2.173  -2.874   6.087  0.00  0.00    +0.019 C 
ATOM      3  N   UNL     1      -2.712  -2.151   7.111  0.00  0.00    -0.300 N 
ATOM      4  C   UNL     1      -3.223  -0.922   6.964  0.00  0.00    +0.135 C 
ATOM      5  S   UNL     1      -3.870  -0.125   8.334  0.00  0.00    -0.019 S 
ATOM      6  N   UNL     1      -3.243  -0.291   5.773  0.00  0.00    -0.315 N 
ATOM      7  C   UNL     1      -2.678  -0.985   4.604  0.00  0.00    +0.145 C 
ATOM      8  C   UNL     1      -1.626  -4.251   6.360  0.00  0.00    +0.061 C 
ATOM      9  H   UNL     1      -2.727  -2.550   7.995  0.00  0.00    +0.154 HD
ATOM     10  H   UNL     1      -3.618   0.599   5.689  0.00  0.00    +0.149 HD
ENDROOT
BRANCH   7  11
ATOM     11  C   UNL     1      -3.761  -1.083   3.560  0.00  0.00    +0.019 A 
ATOM     12  C   UNL     1      -5.079  -1.240   3.944  0.00  0.00    +0.009 A 
ATOM     13  C   UNL     1      -6.073  -1.325   2.988  0.00  0.00    +0.001 A 
ATOM     14  C   UNL     1      -5.750  -1.265   1.644  0.00  0.00    +0.004 A 
ATOM     15  C   UNL     1      -4.434  -1.114   1.255  0.00  0.00    +0.046 A 
ATOM     16  C   UNL     1      -3.434  -1.022   2.213  0.00  0.00    +0.125 A 
BRANCH  16  17
ATOM     17  O   UNL     1      -2.138  -0.873   1.833  0.00  0.00    -0.495 OA
ATOM     18  C   UNL     1      -1.887  -0.705   0.436  0.00  0.00    +0.277 C 
ENDBRANCH  16  17
ENDBRANCH   7  11
BRANCH   1  19
ATOM     19  C   UNL     1      -1.563  -3.123   3.771  0.00  0.00    +0.339 C 
ATOM     20  O   UNL     1      -2.290  -3.710   2.991  0.00  0.00    -0.245 OA
BRANCH  19  21
ATOM     21  O   UNL     1      -0.223  -3.187   3.622  0.00  0.00    -0.458 OA
BRANCH  21  26
ATOM     22  C   UNL     1       3.902  -4.872   4.578  0.00  0.00    +0.008 C 
ATOM     23  C   UNL     1       2.867  -4.771   3.456  0.00  0.00    -0.011 C 
ATOM     24  C   UNL     1       1.560  -5.428   3.906  0.00  0.00    +0.007 C 
ATOM     25  C   UNL     1       0.525  -5.327   2.784  0.00  0.00    +0.045 C 
ATOM     26  C   UNL     1       0.269  -3.854   2.458  0.00  0.00    +0.177 C 
ATOM     27  C   UNL     1       1.576  -3.196   2.008  0.00  0.00    +0.048 C 
ATOM     28  C   UNL     1       2.611  -3.298   3.130  0.00  0.00    -0.008 C 
ATOM     29  C   UNL     1       3.917  -2.641   2.680  0.00  0.00    +0.008 C 
ENDBRANCH  21  26
ENDBRANCH  19  21
ENDBRANCH   1  19
TORSDOF 5
