REMARK  Name = ZINC12010138
REMARK  7 active torsions:
REMARK  status: ('A' for Active; 'I' for Inactive)
REMARK    1  A    between atoms: C_1  and  C_2
REMARK    2  A    between atoms: C_2  and  C_3
REMARK    3  A    between atoms: C_2  and  C_4
REMARK    4  A    between atoms: C_2  and  C_5
REMARK    5  A    between atoms: C_5  and  C_6
REMARK    6  A    between atoms: N_8  and  C_9
REMARK    7  A    between atoms: C_11  and  C_26
REMARK                            x       y       z     vdW  Elec       q    Type
REMARK                         _______ _______ _______ _____ _____    ______ ____
ROOT
ATOM      1  C   UNL     1      -1.328  -2.059  -0.001  0.00  0.00    +0.132 A 
ATOM      2  C   UNL     1      -2.656  -2.340   0.005  0.00  0.00    +0.077 A 
ATOM      3  C   UNL     1      -3.356  -1.115   0.015  0.00  0.00    +0.130 A 
ATOM      4  N   UNL     1      -2.473  -0.136   0.022  0.00  0.00    -0.159 NA
ATOM      5  N   UNL     1      -1.191  -0.700   0.005  0.00  0.00    -0.184 N 
ATOM      6  C   UNL     1       0.002  -0.004   0.002  0.00  0.00    +0.234 A 
ATOM      7  N   UNL     1      -0.016   1.355   0.009  0.00  0.00    -0.291 N 
ATOM      8  H   UNL     1      -0.861   1.833   0.016  0.00  0.00    +0.172 HD
ATOM      9  C   UNL     1       1.148   2.035   0.002  0.00  0.00    +0.256 A 
ATOM     10  O   UNL     1       1.152   3.255   0.009  0.00  0.00    -0.267 OA
ATOM     11  C   UNL     1       2.363   1.315  -0.015  0.00  0.00    +0.038 A 
ATOM     12  C   UNL     1       2.321  -0.041  -0.014  0.00  0.00    +0.053 A 
ATOM     13  N   UNL     1       1.135  -0.666  -0.009  0.00  0.00    -0.217 NA
ATOM     14  C   UNL     1       3.563  -0.893  -0.009  0.00  0.00    +0.056 C 
ATOM     15  C   UNL     1       4.776  -0.077  -0.449  0.00  0.00    +0.006 C 
ATOM     16  C   UNL     1       4.821   1.210   0.385  0.00  0.00    +0.005 C 
ATOM     17  C   UNL     1       3.649   2.095  -0.035  0.00  0.00    +0.042 C 
ENDROOT
BRANCH   3  18
ATOM     18  C   UNL     1      -4.825  -0.956   0.024  0.00  0.00    +0.155 A 
ATOM     19  C   UNL     1      -5.500   0.224   0.040  0.00  0.00    +0.051 A 
ATOM     20  C   UNL     1      -6.873  -0.094   0.040  0.00  0.00    +0.042 A 
ATOM     21  C   UNL     1      -6.967  -1.438   0.034  0.00  0.00    +0.196 A 
ATOM     22  O   UNL     1      -5.728  -1.956   0.024  0.00  0.00    -0.461 OA
ENDBRANCH   3  18
BRANCH   1  25
ATOM     23  C   UNL     1      -0.570  -4.309  -0.019  0.00  0.00    +0.219 C 
ATOM     24  O   UNL     1      -1.722  -4.685  -0.013  0.00  0.00    -0.275 OA
ATOM     25  N   UNL     1      -0.291  -2.990  -0.013  0.00  0.00    -0.270 N 
ATOM     26  H   UNL     1       0.631  -2.689  -0.017  0.00  0.00    +0.156 HD
BRANCH  23  27
ATOM     27  C   UNL     1       0.552  -5.315  -0.031  0.00  0.00    +0.102 C 
BRANCH  27  29
ATOM     28  C   UNL     1      -0.901  -6.919  -1.280  0.00  0.00    +0.011 C 
ATOM     29  C   UNL     1      -0.032  -6.729  -0.035  0.00  0.00    -0.029 C 
ATOM     30  C   UNL     1       1.106  -7.751  -0.048  0.00  0.00    +0.011 C 
ATOM     31  C   UNL     1      -0.885  -6.932   1.218  0.00  0.00    +0.011 C 
ENDBRANCH  27  29
ENDBRANCH  23  27
ENDBRANCH   1  25
TORSDOF 4
