REMARK  Name = ZINC09041377
REMARK  9 active torsions:
REMARK  status: ('A' for Active; 'I' for Inactive)
REMARK    1  A    between atoms: C_1  and  C_2
REMARK    2  A    between atoms: C_9  and  O_20
REMARK    3  A    between atoms: C_12  and  C_14
REMARK    4  A    between atoms: C_23  and  O_41
REMARK    5  A    between atoms: C_24  and  C_31
REMARK    6  A    between atoms: C_27  and  O_30
REMARK    7  A    between atoms: C_32  and  C_33
REMARK    8  A    between atoms: C_32  and  N_78
REMARK    9  A    between atoms: C_33  and  C_34
REMARK                            x       y       z     vdW  Elec       q    Type
REMARK                         _______ _______ _______ _____ _____    ______ ____
ROOT
ATOM      1  C   UNL     1       1.196   0.378  -3.164  0.00  0.00    +0.014 C 
ATOM      2  C   UNL     1       0.341  -0.645  -2.414  0.00  0.00    +0.004 C 
ATOM      3  C   UNL     1      -1.047  -0.681  -3.052  0.00  0.00    +0.010 C 
ATOM      4  C   UNL     1      -1.908  -1.794  -2.456  0.00  0.00    +0.005 C 
ATOM      5  C   UNL     1      -1.203  -3.134  -2.697  0.00  0.00    +0.009 C 
ATOM      6  C   UNL     1       0.127  -3.129  -1.947  0.00  0.00    +0.025 C 
ATOM      7  C   UNL     1       1.040  -2.015  -2.468  0.00  0.00    +0.075 C 
ATOM      8  C   UNL     1       2.168  -1.835  -1.410  0.00  0.00    +0.036 C 
ATOM      9  C   UNL     1       1.489  -1.032  -0.278  0.00  0.00    +0.011 C 
ATOM     10  C   UNL     1       0.312  -0.274  -0.925  0.00  0.00    +0.027 C 
ATOM     11  C   UNL     1       0.823  -4.478  -2.147  0.00  0.00    +0.009 C 
ATOM     12  C   UNL     1      -0.061  -5.599  -1.597  0.00  0.00    +0.036 C 
ATOM     13  C   UNL     1      -1.384  -5.606  -2.366  0.00  0.00    +0.079 C 
ATOM     14  C   UNL     1      -2.091  -4.264  -2.169  0.00  0.00    +0.036 C 
ATOM     15  C   UNL     1      -3.416  -4.269  -2.934  0.00  0.00    +0.018 C 
ATOM     16  C   UNL     1      -4.305  -5.397  -2.407  0.00  0.00    +0.032 C 
ATOM     17  C   UNL     1      -3.598  -6.739  -2.604  0.00  0.00    +0.117 C 
ATOM     18  C   UNL     1      -2.273  -6.734  -1.838  0.00  0.00    +0.067 C 
ENDROOT
BRANCH  10  19
ATOM     19  C   UNL     1       0.496   1.212  -0.757  0.00  0.00    -0.022 C 
ATOM     20  C   UNL     1       1.623   1.839  -0.427  0.00  0.00    +0.094 C 
ATOM     21  C   UNL     1       1.381   3.283  -0.370  0.00  0.00    +0.332 C 
ATOM     22  O   UNL     1       2.219   4.120  -0.098  0.00  0.00    -0.246 OA
ATOM     23  O   UNL     1       0.093   3.545  -0.660  0.00  0.00    -0.457 OA
ATOM     24  C   UNL     1      -0.565   2.275  -0.925  0.00  0.00    +0.264 C 
ENDBRANCH  10  19
BRANCH  14  25
ATOM     25  C   UNL     1      -2.359  -4.048  -0.702  0.00  0.00    +0.060 C 
ATOM     26  N   UNL     1      -3.612  -3.909  -0.333  0.00  0.00    -0.393 N 
ATOM     27  H   UNL     1      -4.362  -3.949  -1.033  0.00  0.00    +0.159 HD
BRANCH  26  28
ATOM     28  C   UNL     1      -3.949  -3.690   1.116  0.00  0.00    +0.116 C 
BRANCH  28  29
ATOM     29  C   UNL     1      -4.577  -2.303   1.265  0.00  0.00    +0.056 C 
BRANCH  29  30
ATOM     30  C   UNL     1      -4.972  -2.082   2.702  0.00  0.00    -0.046 A 
ATOM     31  C   UNL     1      -6.236  -2.440   3.134  0.00  0.00    +0.006 A 
ATOM     32  C   UNL     1      -6.598  -2.242   4.453  0.00  0.00    +0.038 A 
ATOM     33  C   UNL     1      -5.698  -1.676   5.340  0.00  0.00    +0.123 A 
ATOM     34  C   UNL     1      -4.435  -1.313   4.905  0.00  0.00    +0.038 A 
ATOM     35  C   UNL     1      -4.073  -1.516   3.587  0.00  0.00    +0.006 A 
ATOM     36  F   UNL     1      -6.053  -1.478   6.628  0.00  0.00    -0.205 F 
ENDBRANCH  29  30
ENDBRANCH  28  29
ENDBRANCH  26  28
ENDBRANCH  14  25
BRANCH   7  37
ATOM     37  O   UNL     1       1.555  -2.308  -3.768  0.00  0.00    -0.388 OA
ATOM     38  H   UNL     1       2.063  -3.130  -3.815  0.00  0.00    +0.210 HD
ENDBRANCH   7  37
BRANCH  17  39
ATOM     39  O   UNL     1      -4.429  -7.792  -2.112  0.00  0.00    -0.392 OA
ATOM     40  H   UNL     1      -5.287  -7.855  -2.553  0.00  0.00    +0.210 HD
ENDBRANCH  17  39
BRANCH  13  41
ATOM     41  O   UNL     1      -1.128  -5.811  -3.757  0.00  0.00    -0.388 OA
ATOM     42  H   UNL     1      -0.681  -6.645  -3.956  0.00  0.00    +0.210 HD
ENDBRANCH  13  41
TORSDOF 8
