REMARK  Name = ZINC63838920
REMARK  7 active torsions:
REMARK  status: ('A' for Active; 'I' for Inactive)
REMARK    1  A    between atoms: C_1  and  O_2
REMARK    2  A    between atoms: O_2  and  C_3
REMARK    3  A    between atoms: C_7  and  C_9
REMARK    4  A    between atoms: C_13  and  S_22
REMARK    5  A    between atoms: N_14  and  C_15
REMARK    6  A    between atoms: S_22  and  C_23
REMARK    7  A    between atoms: C_23  and  C_24
REMARK                            x       y       z     vdW  Elec       q    Type
REMARK                         _______ _______ _______ _____ _____    ______ ____
ROOT
ATOM      1  C   UNL     1       1.334  -4.118  -2.286  0.00  0.00    +0.213 C 
ATOM      2  N   UNL     1       0.180  -4.710  -1.586  0.00  0.00    -0.242 N 
ATOM      3  N   UNL     1      -0.547  -5.410  -2.556  0.00  0.00    -0.162 NA
ATOM      4  C   UNL     1       0.005  -5.318  -3.719  0.00  0.00    +0.180 C 
ATOM      5  N   UNL     1       1.166  -4.553  -3.683  0.00  0.00    -0.254 N 
ATOM      6  H   UNL     1      -0.032  -4.631  -0.643  0.00  0.00    +0.170 HD
ENDROOT
BRANCH   5   7
ATOM      7  C   UNL     1       2.007  -4.255  -4.758  0.00  0.00    +0.038 A 
ATOM      8  C   UNL     1       3.314  -4.725  -4.770  0.00  0.00    +0.025 A 
ATOM      9  C   UNL     1       4.144  -4.428  -5.834  0.00  0.00    +0.022 A 
ATOM     10  C   UNL     1       3.674  -3.663  -6.887  0.00  0.00    +0.041 A 
ATOM     11  C   UNL     1       2.372  -3.192  -6.877  0.00  0.00    +0.022 A 
ATOM     12  C   UNL     1       1.536  -3.491  -5.819  0.00  0.00    +0.025 A 
ATOM     13 CL   UNL     1       4.719  -3.291  -8.223  0.00  0.00    -0.084 Cl
ENDBRANCH   5   7
BRANCH   1  18
ATOM     14  C   UNL     1       0.629  -0.622  -1.037  0.00  0.00    +0.120 A 
ATOM     15  C   UNL     1       1.225   0.148  -2.026  0.00  0.00    +0.045 A 
ATOM     16  C   UNL     1       1.853  -0.466  -3.092  0.00  0.00    +0.004 A 
ATOM     17  C   UNL     1       1.888  -1.845  -3.175  0.00  0.00    +0.007 A 
ATOM     18  C   UNL     1       1.294  -2.615  -2.192  0.00  0.00    -0.004 A 
ATOM     19  C   UNL     1       0.670  -2.006  -1.120  0.00  0.00    +0.052 A 
BRANCH  14  21
ATOM     20  C   UNL     1       0.007   1.408   0.033  0.00  0.00    +0.277 C 
ATOM     21  O   UNL     1       0.010  -0.021   0.013  0.00  0.00    -0.495 OA
ENDBRANCH  14  21
ENDBRANCH   1  18
BRANCH   4  22
ATOM     22  S   UNL     1      -0.633  -6.073  -5.177  0.00  0.00    -0.085 S 
BRANCH  22  23
ATOM     23  C   UNL     1      -2.134  -6.922  -4.611  0.00  0.00    +0.124 C 
BRANCH  23  24
ATOM     24  C   UNL     1      -2.796  -7.630  -5.795  0.00  0.00    +0.184 C 
ATOM     25  N   UNL     1      -1.850  -8.562  -6.419  0.00  0.00    -0.363 N 
ATOM     26  C   UNL     1      -1.681  -8.180  -7.652  0.00  0.00    +0.060 A 
ATOM     27  C   UNL     1      -0.867  -8.704  -8.757  0.00  0.00    +0.027 A 
ATOM     28  C   UNL     1      -0.892  -8.084  -9.954  0.00  0.00    +0.002 A 
ATOM     29  C   UNL     1      -1.674  -6.941 -10.199  0.00  0.00    +0.002 A 
ATOM     30  C   UNL     1      -2.456  -6.379  -9.255  0.00  0.00    +0.027 A 
ATOM     31  C   UNL     1      -2.508  -6.970  -7.911  0.00  0.00    +0.060 A 
ATOM     32  N   UNL     1      -3.157  -6.652  -6.829  0.00  0.00    -0.363 N 
ATOM     33  H   UNL     1      -1.428  -9.324  -5.991  0.00  0.00    +0.162 HD
ATOM     34  H   UNL     1      -3.767  -5.905  -6.724  0.00  0.00    +0.162 HD
ENDBRANCH  23  24
ENDBRANCH  22  23
ENDBRANCH   4  22
TORSDOF 6
