REMARK  Name = ZINC39369809
REMARK  10 active torsions:
REMARK  status: ('A' for Active; 'I' for Inactive)
REMARK    1  A    between atoms: C_1  and  O_2
REMARK    2  A    between atoms: O_2  and  C_3
REMARK    3  A    between atoms: C_8  and  C_13
REMARK    4  A    between atoms: C_13  and  C_28
REMARK    5  A    between atoms: C_14  and  C_15
REMARK    6  A    between atoms: C_20  and  O_21
REMARK    7  A    between atoms: O_21  and  C_22
REMARK    8  A    between atoms: C_22  and  C_23
REMARK    9  A    between atoms: C_23  and  O_25
REMARK   10  A    between atoms: O_25  and  C_26
REMARK                            x       y       z     vdW  Elec       q    Type
REMARK                         _______ _______ _______ _____ _____    ______ ____
ROOT
ATOM      1  C   UNL     1       1.595  -4.590   5.041  0.00  0.00    +0.072 C 
ATOM      2  C   UNL     1       1.928  -5.878   5.270  0.00  0.00    +0.030 C 
ENDROOT
BRANCH   1   8
ATOM      3  C   UNL     1       1.706   0.456   2.616  0.00  0.00    +0.122 A 
ATOM      4  C   UNL     1       1.926   0.898   3.987  0.00  0.00    +0.048 A 
ATOM      5  C   UNL     1       2.239   0.035   4.971  0.00  0.00    +0.031 A 
ATOM      6  C   UNL     1       2.368  -1.399   4.671  0.00  0.00    +0.061 A 
ATOM      7  N   UNL     1       2.655  -2.427   5.417  0.00  0.00    -0.359 N 
ATOM      8  C   UNL     1       2.638  -3.616   4.556  0.00  0.00    +0.216 C 
ATOM      9  N   UNL     1       2.301  -3.147   3.207  0.00  0.00    -0.359 N 
ATOM     10  C   UNL     1       2.143  -1.852   3.272  0.00  0.00    +0.064 A 
ATOM     11  C   UNL     1       1.801  -0.849   2.262  0.00  0.00    +0.073 A 
ATOM     12  H   UNL     1       2.846  -2.410   6.367  0.00  0.00    +0.162 HD
ATOM     13  H   UNL     1       2.213  -3.696   2.413  0.00  0.00    +0.162 HD
BRANCH   3  15
ATOM     14  C   UNL     1       1.306   2.737   2.091  0.00  0.00    +0.277 C 
ATOM     15  O   UNL     1       1.394   1.375   1.669  0.00  0.00    -0.495 OA
ENDBRANCH   3  15
ENDBRANCH   1   8
BRANCH   2  16
ATOM     16  C   UNL     1       3.261  -6.370   4.894  0.00  0.00    +0.019 A 
ATOM     17  C   UNL     1       3.840  -5.979   3.682  0.00  0.00    +0.026 A 
ATOM     18  C   UNL     1       5.091  -6.444   3.336  0.00  0.00    +0.019 A 
ATOM     19  C   UNL     1       5.778  -7.298   4.185  0.00  0.00    +0.019 A 
ATOM     20  C   UNL     1       5.218  -7.692   5.385  0.00  0.00    +0.047 A 
ATOM     21  C   UNL     1       3.965  -7.230   5.752  0.00  0.00    +0.128 A 
ATOM     22 BR   UNL     1       5.872  -5.915   1.697  0.00  0.00    -0.050 Br
BRANCH  21  23
ATOM     23  O   UNL     1       3.416  -7.612   6.933  0.00  0.00    -0.480 OA
BRANCH  23  24
ATOM     24  C   UNL     1       4.191  -8.488   7.754  0.00  0.00    +0.349 C 
BRANCH  24  25
ATOM     25  C   UNL     1       3.426  -8.801   9.015  0.00  0.00    +0.345 C 
ATOM     26  O   UNL     1       2.331  -8.323   9.192  0.00  0.00    -0.247 OA
BRANCH  25  27
ATOM     27  O   UNL     1       3.963  -9.612   9.941  0.00  0.00    -0.466 OA
ATOM     28  C   UNL     1       3.183  -9.865  11.111  0.00  0.00    +0.280 C 
ENDBRANCH  25  27
ENDBRANCH  24  25
ENDBRANCH  23  24
ENDBRANCH  21  23
ENDBRANCH   2  16
BRANCH   1  29
ATOM     29  C   UNL     1       0.250  -4.149   5.258  0.00  0.00    +0.099 C 
ATOM     30  N   UNL     1      -0.818  -3.800   5.431  0.00  0.00    -0.191 NA
ENDBRANCH   1  29
TORSDOF 8
