REMARK  Name = ZINC09827803
REMARK  3 active torsions:
REMARK  status: ('A' for Active; 'I' for Inactive)
REMARK    1  A    between atoms: C_1  and  N_2
REMARK    2  A    between atoms: C_13  and  N_18
REMARK    3  A    between atoms: C_19  and  C_21
REMARK                            x       y       z     vdW  Elec       q    Type
REMARK                         _______ _______ _______ _____ _____    ______ ____
ROOT
ATOM      1  C   UNL     1       0.552   7.578   0.307  0.00  0.00    +0.139 C 
ATOM      2  N   UNL     1       0.712   6.179  -0.096  0.00  0.00    -0.267 N 
ATOM      3  C   UNL     1       1.677   5.909  -1.066  0.00  0.00    +0.079 A 
ATOM      4  C   UNL     1       1.849   6.811  -2.112  0.00  0.00    +0.027 A 
ATOM      5  C   UNL     1       2.843   6.609  -3.049  0.00  0.00    +0.002 A 
ATOM      6  C   UNL     1       3.671   5.506  -2.954  0.00  0.00    +0.004 A 
ATOM      7  C   UNL     1       3.497   4.597  -1.928  0.00  0.00    +0.048 A 
ATOM      8  C   UNL     1       2.493   4.787  -0.989  0.00  0.00    +0.150 A 
ATOM      9  O   UNL     1       2.325   3.863  -0.011  0.00  0.00    -0.453 OA
ATOM     10  C   UNL     1       1.160   3.176   0.031  0.00  0.00    +0.141 A 
ATOM     11  C   UNL     1       1.166   1.802  -0.165  0.00  0.00    +0.049 A 
ATOM     12  C   UNL     1      -0.019   1.094  -0.162  0.00  0.00    +0.027 A 
ATOM     13  C   UNL     1      -1.229   1.754   0.023  0.00  0.00    +0.035 A 
ATOM     14  C   UNL     1      -1.249   3.123   0.227  0.00  0.00    +0.040 A 
ATOM     15  C   UNL     1      -0.051   3.844   0.241  0.00  0.00    +0.081 A 
ATOM     16  C   UNL     1      -0.074   5.291   0.496  0.00  0.00    +0.254 C 
ATOM     17  O   UNL     1      -0.874   5.705   1.312  0.00  0.00    -0.270 OA
ENDROOT
BRANCH  13  18
ATOM     18  N   UNL     1      -2.429   1.032   0.008  0.00  0.00    -0.281 N 
ATOM     19  C   UNL     1      -3.551   1.599  -0.478  0.00  0.00    +0.255 C 
ATOM     20  O   UNL     1      -3.503   2.701  -0.990  0.00  0.00    -0.270 OA
ATOM     21  H   UNL     1      -2.452   0.123   0.347  0.00  0.00    +0.155 HD
BRANCH  19  22
ATOM     22  C   UNL     1      -4.835   0.885  -0.387  0.00  0.00    +0.122 A 
ATOM     23  C   UNL     1      -4.905  -0.370   0.193  0.00  0.00    +0.031 A 
ATOM     24  C   UNL     1      -6.162  -1.021   0.260  0.00  0.00    +0.018 A 
ATOM     25  C   UNL     1      -6.268  -2.293   0.841  0.00  0.00    +0.011 A 
ATOM     26  C   UNL     1      -7.482  -2.915   0.901  0.00  0.00    +0.001 A 
ATOM     27  C   UNL     1      -8.615  -2.297   0.390  0.00  0.00    +0.004 A 
ATOM     28  C   UNL     1      -8.534  -1.047  -0.186  0.00  0.00    +0.047 A 
ATOM     29  C   UNL     1      -7.309  -0.393  -0.259  0.00  0.00    +0.139 A 
ATOM     30  O   UNL     1      -7.232   0.831  -0.824  0.00  0.00    -0.422 OA
ATOM     31  C   UNL     1      -6.066   1.493  -0.906  0.00  0.00    +0.350 A 
ATOM     32  O   UNL     1      -6.029   2.597  -1.416  0.00  0.00    -0.244 OA
ENDBRANCH  19  22
ENDBRANCH  13  18
TORSDOF 2
