REMARK  Name = ZINC13501067
REMARK  10 active torsions:
REMARK  status: ('A' for Active; 'I' for Inactive)
REMARK    1  A    between atoms: C_1  and  C_2
REMARK    2  A    between atoms: C_2  and  C_3
REMARK    3  A    between atoms: C_3  and  C_5
REMARK    4  A    between atoms: C_3  and  N_69
REMARK    5  A    between atoms: N_9  and  C_10
REMARK    6  A    between atoms: C_15  and  C_16
REMARK    7  A    between atoms: C_15  and  N_69
REMARK    8  A    between atoms: C_20  and  C_29
REMARK    9  A    between atoms: C_22  and  C_28
REMARK   10  A    between atoms: C_30  and  N_69
REMARK                            x       y       z     vdW  Elec       q    Type
REMARK                         _______ _______ _______ _____ _____    ______ ____
ROOT
ATOM      1  N   UNL     1      -1.551   7.864  -0.961  0.00  0.00    +0.391 N 
ATOM      2  H   UNL     1      -0.828   7.322  -1.449  0.00  0.00    -0.080 HD
ENDROOT
BRANCH   1   3
ATOM      3  C   UNL     1      -2.880   7.328  -1.324  0.00  0.00    -0.067 C 
ATOM      4  C   UNL     1      -4.009   8.214  -0.759  0.00  0.00    -0.015 C 
ATOM      5  C   UNL     1      -5.112   7.206  -0.348  0.00  0.00    -0.002 C 
ATOM      6  C   UNL     1      -4.296   6.018   0.219  0.00  0.00    -0.002 C 
ATOM      7  C   UNL     1      -3.062   5.932  -0.703  0.00  0.00    -0.015 C 
ENDBRANCH   1   3
BRANCH   1   8
ATOM      8  C   UNL     1      -1.448   9.280  -1.370  0.00  0.00    +0.003 C 
BRANCH   8   9
ATOM      9  C   UNL     1      -2.186   9.479  -2.669  0.00  0.00    +0.138 A 
ATOM     10  N   UNL     1      -2.172   8.680  -3.708  0.00  0.00    -0.115 NA
ATOM     11  N   UNL     1      -2.925   9.195  -4.617  0.00  0.00    -0.023 NA
ATOM     12  N   UNL     1      -3.420  10.302  -4.185  0.00  0.00    -0.044 NA
ATOM     13  N   UNL     1      -2.992  10.509  -2.986  0.00  0.00    -0.228 N 
BRANCH  13  14
ATOM     14  C   UNL     1      -3.319  11.653  -2.131  0.00  0.00    +0.111 C 
ATOM     15  C   UNL     1      -4.846  11.741  -1.927  0.00  0.00    +0.027 C 
ATOM     16  C   UNL     1      -5.141  13.262  -1.924  0.00  0.00    +0.002 C 
ATOM     17  C   UNL     1      -4.171  13.801  -3.005  0.00  0.00    +0.002 C 
ATOM     18  C   UNL     1      -2.890  12.963  -2.816  0.00  0.00    +0.027 C 
ENDBRANCH  13  14
ENDBRANCH   8   9
BRANCH   8  20
ATOM     19  C   UNL     1       0.844   9.057  -0.401  0.00  0.00    +0.002 C 
ATOM     20  C   UNL     1       0.029   9.627  -1.564  0.00  0.00    -0.011 C 
ENDBRANCH   8  20
ENDBRANCH   1   8
BRANCH   1  21
ATOM     21  C   UNL     1      -1.339   7.743   0.497  0.00  0.00    -0.036 C 
BRANCH  21  22
ATOM     22  C   UNL     1      -2.251   8.682   1.243  0.00  0.00    +0.001 A 
ATOM     23  C   UNL     1      -3.325   8.193   1.911  0.00  0.00    +0.017 A 
ATOM     24  C   UNL     1      -4.191   9.132   2.626  0.00  0.00    -0.001 A 
ATOM     25  C   UNL     1      -5.314   8.687   3.331  0.00  0.00    +0.013 A 
ATOM     26  C   UNL     1      -6.103   9.588   3.987  0.00  0.00    -0.050 A 
ATOM     27  C   UNL     1      -5.800  10.943   3.961  0.00  0.00    +0.008 A 
ATOM     28  C   UNL     1      -4.702  11.405   3.268  0.00  0.00    -0.026 A 
ATOM     29  C   UNL     1      -3.881  10.504   2.596  0.00  0.00    +0.052 A 
ATOM     30  N   UNL     1      -2.773  10.938   1.899  0.00  0.00    -0.322 N 
ATOM     31  H   UNL     1      -2.561  11.884   1.880  0.00  0.00    +0.169 HD
ATOM     32  C   UNL     1      -1.984  10.068   1.246  0.00  0.00    +0.251 A 
ATOM     33  O   UNL     1      -1.012  10.487   0.640  0.00  0.00    -0.268 OA
ATOM     34  C   UNL     1      -4.388  12.878   3.243  0.00  0.00    +0.046 C 
ATOM     35  C   UNL     1      -7.312   9.109   4.748  0.00  0.00    +0.044 C 
ENDBRANCH  21  22
ENDBRANCH   1  21
TORSDOF 7
