REMARK  Name = ZINC43287294
REMARK  9 active torsions:
REMARK  status: ('A' for Active; 'I' for Inactive)
REMARK    1  A    between atoms: C_1  and  C_2
REMARK    2  A    between atoms: C_2  and  C_3
REMARK    3  A    between atoms: C_3  and  C_5
REMARK    4  A    between atoms: C_3  and  N_23
REMARK    5  A    between atoms: C_5  and  C_7
REMARK    6  A    between atoms: C_5  and  N_13
REMARK    7  A    between atoms: N_13  and  C_14
REMARK    8  A    between atoms: N_13  and  C_18
REMARK    9  A    between atoms: C_14  and  C_15
REMARK                            x       y       z     vdW  Elec       q    Type
REMARK                         _______ _______ _______ _____ _____    ______ ____
ROOT
ATOM      1  C   UNL     1       1.306  -1.837   2.200  0.00  0.00    -0.045 C 
ENDROOT
BRANCH   1   2
ATOM      2  C   UNL     1       0.306  -2.123   3.291  0.00  0.00    -0.024 A 
ATOM      3  C   UNL     1       0.527  -2.428   4.593  0.00  0.00    +0.024 A 
ATOM      4  C   UNL     1      -0.556  -2.653   5.422  0.00  0.00    +0.025 A 
ATOM      5  C   UNL     1      -1.808  -2.563   4.907  0.00  0.00    +0.060 A 
ATOM      6  S   UNL     1      -1.477  -2.140   3.204  0.00  0.00    -0.102 S 
ATOM      7 BR   UNL     1      -0.297  -3.082   7.245  0.00  0.00    -0.050 Br
ENDBRANCH   1   2
BRANCH   1   8
ATOM      8  N   UNL     1       1.451  -3.023   1.345  0.00  0.00    +0.391 N 
ATOM      9  H   UNL     1       0.701  -3.045   0.671  0.00  0.00    -0.080 HD
BRANCH   8  10
ATOM     10  C   UNL     1       2.739  -2.965   0.642  0.00  0.00    -0.067 C 
ATOM     11  C   UNL     1       2.743  -1.792  -0.359  0.00  0.00    -0.015 C 
ATOM     12  C   UNL     1       3.535  -2.333  -1.575  0.00  0.00    -0.002 C 
ATOM     13  C   UNL     1       3.071  -3.809  -1.656  0.00  0.00    -0.002 C 
ATOM     14  C   UNL     1       2.948  -4.248  -0.182  0.00  0.00    -0.015 C 
ENDBRANCH   8  10
BRANCH   8  15
ATOM     15  C   UNL     1       1.399  -4.234   2.175  0.00  0.00    +0.019 C 
BRANCH  15  16
ATOM     16  C   UNL     1       0.002  -4.797   2.155  0.00  0.00    +0.194 C 
ATOM     17  O   UNL     1      -0.789  -4.428   1.312  0.00  0.00    -0.278 OA
ATOM     18  N   UNL     1      -0.370  -5.711   3.074  0.00  0.00    -0.331 N 
ATOM     19  H   UNL     1       0.263  -6.006   3.748  0.00  0.00    +0.145 HD
ATOM     20  H   UNL     1      -1.269  -6.074   3.061  0.00  0.00    +0.145 HD
ENDBRANCH  15  16
ENDBRANCH   8  15
ENDBRANCH   1   8
BRANCH   1  21
ATOM     21  C   UNL     1       0.818  -0.657   1.357  0.00  0.00    -0.085 C 
BRANCH  21  22
ATOM     22  N   UNL     1       0.608   0.511   2.223  0.00  0.00    +0.379 N 
ATOM     23  H   UNL     1       1.478   0.756   2.673  0.00  0.00    -0.090 HD
ATOM     24  H   UNL     1       0.286   1.289   1.667  0.00  0.00    -0.090 HD
ATOM     25  H   UNL     1      -0.083   0.289   2.925  0.00  0.00    -0.090 HD
ENDBRANCH  21  22
BRANCH  21  27
ATOM     26  C   UNL     1      -0.907   0.086  -0.291  0.00  0.00    +0.002 C 
ATOM     27  C   UNL     1      -0.500  -1.029   0.674  0.00  0.00    -0.021 C 
ENDBRANCH  21  27
ENDBRANCH   1  21
TORSDOF 8
