REMARK  Name = ZINC20614654
REMARK  12 active torsions:
REMARK  status: ('A' for Active; 'I' for Inactive)
REMARK    1  A    between atoms: C_1  and  N_2
REMARK    2  A    between atoms: N_2  and  C_3
REMARK    3  A    between atoms: N_2  and  C_4
REMARK    4  A    between atoms: C_4  and  C_5
REMARK    5  A    between atoms: C_5  and  C_6
REMARK    6  A    between atoms: C_6  and  N_7
REMARK    7  A    between atoms: C_8  and  C_10
REMARK    8  A    between atoms: N_12  and  C_13
REMARK    9  A    between atoms: C_13  and  C_14
REMARK   10  A    between atoms: C_14  and  C_16
REMARK   11  A    between atoms: C_14  and  S_21
REMARK   12  A    between atoms: S_21  and  C_24
REMARK                            x       y       z     vdW  Elec       q    Type
REMARK                         _______ _______ _______ _____ _____    ______ ____
ROOT
ATOM      1  C   UNL     1       0.173  -1.998   1.866  0.00  0.00    +0.136 C 
ENDROOT
BRANCH   1   4
ATOM      2  C   UNL     1      -1.038  -3.995   1.171  0.00  0.00    +0.299 C 
ATOM      3  O   UNL     1      -0.177  -4.666   1.701  0.00  0.00    -0.265 OA
ATOM      4  N   UNL     1      -0.956  -2.650   1.198  0.00  0.00    -0.305 N 
ATOM      5  H   UNL     1      -1.737  -2.042   0.718  0.00  0.00    +0.149 HD
BRANCH   2   7
ATOM      6  N   UNL     1      -2.272  -6.005   0.463  0.00  0.00    -0.308 N 
ATOM      7  C   UNL     1      -2.190  -4.660   0.489  0.00  0.00    +0.299 C 
ATOM      8  O   UNL     1      -3.052  -3.989  -0.040  0.00  0.00    -0.265 OA
ATOM      9  H   UNL     1      -1.491  -6.613   0.942  0.00  0.00    +0.149 HD
BRANCH   6  10
ATOM     10  C   UNL     1      -3.401  -6.657  -0.206  0.00  0.00    +0.103 C 
BRANCH  10  11
ATOM     11  C   UNL     1      -3.254  -8.175  -0.092  0.00  0.00    +0.000 C 
BRANCH  11  12
ATOM     12  C   UNL     1      -4.433  -8.856  -0.790  0.00  0.00    -0.078 C 
BRANCH  12  14
ATOM     13  C   UNL     1      -5.513 -10.997  -1.126  0.00  0.00    -0.097 C 
ATOM     14  N   UNL     1      -4.291 -10.314  -0.680  0.00  0.00    +0.376 N 
ATOM     15  C   UNL     1      -3.120 -10.787  -1.431  0.00  0.00    -0.097 C 
ATOM     16  H   UNL     1      -4.135 -10.560   0.381  0.00  0.00    -0.083 HD
ENDBRANCH  12  14
ENDBRANCH  11  12
ENDBRANCH  10  11
ENDBRANCH   6  10
ENDBRANCH   2   7
ENDBRANCH   1   4
BRANCH   1  17
ATOM     17  C   UNL     1       0.025  -0.480   1.752  0.00  0.00    +0.189 C 
BRANCH  17  18
ATOM     18  C   UNL     1       1.187   0.191   2.440  0.00  0.00    +0.016 A 
ATOM     19  C   UNL     1       1.177   1.059   3.481  0.00  0.00    +0.013 A 
ATOM     20  C   UNL     1       2.379   1.550   3.955  0.00  0.00    +0.008 A 
ATOM     21  C   UNL     1       3.531   1.157   3.359  0.00  0.00    +0.045 A 
ATOM     22  S   UNL     1       2.932   0.054   2.090  0.00  0.00    -0.100 S 
ENDBRANCH  17  18
BRANCH  17  23
ATOM     23  S   UNL     1       0.002  -0.004   0.002  0.00  0.00    +0.006 S 
ATOM     24  O   UNL     1      -1.233  -0.380  -0.591  0.00  0.00    -0.169 OA
ATOM     25  O   UNL     1       1.236  -0.347  -0.615  0.00  0.00    -0.169 OA
BRANCH  23  26
ATOM     26  C   UNL     1      -0.022   1.758   0.012  0.00  0.00    +0.089 A 
ATOM     27  C   UNL     1      -1.228   2.432   0.021  0.00  0.00    +0.028 A 
ATOM     28  C   UNL     1      -1.248   3.814   0.035  0.00  0.00    +0.022 A 
ATOM     29  C   UNL     1      -0.059   4.523   0.027  0.00  0.00    +0.041 A 
ATOM     30  C   UNL     1       1.148   3.847   0.012  0.00  0.00    +0.022 A 
ATOM     31  C   UNL     1       1.166   2.465   0.004  0.00  0.00    +0.028 A 
ATOM     32 CL   UNL     1      -0.083   6.258   0.037  0.00  0.00    -0.084 Cl
ENDBRANCH  23  26
ENDBRANCH  17  23
ENDBRANCH   1  17
TORSDOF 10
