REMARK  Name = ZINC02732937
REMARK  11 active torsions:
REMARK  status: ('A' for Active; 'I' for Inactive)
REMARK    1  A    between atoms: C_1  and  C_2
REMARK    2  A    between atoms: C_2  and  N_3
REMARK    3  A    between atoms: C_4  and  C_22
REMARK    4  A    between atoms: C_5  and  C_17
REMARK    5  A    between atoms: C_6  and  C_11
REMARK    6  A    between atoms: C_17  and  O_19
REMARK    7  A    between atoms: O_19  and  C_20
REMARK    8  A    between atoms: C_20  and  C_21
REMARK    9  A    between atoms: C_22  and  N_68
REMARK   10  A    between atoms: N_25  and  C_28
REMARK   11  A    between atoms: C_33  and  C_34
REMARK                            x       y       z     vdW  Elec       q    Type
REMARK                         _______ _______ _______ _____ _____    ______ ____
ROOT
ATOM      1  N   UNL     1      -0.097   1.468  -0.050  0.00  0.00    -0.261 N 
ATOM      2  C   UNL     1       1.132   2.062  -0.105  0.00  0.00    +0.010 C 
ATOM      3  C   UNL     1       1.261   3.405  -0.037  0.00  0.00    +0.076 C 
ATOM      4  C   UNL     1      -0.003   4.229   0.102  0.00  0.00    +0.143 C 
ATOM      5  N   UNL     1      -1.278   3.492   0.151  0.00  0.00    -0.288 N 
ATOM      6  C   UNL     1      -1.245   2.147   0.067  0.00  0.00    +0.307 C 
ATOM      7  O   UNL     1      -2.292   1.530   0.102  0.00  0.00    -0.252 OA
ATOM      8  H   UNL     1      -2.121   3.964   0.239  0.00  0.00    +0.151 HD
ENDROOT
BRANCH   4   9
ATOM      9  C   UNL     1       0.111   5.045   1.363  0.00  0.00    -0.023 A 
ATOM     10  C   UNL     1      -0.158   4.465   2.589  0.00  0.00    +0.006 A 
ATOM     11  C   UNL     1      -0.049   5.213   3.746  0.00  0.00    +0.000 A 
ATOM     12  C   UNL     1       0.319   6.544   3.677  0.00  0.00    +0.000 A 
ATOM     13  C   UNL     1       0.582   7.125   2.451  0.00  0.00    +0.000 A 
ATOM     14  C   UNL     1       0.478   6.376   1.294  0.00  0.00    +0.006 A 
ENDBRANCH   4   9
BRANCH   1  16
ATOM     15  C   UNL     1      -0.081  -0.584   1.280  0.00  0.00    +0.025 C 
ATOM     16  C   UNL     1      -0.163   0.007  -0.129  0.00  0.00    +0.111 C 
ENDBRANCH   1  16
BRANCH   3  17
ATOM     17  C   UNL     1       2.533   4.021  -0.093  0.00  0.00    +0.339 C 
ATOM     18  O   UNL     1       3.076   4.388   0.932  0.00  0.00    -0.245 OA
BRANCH  17  19
ATOM     19  O   UNL     1       3.143   4.201  -1.283  0.00  0.00    -0.462 OA
BRANCH  19  20
ATOM     20  C   UNL     1       4.426   4.830  -1.264  0.00  0.00    +0.229 C 
ATOM     21  C   UNL     1       4.957   4.948  -2.695  0.00  0.00    +0.048 C 
ENDBRANCH  19  20
ENDBRANCH  17  19
ENDBRANCH   3  17
BRANCH   2  22
ATOM     22  C   UNL     1       2.364   1.205  -0.244  0.00  0.00    -0.026 C 
BRANCH  22  28
ATOM     23  C   UNL     1       2.875   1.306   2.121  0.00  0.00    -0.059 C 
ATOM     24  C   UNL     1       2.993   0.467   3.396  0.00  0.00    +0.086 C 
ATOM     25  N   UNL     1       4.038  -0.550   3.215  0.00  0.00    -0.333 N 
ATOM     26  C   UNL     1       3.723  -1.429   2.080  0.00  0.00    +0.086 C 
ATOM     27  C   UNL     1       3.605  -0.590   0.806  0.00  0.00    -0.059 C 
ATOM     28  N   UNL     1       2.536   0.413   0.993  0.00  0.00    +0.385 N 
ATOM     29  H   UNL     1       1.656  -0.072   1.204  0.00  0.00    -0.081 HD
BRANCH  25  30
ATOM     30  C   UNL     1       4.224  -1.290   4.385  0.00  0.00    +0.034 A 
ATOM     31  C   UNL     1       3.193  -2.076   4.883  0.00  0.00    +0.043 A 
ATOM     32  C   UNL     1       3.382  -2.810   6.038  0.00  0.00    +0.043 A 
ATOM     33  C   UNL     1       4.595  -2.754   6.704  0.00  0.00    +0.020 A 
ATOM     34  C   UNL     1       5.621  -1.969   6.213  0.00  0.00    +0.006 A 
ATOM     35  C   UNL     1       5.439  -1.237   5.056  0.00  0.00    -0.029 A 
ATOM     36  C   UNL     1       6.559  -0.380   4.522  0.00  0.00    +0.045 C 
ATOM     37 CL   UNL     1       2.097  -3.798   6.658  0.00  0.00    -0.083 Cl
ENDBRANCH  25  30
ENDBRANCH  22  28
ENDBRANCH   2  22
TORSDOF 8
