REMARK  Name = ZINC17082194
REMARK  9 active torsions:
REMARK  status: ('A' for Active; 'I' for Inactive)
REMARK    1  A    between atoms: C_1  and  C_2
REMARK    2  A    between atoms: C_2  and  C_3
REMARK    3  A    between atoms: C_2  and  C_4
REMARK    4  A    between atoms: C_4  and  C_5
REMARK    5  A    between atoms: C_5  and  O_6
REMARK    6  A    between atoms: O_6  and  C_7
REMARK    7  A    between atoms: C_10  and  C_13
REMARK    8  A    between atoms: C_28  and  N_32
REMARK    9  A    between atoms: C_29  and  C_30
REMARK                            x       y       z     vdW  Elec       q    Type
REMARK                         _______ _______ _______ _____ _____    ______ ____
ROOT
ATOM      1  C   UNL     1      -1.275   3.516   0.034  0.00  0.00    +0.103 C 
ATOM      2  C   UNL     1       0.049   4.099  -0.385  0.00  0.00    +0.072 A 
ATOM      3  C   UNL     1       1.177   3.335  -0.375  0.00  0.00    +0.148 A 
ATOM      4  C   UNL     1       2.446   3.951  -0.787  0.00  0.00    +0.041 A 
ATOM      5  C   UNL     1       3.636   3.220  -0.795  0.00  0.00    +0.013 A 
ATOM      6  C   UNL     1       4.800   3.823  -1.182  0.00  0.00    +0.001 A 
ATOM      7  C   UNL     1       4.809   5.156  -1.568  0.00  0.00    +0.002 A 
ATOM      8  C   UNL     1       3.645   5.896  -1.568  0.00  0.00    +0.026 A 
ATOM      9  C   UNL     1       2.450   5.301  -1.178  0.00  0.00    +0.053 A 
ATOM     10  N   UNL     1       1.270   6.016  -1.167  0.00  0.00    -0.322 N 
ATOM     11  H   UNL     1       1.275   6.948  -1.439  0.00  0.00    +0.169 HD
ATOM     12  C   UNL     1       0.115   5.445  -0.788  0.00  0.00    +0.257 A 
ATOM     13  O   UNL     1      -0.905   6.112  -0.793  0.00  0.00    -0.267 OA
ATOM     14  O   UNL     1       1.148   2.041   0.002  0.00  0.00    -0.440 OA
ATOM     15  C   UNL     1      -0.017   1.368   0.010  0.00  0.00    +0.199 C 
ATOM     16  C   UNL     1      -1.208   2.014   0.019  0.00  0.00    +0.098 C 
ENDROOT
BRANCH   1  20
ATOM     17  C   UNL     1      -2.227   4.856   3.979  0.00  0.00    +0.121 A 
ATOM     18  C   UNL     1      -3.075   5.151   2.921  0.00  0.00    +0.046 A 
ATOM     19  C   UNL     1      -2.765   4.717   1.647  0.00  0.00    +0.008 A 
ATOM     20  C   UNL     1      -1.611   3.988   1.425  0.00  0.00    -0.034 A 
ATOM     21  C   UNL     1      -0.767   3.688   2.479  0.00  0.00    +0.008 A 
ATOM     22  C   UNL     1      -1.070   4.125   3.754  0.00  0.00    +0.046 A 
BRANCH  17  23
ATOM     23  O   UNL     1      -2.531   5.282   5.233  0.00  0.00    -0.492 OA
BRANCH  23  24
ATOM     24  C   UNL     1      -1.612   4.941   6.274  0.00  0.00    +0.229 C 
BRANCH  24  25
ATOM     25  C   UNL     1      -2.118   5.502   7.604  0.00  0.00    +0.044 C 
BRANCH  25  27
ATOM     26  C   UNL     1      -1.575   5.802  10.024  0.00  0.00    +0.007 C 
ATOM     27  C   UNL     1      -1.135   5.137   8.718  0.00  0.00    -0.014 C 
ATOM     28  C   UNL     1      -1.112   3.618   8.901  0.00  0.00    +0.007 C 
ENDBRANCH  25  27
ENDBRANCH  24  25
ENDBRANCH  23  24
ENDBRANCH  17  23
ENDBRANCH   1  20
BRANCH  15  29
ATOM     29  N   UNL     1       0.002  -0.004   0.002  0.00  0.00    -0.328 N 
ATOM     30  H   UNL     1       0.849  -0.478  -0.009  0.00  0.00    +0.145 HD
ATOM     31  H   UNL     1      -0.831  -0.500   0.007  0.00  0.00    +0.145 HD
ENDBRANCH  15  29
BRANCH  16  32
ATOM     32  C   UNL     1      -2.421   1.254   0.020  0.00  0.00    +0.101 C 
ATOM     33  N   UNL     1      -3.384   0.651   0.021  0.00  0.00    -0.191 NA
ENDBRANCH  16  32
TORSDOF 7
