REMARK  Name = ZINC05360199
REMARK  8 active torsions:
REMARK  status: ('A' for Active; 'I' for Inactive)
REMARK    1  A    between atoms: C_1  and  C_2
REMARK    2  A    between atoms: C_2  and  C_26
REMARK    3  A    between atoms: N_3  and  N_4
REMARK    4  A    between atoms: N_9  and  C_10
REMARK    5  A    between atoms: C_10  and  C_11
REMARK    6  A    between atoms: C_11  and  C_12
REMARK    7  A    between atoms: N_20  and  C_25
REMARK    8  A    between atoms: N_23  and  C_24
REMARK                            x       y       z     vdW  Elec       q    Type
REMARK                         _______ _______ _______ _____ _____    ______ ____
ROOT
ATOM      1  N   UNL     1       4.585  -3.946  -1.510  0.00  0.00    -0.206 N 
ATOM      2  C   UNL     1       5.596  -3.012  -1.515  0.00  0.00    +0.218 A 
ATOM      3  N   UNL     1       6.885  -3.285  -1.530  0.00  0.00    -0.195 NA
ATOM      4  C   UNL     1       7.590  -2.153  -1.530  0.00  0.00    +0.170 A 
ATOM      5  C   UNL     1       6.686  -1.095  -1.520  0.00  0.00    +0.153 A 
ATOM      6  N   UNL     1       5.420  -1.663  -1.505  0.00  0.00    -0.305 N 
ATOM      7  C   UNL     1       7.173   0.224  -1.511  0.00  0.00    +0.282 A 
ATOM      8  O   UNL     1       6.400   1.166  -1.498  0.00  0.00    -0.265 OA
ATOM      9  N   UNL     1       8.506   0.436  -1.524  0.00  0.00    -0.262 N 
ATOM     10  C   UNL     1       9.370  -0.593  -1.540  0.00  0.00    +0.333 A 
ATOM     11  O   UNL     1      10.565  -0.364  -1.551  0.00  0.00    -0.246 OA
ATOM     12  N   UNL     1       8.947  -1.871  -1.542  0.00  0.00    -0.280 N 
ATOM     13  C   UNL     1       9.921  -2.965  -1.559  0.00  0.00    +0.155 C 
ATOM     14  C   UNL     1       9.018   1.808  -1.521  0.00  0.00    +0.157 C 
ATOM     15  H   UNL     1       3.658  -3.658  -1.499  0.00  0.00    +0.177 HD
ENDROOT
BRANCH   1  18
ATOM     16  C   UNL     1       2.501  -5.746  -1.500  0.00  0.00    +0.068 C 
ATOM     17  C   UNL     1       3.940  -6.193  -1.517  0.00  0.00    +0.063 C 
ATOM     18  N   UNL     1       4.893  -5.312  -1.522  0.00  0.00    -0.184 NA
BRANCH  17  19
ATOM     19  C   UNL     1       4.264  -7.631  -1.529  0.00  0.00    -0.002 A 
ATOM     20  C   UNL     1       3.241  -8.582  -1.519  0.00  0.00    +0.011 A 
ATOM     21  C   UNL     1       3.551  -9.925  -1.537  0.00  0.00    +0.020 A 
ATOM     22  C   UNL     1       4.875 -10.333  -1.552  0.00  0.00    +0.041 A 
ATOM     23  C   UNL     1       5.894  -9.396  -1.556  0.00  0.00    +0.020 A 
ATOM     24  C   UNL     1       5.598  -8.049  -1.545  0.00  0.00    +0.011 A 
ATOM     25 CL   UNL     1       5.257 -12.026  -1.567  0.00  0.00    -0.084 Cl
ENDBRANCH  17  19
ENDBRANCH   1  18
BRANCH   6  26
ATOM     26  C   UNL     1       4.142  -0.948  -1.488  0.00  0.00    +0.130 C 
BRANCH  26  27
ATOM     27  C   UNL     1       3.711  -0.707  -0.039  0.00  0.00    +0.057 C 
BRANCH  27  28
ATOM     28  C   UNL     1       2.396   0.029  -0.022  0.00  0.00    -0.046 A 
ATOM     29  C   UNL     1       1.208  -0.679  -0.014  0.00  0.00    +0.004 A 
ATOM     30  C   UNL     1       0.002  -0.004   0.002  0.00  0.00    +0.000 A 
ATOM     31  C   UNL     1      -0.017   1.378   0.010  0.00  0.00    +0.000 A 
ATOM     32  C   UNL     1       1.171   2.086   0.002  0.00  0.00    +0.000 A 
ATOM     33  C   UNL     1       2.377   1.411  -0.014  0.00  0.00    +0.004 A 
ENDBRANCH  27  28
ENDBRANCH  26  27
ENDBRANCH   6  26
TORSDOF 5
