REMARK  Name = ZINC39324766
REMARK  12 active torsions:
REMARK  status: ('A' for Active; 'I' for Inactive)
REMARK    1  A    between atoms: C_1  and  C_2
REMARK    2  A    between atoms: C_2  and  C_3
REMARK    3  A    between atoms: C_3  and  C_4
REMARK    4  A    between atoms: C_4  and  C_6
REMARK    5  A    between atoms: C_4  and  N_19
REMARK    6  A    between atoms: N_10  and  C_11
REMARK    7  A    between atoms: C_11  and  C_12
REMARK    8  A    between atoms: N_19  and  C_20
REMARK    9  A    between atoms: N_19  and  C_35
REMARK   10  A    between atoms: C_20  and  C_21
REMARK   11  A    between atoms: C_27  and  O_33
REMARK   12  A    between atoms: O_33  and  C_34
REMARK                            x       y       z     vdW  Elec       q    Type
REMARK                         _______ _______ _______ _____ _____    ______ ____
ROOT
ATOM      1  N   UNL     1      -0.131  -4.527  -1.166  0.00  0.00    +0.389 N 
ATOM      2  H   UNL     1      -0.318  -4.589  -2.155  0.00  0.00    -0.080 HD
ENDROOT
BRANCH   1   3
ATOM      3  C   UNL     1       0.336  -5.831  -0.674  0.00  0.00    -0.068 C 
ATOM      4  C   UNL     1       1.563  -6.294  -1.486  0.00  0.00    -0.015 C 
ATOM      5  C   UNL     1       1.375  -7.826  -1.618  0.00  0.00    -0.002 C 
ATOM      6  C   UNL     1      -0.155  -7.966  -1.815  0.00  0.00    -0.002 C 
ATOM      7  C   UNL     1      -0.757  -6.894  -0.883  0.00  0.00    -0.015 C 
ENDBRANCH   1   3
BRANCH   1   8
ATOM      8  C   UNL     1       0.906  -3.514  -0.926  0.00  0.00    +0.003 C 
BRANCH   8   9
ATOM      9  C   UNL     1       1.328  -3.561   0.520  0.00  0.00    +0.138 A 
ATOM     10  N   UNL     1       1.329  -4.613   1.302  0.00  0.00    -0.115 NA
ATOM     11  N   UNL     1       1.757  -4.247   2.461  0.00  0.00    -0.023 NA
ATOM     12  N   UNL     1       2.030  -2.989   2.438  0.00  0.00    -0.044 NA
ATOM     13  N   UNL     1       1.784  -2.531   1.258  0.00  0.00    -0.226 N 
BRANCH  13  14
ATOM     14  C   UNL     1       1.962  -1.149   0.806  0.00  0.00    +0.182 C 
BRANCH  14  15
ATOM     15  C   UNL     1       0.922  -0.271   1.452  0.00  0.00    -0.026 A 
ATOM     16  C   UNL     1      -0.185   0.134   0.730  0.00  0.00    +0.008 A 
ATOM     17  C   UNL     1      -1.140   0.939   1.322  0.00  0.00    +0.038 A 
ATOM     18  C   UNL     1      -0.987   1.340   2.639  0.00  0.00    +0.123 A 
ATOM     19  C   UNL     1       0.122   0.934   3.361  0.00  0.00    +0.038 A 
ATOM     20  C   UNL     1       1.073   0.125   2.768  0.00  0.00    +0.008 A 
ATOM     21  F   UNL     1      -1.919   2.128   3.218  0.00  0.00    -0.205 F 
ENDBRANCH  14  15
ENDBRANCH  13  14
ENDBRANCH   8   9
BRANCH   8  22
ATOM     22  C   UNL     1       2.114  -3.799  -1.820  0.00  0.00    -0.008 C 
BRANCH  22  24
ATOM     23  C   UNL     1       2.889  -4.027  -4.184  0.00  0.00    +0.004 C 
ATOM     24  C   UNL     1       1.666  -3.856  -3.281  0.00  0.00    -0.005 C 
ENDBRANCH  22  24
ENDBRANCH   8  22
ENDBRANCH   1   8
BRANCH   1  25
ATOM     25  C   UNL     1      -1.360  -4.148  -0.457  0.00  0.00    -0.061 C 
BRANCH  25  26
ATOM     26  C   UNL     1      -2.001  -2.946  -1.155  0.00  0.00    +0.082 C 
ATOM     27  C   UNL     1      -3.016  -2.344  -0.204  0.00  0.00    -0.007 C 
ATOM     28  C   UNL     1      -4.304  -2.260  -0.636  0.00  0.00    -0.007 A 
ATOM     29  C   UNL     1      -5.345  -1.691   0.223  0.00  0.00    +0.013 A 
ATOM     30  C   UNL     1      -6.616  -1.623  -0.240  0.00  0.00    +0.046 A 
ATOM     31  C   UNL     1      -6.950  -2.088  -1.521  0.00  0.00    +0.122 A 
ATOM     32  C   UNL     1      -6.015  -2.633  -2.373  0.00  0.00    +0.069 A 
ATOM     33  C   UNL     1      -4.675  -2.743  -1.978  0.00  0.00    +0.044 A 
ATOM     34  N   UNL     1      -3.778  -3.274  -2.812  0.00  0.00    -0.284 N 
ATOM     35  C   UNL     1      -2.500  -3.407  -2.506  0.00  0.00    +0.222 C 
ATOM     36  O   UNL     1      -1.728  -3.898  -3.308  0.00  0.00    -0.275 OA
ATOM     37  H   UNL     1      -4.078  -3.576  -3.684  0.00  0.00    +0.155 HD
BRANCH  31  38
ATOM     38  O   UNL     1      -8.237  -1.997  -1.934  0.00  0.00    -0.495 OA
ATOM     39  C   UNL     1      -9.173  -1.425  -1.019  0.00  0.00    +0.277 C 
ENDBRANCH  31  38
ENDBRANCH  25  26
ENDBRANCH   1  25
TORSDOF 10
