REMARK  Name = ZINC20528317
REMARK  7 active torsions:
REMARK  status: ('A' for Active; 'I' for Inactive)
REMARK    1  A    between atoms: C_4  and  N_8
REMARK    2  A    between atoms: C_9  and  C_11
REMARK    3  A    between atoms: C_11  and  S_12
REMARK    4  A    between atoms: S_12  and  C_13
REMARK    5  A    between atoms: N_17  and  N_18
REMARK    6  A    between atoms: N_19  and  N_20
REMARK    7  A    between atoms: C_21  and  C_22
REMARK                            x       y       z     vdW  Elec       q    Type
REMARK                         _______ _______ _______ _____ _____    ______ ____
ROOT
ATOM      1  C   UNL     1       2.899   1.896  -1.737  0.00  0.00    +0.210 A 
ATOM      2  N   UNL     1       2.835   0.607  -1.975  0.00  0.00    -0.119 NA
ATOM      3  N   UNL     1       3.600   0.340  -3.118  0.00  0.00    -0.109 NA
ATOM      4  C   UNL     1       4.112   1.472  -3.537  0.00  0.00    +0.254 A 
ATOM      5  N   UNL     1       3.692   2.463  -2.694  0.00  0.00    -0.211 N 
ATOM      6  N   UNL     1       4.937   1.635  -4.640  0.00  0.00    -0.204 N 
ATOM      7  H   UNL     1       5.313   2.635  -4.903  0.00  0.00    +0.177 HD
ENDROOT
BRANCH   5   8
ATOM      8  N   UNL     1       4.009   3.788  -2.791  0.00  0.00    -0.294 N 
ATOM      9  H   UNL     1       4.660   4.139  -3.606  0.00  0.00    +0.163 HD
ATOM     10  H   UNL     1       3.614   4.504  -2.055  0.00  0.00    +0.163 HD
ENDBRANCH   5   8
BRANCH   6  11
ATOM     11  N   UNL     1       5.290   0.527  -5.421  0.00  0.00    -0.188 NA
ATOM     12  C   UNL     1       6.062   0.680  -6.454  0.00  0.00    +0.138 C 
BRANCH  12  13
ATOM     13  C   UNL     1       6.434  -0.487  -7.275  0.00  0.00    -0.005 A 
ATOM     14  C   UNL     1       5.963  -1.759  -6.941  0.00  0.00    +0.011 A 
ATOM     15  C   UNL     1       6.310  -2.845  -7.717  0.00  0.00    +0.020 A 
ATOM     16  C   UNL     1       7.133  -2.679  -8.818  0.00  0.00    +0.041 A 
ATOM     17  C   UNL     1       7.608  -1.421  -9.152  0.00  0.00    +0.020 A 
ATOM     18  C   UNL     1       7.264  -0.326  -8.388  0.00  0.00    +0.011 A 
ATOM     19 CL   UNL     1       7.571  -4.052  -9.785  0.00  0.00    -0.084 Cl
ENDBRANCH  12  13
ENDBRANCH   6  11
BRANCH   1  20
ATOM     20  S   UNL     1       2.106   2.744  -0.412  0.00  0.00    -0.075 S 
BRANCH  20  21
ATOM     21  C   UNL     1       1.220   1.436   0.480  0.00  0.00    +0.173 C 
BRANCH  21  23
ATOM     22  N   UNL     1      -0.242   1.246   2.466  0.00  0.00    -0.280 N 
ATOM     23  C   UNL     1       0.489   2.035   1.654  0.00  0.00    +0.228 C 
ATOM     24  O   UNL     1       0.559   3.227   1.868  0.00  0.00    -0.275 OA
ATOM     25  H   UNL     1      -0.373   0.181   2.225  0.00  0.00    +0.155 HD
BRANCH  22  29
ATOM     26  C   UNL     1      -2.006   2.844   5.891  0.00  0.00    +0.006 A 
ATOM     27  C   UNL     1      -2.707   2.825   4.700  0.00  0.00    +0.040 A 
ATOM     28  C   UNL     1      -2.125   2.296   3.562  0.00  0.00    +0.147 A 
ATOM     29  C   UNL     1      -0.834   1.783   3.617  0.00  0.00    +0.105 A 
ATOM     30  C   UNL     1      -0.135   1.798   4.818  0.00  0.00    +0.147 A 
ATOM     31  C   UNL     1      -0.722   2.334   5.951  0.00  0.00    +0.040 A 
ATOM     32  F   UNL     1       1.117   1.296   4.878  0.00  0.00    -0.203 F 
ATOM     33  F   UNL     1      -2.811   2.277   2.398  0.00  0.00    -0.203 F 
ENDBRANCH  22  29
ENDBRANCH  21  23
ENDBRANCH  20  21
ENDBRANCH   1  20
TORSDOF 7
