REMARK  Name = ZINC65357194
REMARK  8 active torsions:
REMARK  status: ('A' for Active; 'I' for Inactive)
REMARK    1  A    between atoms: C_1  and  O_2
REMARK    2  A    between atoms: O_2  and  C_3
REMARK    3  A    between atoms: C_6  and  C_11
REMARK    4  A    between atoms: C_8  and  O_9
REMARK    5  A    between atoms: O_9  and  C_10
REMARK    6  A    between atoms: C_11  and  C_12
REMARK    7  A    between atoms: N_23  and  N_24
REMARK    8  A    between atoms: C_25  and  C_26
REMARK                            x       y       z     vdW  Elec       q    Type
REMARK                         _______ _______ _______ _____ _____    ______ ____
ROOT
ATOM      1  C   UNL     1      -5.482  -2.860  -1.691  0.00  0.00    +0.189 C 
ATOM      2  N   UNL     1      -5.738  -1.579  -2.360  0.00  0.00    -0.323 N 
ATOM      3  C   UNL     1      -6.761  -0.771  -1.877  0.00  0.00    +0.041 A 
ATOM      4  C   UNL     1      -6.719   0.608  -1.988  0.00  0.00    +0.024 A 
ATOM      5  C   UNL     1      -7.761   1.366  -1.486  0.00  0.00    +0.002 A 
ATOM      6  C   UNL     1      -8.844   0.756  -0.873  0.00  0.00    +0.001 A 
ATOM      7  C   UNL     1      -8.903  -0.617  -0.757  0.00  0.00    +0.015 A 
ATOM      8  C   UNL     1      -7.861  -1.393  -1.261  0.00  0.00    +0.059 A 
ATOM      9  C   UNL     1      -7.877  -2.863  -1.172  0.00  0.00    +0.269 C 
ATOM     10  O   UNL     1      -8.901  -3.451  -0.882  0.00  0.00    -0.268 OA
ATOM     11  N   UNL     1      -6.744  -3.547  -1.418  0.00  0.00    -0.168 N 
ATOM     12  H   UNL     1      -5.205  -1.302  -3.122  0.00  0.00    +0.148 HD
ENDROOT
BRANCH  11  13
ATOM     13  N   UNL     1      -6.777  -4.948  -1.410  0.00  0.00    -0.183 NA
ATOM     14  C   UNL     1      -5.666  -5.630  -1.535  0.00  0.00    +0.136 C 
BRANCH  14  15
ATOM     15  C   UNL     1      -5.710  -7.025  -1.658  0.00  0.00    +0.000 C 
ATOM     16  C   UNL     1      -4.629  -7.893  -1.793  0.00  0.00    +0.004 A 
ATOM     17  C   UNL     1      -3.234  -7.679  -1.848  0.00  0.00    +0.010 A 
ATOM     18  C   UNL     1      -2.396  -8.737  -1.988  0.00  0.00    +0.001 A 
ATOM     19  C   UNL     1      -2.877 -10.046  -2.080  0.00  0.00    +0.002 A 
ATOM     20  C   UNL     1      -4.202 -10.326  -2.034  0.00  0.00    +0.026 A 
ATOM     21  C   UNL     1      -5.142  -9.271  -1.890  0.00  0.00    +0.043 A 
ATOM     22  N   UNL     1      -6.456  -9.279  -1.821  0.00  0.00    -0.380 N 
ATOM     23  C   UNL     1      -6.941  -7.904  -1.665  0.00  0.00    +0.150 C 
ATOM     24  H   UNL     1      -7.016 -10.070  -1.862  0.00  0.00    +0.160 HD
ENDBRANCH  14  15
ENDBRANCH  11  13
BRANCH   1  25
ATOM     25  C   UNL     1      -4.748  -2.605  -0.372  0.00  0.00    +0.079 C 
BRANCH  25  29
ATOM     26  C   UNL     1      -1.048  -0.612  -1.161  0.00  0.00    +0.161 A 
ATOM     27  C   UNL     1      -2.200   0.124  -0.933  0.00  0.00    +0.049 A 
ATOM     28  C   UNL     1      -3.394  -0.523  -0.678  0.00  0.00    +0.007 A 
ATOM     29  C   UNL     1      -3.444  -1.905  -0.651  0.00  0.00    -0.040 A 
ATOM     30  C   UNL     1      -2.298  -2.645  -0.878  0.00  0.00    +0.053 A 
ATOM     31  C   UNL     1      -1.099  -2.002  -1.139  0.00  0.00    +0.162 A 
BRANCH  26  33
ATOM     32  C   UNL     1       0.105   1.452  -1.419  0.00  0.00    +0.277 C 
ATOM     33  O   UNL     1       0.128   0.023  -1.412  0.00  0.00    -0.491 OA
ENDBRANCH  26  33
BRANCH  31  34
ATOM     34  O   UNL     1       0.028  -2.729  -1.369  0.00  0.00    -0.491 OA
ATOM     35  C   UNL     1      -0.099  -4.152  -1.330  0.00  0.00    +0.277 C 
ENDBRANCH  31  34
ENDBRANCH  25  29
ENDBRANCH   1  25
TORSDOF 6
