REMARK  Name = ZINC62283945
REMARK  7 active torsions:
REMARK  status: ('A' for Active; 'I' for Inactive)
REMARK    1  A    between atoms: C_1  and  C_2
REMARK    2  A    between atoms: C_5  and  C_8
REMARK    3  A    between atoms: C_8  and  N_9
REMARK    4  A    between atoms: C_10  and  C_16
REMARK    5  A    between atoms: C_11  and  C_14
REMARK    6  A    between atoms: C_14  and  N_15
REMARK    7  A    between atoms: C_16  and  C_17
REMARK                            x       y       z     vdW  Elec       q    Type
REMARK                         _______ _______ _______ _____ _____    ______ ____
ROOT
ATOM      1  N   UNL     1       1.477  -4.761  -0.121  0.00  0.00    -0.244 N 
ATOM      2  C   UNL     1       2.115  -4.910  -1.305  0.00  0.00    +0.065 A 
ATOM      3  C   UNL     1       3.355  -5.364  -1.011  0.00  0.00    +0.069 A 
ATOM      4  N   UNL     1       3.415  -5.470   0.321  0.00  0.00    -0.136 NA
ATOM      5  N   UNL     1       2.288  -5.099   0.819  0.00  0.00    -0.065 NA
ENDROOT
BRANCH   1   6
ATOM      6  C   UNL     1       0.102  -4.289   0.060  0.00  0.00    +0.180 C 
BRANCH   6  11
ATOM      7  C   UNL     1       0.133   1.397   1.089  0.00  0.00    +0.044 C 
ATOM      8  C   UNL     1       0.125  -0.085   0.820  0.00  0.00    -0.050 A 
ATOM      9  C   UNL     1      -0.038  -0.553  -0.470  0.00  0.00    +0.004 A 
ATOM     10  C   UNL     1      -0.045  -1.914  -0.716  0.00  0.00    +0.006 A 
ATOM     11  C   UNL     1       0.111  -2.806   0.328  0.00  0.00    -0.026 A 
ATOM     12  C   UNL     1       0.275  -2.338   1.618  0.00  0.00    +0.006 A 
ATOM     13  C   UNL     1       0.286  -0.978   1.864  0.00  0.00    +0.004 A 
ENDBRANCH   6  11
ENDBRANCH   1   6
BRANCH   3  14
ATOM     14  C   UNL     1       4.453  -5.688  -1.991  0.00  0.00    -0.026 C 
BRANCH  14  15
ATOM     15  N   UNL     1       5.204  -4.466  -2.308  0.00  0.00    +0.382 N 
ATOM     16  H   UNL     1       5.673  -4.135  -1.478  0.00  0.00    -0.090 HD
ATOM     17  H   UNL     1       5.887  -4.666  -3.023  0.00  0.00    -0.090 HD
ATOM     18  H   UNL     1       4.567  -3.757  -2.639  0.00  0.00    -0.090 HD
ENDBRANCH  14  15
ENDBRANCH   3  14
BRANCH   2  19
ATOM     19  C   UNL     1       1.556  -4.627  -2.676  0.00  0.00    +0.092 C 
BRANCH  19  20
ATOM     20  C   UNL     1       0.811  -5.838  -3.175  0.00  0.00    -0.041 A 
ATOM     21  C   UNL     1       1.499  -6.867  -3.790  0.00  0.00    +0.007 A 
ATOM     22  C   UNL     1       0.817  -7.979  -4.247  0.00  0.00    +0.038 A 
ATOM     23  C   UNL     1      -0.556  -8.062  -4.088  0.00  0.00    +0.123 A 
ATOM     24  C   UNL     1      -1.244  -7.031  -3.471  0.00  0.00    +0.038 A 
ATOM     25  C   UNL     1      -0.559  -5.923  -3.010  0.00  0.00    +0.007 A 
ATOM     26  F   UNL     1      -1.224  -9.148  -4.535  0.00  0.00    -0.205 F 
ENDBRANCH  19  20
ENDBRANCH   2  19
TORSDOF 6
