REMARK  Name = ZINC04063337
REMARK  3 active torsions:
REMARK  status: ('A' for Active; 'I' for Inactive)
REMARK    1  A    between atoms: C_1  and  C_2
REMARK    2  A    between atoms: C_5  and  C_8
REMARK    3  A    between atoms: C_13  and  C_18
REMARK                            x       y       z     vdW  Elec       q    Type
REMARK                         _______ _______ _______ _____ _____    ______ ____
ROOT
ATOM      1  C   UNL     1      -6.629   5.213   0.178  0.00  0.00    +0.136 C 
ATOM      2  C   UNL     1      -5.341   4.427   0.210  0.00  0.00    +0.036 C 
ATOM      3  C   UNL     1      -4.609   4.068  -0.859  0.00  0.00    +0.017 C 
ATOM      4  C   UNL     1      -3.326   3.273  -0.683  0.00  0.00    +0.059 C 
ATOM      5  C   UNL     1      -2.657   3.648   0.638  0.00  0.00    +0.032 C 
ATOM      6  C   UNL     1      -3.642   3.330   1.769  0.00  0.00    +0.088 C 
ATOM      7  C   UNL     1      -4.917   4.076   1.514  0.00  0.00    +0.163 C 
ATOM      8  O   UNL     1      -5.612   4.389   2.460  0.00  0.00    -0.292 OA
ATOM      9  N   UNL     1      -4.929   4.354  -2.146  0.00  0.00    -0.316 N 
ATOM     10  C   UNL     1      -5.340   5.600  -2.606  0.00  0.00    +0.052 A 
ATOM     11  C   UNL     1      -4.619   6.316  -3.546  0.00  0.00    +0.025 A 
ATOM     12  C   UNL     1      -5.142   7.496  -4.047  0.00  0.00    +0.002 A 
ATOM     13  C   UNL     1      -6.371   7.956  -3.610  0.00  0.00    +0.002 A 
ATOM     14  C   UNL     1      -7.082   7.253  -2.653  0.00  0.00    +0.025 A 
ATOM     15  C   UNL     1      -6.554   6.080  -2.137  0.00  0.00    +0.049 A 
ATOM     16  N   UNL     1      -7.210   5.362  -1.139  0.00  0.00    -0.331 N 
ATOM     17  H   UNL     1      -4.866   3.636  -2.795  0.00  0.00    +0.152 HD
ATOM     18  H   UNL     1      -8.070   4.955  -1.331  0.00  0.00    +0.147 HD
ENDROOT
BRANCH   1  23
ATOM     19  C   UNL     1      -5.613  10.483   2.321  0.00  0.00    +0.044 C 
ATOM     20  C   UNL     1      -5.878   9.108   1.763  0.00  0.00    -0.050 A 
ATOM     21  C   UNL     1      -6.750   8.255   2.412  0.00  0.00    +0.004 A 
ATOM     22  C   UNL     1      -6.993   6.994   1.899  0.00  0.00    +0.006 A 
ATOM     23  C   UNL     1      -6.364   6.588   0.737  0.00  0.00    -0.023 A 
ATOM     24  C   UNL     1      -5.488   7.439   0.091  0.00  0.00    +0.006 A 
ATOM     25  C   UNL     1      -5.248   8.701   0.601  0.00  0.00    +0.004 A 
ENDBRANCH   1  23
BRANCH   5  26
ATOM     26  C   UNL     1      -1.395   2.843   0.818  0.00  0.00    -0.043 A 
ATOM     27  C   UNL     1      -1.454   1.462   0.838  0.00  0.00    +0.005 A 
ATOM     28  C   UNL     1      -0.298   0.724   1.009  0.00  0.00    +0.020 A 
ATOM     29  C   UNL     1       0.919   1.367   1.149  0.00  0.00    +0.041 A 
ATOM     30  C   UNL     1       0.978   2.749   1.122  0.00  0.00    +0.020 A 
ATOM     31  C   UNL     1      -0.179   3.486   0.957  0.00  0.00    +0.005 A 
ATOM     32 CL   UNL     1       2.372   0.440   1.357  0.00  0.00    -0.084 Cl
ENDBRANCH   5  26
TORSDOF 2
