REMARK  Name = ZINC36963746
REMARK  5 active torsions:
REMARK  status: ('A' for Active; 'I' for Inactive)
REMARK    1  A    between atoms: C_3  and  N_9
REMARK    2  A    between atoms: N_9  and  S_10
REMARK    3  A    between atoms: S_10  and  C_13
REMARK    4  A    between atoms: C_16  and  C_18
REMARK    5  A    between atoms: C_18  and  N_19
REMARK                            x       y       z     vdW  Elec       q    Type
REMARK                         _______ _______ _______ _____ _____    ______ ____
ROOT
ATOM      1  S   UNL     1       5.026   1.320   0.086  0.00  0.00    +0.098 S 
ATOM      2  O   UNL     1       5.016   0.633   1.330  0.00  0.00    -0.148 OA
ATOM      3  O   UNL     1       5.209   0.649  -1.153  0.00  0.00    -0.148 OA
ENDROOT
BRANCH   1   4
ATOM      4  C   UNL     1       6.295   2.538   0.192  0.00  0.00    +0.148 A 
ATOM      5  C   UNL     1       6.832   3.117   1.293  0.00  0.00    +0.037 A 
ATOM      6  C   UNL     1       7.831   4.059   1.135  0.00  0.00    +0.011 A 
ATOM      7  C   UNL     1       8.244   4.376  -0.116  0.00  0.00    -0.026 A 
ATOM      8  S   UNL     1       7.213   3.323  -1.123  0.00  0.00    -0.075 S 
BRANCH   7   9
ATOM      9  C   UNL     1       9.302   5.359  -0.546  0.00  0.00    -0.043 C 
BRANCH   9  10
ATOM     10  N   UNL     1      10.601   4.677  -0.625  0.00  0.00    +0.381 N 
ATOM     11  H   UNL     1      11.310   5.335  -0.912  0.00  0.00    -0.090 HD
ATOM     12  H   UNL     1      10.839   4.301   0.281  0.00  0.00    -0.090 HD
ATOM     13  H   UNL     1      10.546   3.926  -1.296  0.00  0.00    -0.090 HD
ENDBRANCH   9  10
ENDBRANCH   7   9
ENDBRANCH   1   4
BRANCH   1  14
ATOM     14  N   UNL     1       3.583   2.125  -0.021  0.00  0.00    -0.096 NA
BRANCH  14  17
ATOM     15  C   UNL     1       1.211  -0.682  -0.090  0.00  0.00    +0.017 A 
ATOM     16  C   UNL     1       2.399   0.022  -0.082  0.00  0.00    +0.029 A 
ATOM     17  C   UNL     1       2.382   1.410  -0.029  0.00  0.00    +0.093 A 
ATOM     18  C   UNL     1       1.168   2.086   0.017  0.00  0.00    +0.066 A 
ATOM     19  C   UNL     1      -0.017   1.375   0.009  0.00  0.00    +0.037 A 
ATOM     20  C   UNL     1       0.004  -0.008  -0.044  0.00  0.00    +0.019 A 
ATOM     21 BR   UNL     1      -1.620  -0.977  -0.055  0.00  0.00    -0.050 Br
ATOM     22 CL   UNL     1       1.141   3.820   0.084  0.00  0.00    -0.081 Cl
ENDBRANCH  14  17
ENDBRANCH   1  14
TORSDOF 5
