REMARK  Name = ZINC65527654
REMARK  7 active torsions:
REMARK  status: ('A' for Active; 'I' for Inactive)
REMARK    1  A    between atoms: C_4  and  C_7
REMARK    2  A    between atoms: C_9  and  C_24
REMARK    3  A    between atoms: N_11  and  C_14
REMARK    4  A    between atoms: C_14  and  C_15
REMARK    5  A    between atoms: C_15  and  C_16
REMARK    6  A    between atoms: C_16  and  C_17
REMARK    7  A    between atoms: C_22  and  O_23
REMARK                            x       y       z     vdW  Elec       q    Type
REMARK                         _______ _______ _______ _____ _____    ______ ____
ROOT
ATOM      1  C   UNL     1       3.654  -0.616  -0.097  0.00  0.00    +0.110 C 
ATOM      2  C   UNL     1       4.017  -1.210  -1.472  0.00  0.00    +0.143 C 
ATOM      3  N   UNL     1       4.133  -2.672  -1.257  0.00  0.00    -0.278 NA
ATOM      4  C   UNL     1       4.428  -2.811   0.192  0.00  0.00    +0.169 C 
ATOM      5  N   UNL     1       3.582  -1.769   0.831  0.00  0.00    -0.295 NA
ATOM      6  H   UNL     1       3.937  -1.522   1.743  0.00  0.00    +0.124 HD
ENDROOT
BRANCH   2   7
ATOM      7  C   UNL     1       5.330  -0.646  -1.952  0.00  0.00    +0.104 A 
ATOM      8  N   UNL     1       5.530  -0.041  -3.112  0.00  0.00    -0.349 N 
ATOM      9  C   UNL     1       6.827   0.322  -3.180  0.00  0.00    +0.101 A 
ATOM     10  C   UNL     1       7.417  -0.074  -2.035  0.00  0.00    +0.101 A 
ATOM     11  N   UNL     1       6.470  -0.670  -1.281  0.00  0.00    -0.349 N 
ATOM     12  H   UNL     1       6.602  -1.053  -0.399  0.00  0.00    +0.166 HD
ATOM     13  H   UNL     1       4.859   0.114  -3.795  0.00  0.00    +0.166 HD
ENDBRANCH   2   7
BRANCH   1  17
ATOM     14  C   UNL     1      -0.129   1.358  -0.297  0.00  0.00    +0.000 A 
ATOM     15  C   UNL     1       1.038   2.097  -0.330  0.00  0.00    +0.000 A 
ATOM     16  C   UNL     1       2.263   1.458  -0.266  0.00  0.00    +0.005 A 
ATOM     17  C   UNL     1       2.319   0.081  -0.167  0.00  0.00    -0.029 A 
ATOM     18  C   UNL     1       1.151  -0.658  -0.133  0.00  0.00    +0.005 A 
ATOM     19  C   UNL     1      -0.073  -0.020  -0.199  0.00  0.00    +0.000 A 
ENDBRANCH   1  17
BRANCH   3  20
ATOM     20  C   UNL     1       5.215  -3.239  -2.072  0.00  0.00    +0.087 C 
BRANCH  20  21
ATOM     21  C   UNL     1       5.064  -4.761  -2.132  0.00  0.00    +0.020 C 
BRANCH  21  22
ATOM     22  C   UNL     1       6.191  -5.352  -2.981  0.00  0.00    +0.040 C 
BRANCH  22  23
ATOM     23  C   UNL     1       6.043  -6.850  -3.041  0.00  0.00    -0.006 A 
ATOM     24  C   UNL     1       6.733  -7.649  -2.150  0.00  0.00    +0.007 A 
ATOM     25  C   UNL     1       6.598  -9.024  -2.204  0.00  0.00    +0.000 A 
ATOM     26  C   UNL     1       5.770  -9.603  -3.149  0.00  0.00    +0.004 A 
ATOM     27  C   UNL     1       5.077  -8.808  -4.042  0.00  0.00    +0.045 A 
ATOM     28  C   UNL     1       5.208  -7.428  -3.986  0.00  0.00    +0.120 A 
BRANCH  28  29
ATOM     29  O   UNL     1       4.523  -6.644  -4.859  0.00  0.00    -0.506 OA
ATOM     30  H   UNL     1       4.999  -6.461  -5.681  0.00  0.00    +0.292 HD
ENDBRANCH  28  29
ENDBRANCH  22  23
ENDBRANCH  21  22
ENDBRANCH  20  21
ENDBRANCH   3  20
TORSDOF 7
