REMARK  Name = ZINC36660440
REMARK  10 active torsions:
REMARK  status: ('A' for Active; 'I' for Inactive)
REMARK    1  A    between atoms: C_1  and  C_2
REMARK    2  A    between atoms: C_2  and  N_3
REMARK    3  A    between atoms: C_9  and  N_16
REMARK    4  A    between atoms: C_10  and  C_11
REMARK    5  A    between atoms: C_11  and  O_13
REMARK    6  A    between atoms: O_13  and  C_14
REMARK    7  A    between atoms: C_14  and  C_15
REMARK    8  A    between atoms: C_17  and  C_19
REMARK    9  A    between atoms: N_24  and  S_25
REMARK   10  A    between atoms: S_25  and  C_28
REMARK                            x       y       z     vdW  Elec       q    Type
REMARK                         _______ _______ _______ _____ _____    ______ ____
ROOT
ATOM      1  N   UNL     1       1.313  -1.445   7.038  0.00  0.00    -0.278 N 
ATOM      2  C   UNL     1       0.648  -1.089   8.155  0.00  0.00    +0.236 C 
ATOM      3  O   UNL     1      -0.401  -0.486   8.070  0.00  0.00    -0.274 OA
ATOM      4  H   UNL     1       2.152  -1.927   7.106  0.00  0.00    +0.155 HD
ENDROOT
BRANCH   1  11
ATOM      5  N   UNL     1      -0.842   0.367   1.385  0.00  0.00    +0.383 N 
ATOM      6  C   UNL     1      -0.227  -0.925   1.057  0.00  0.00    -0.074 C 
ATOM      7  C   UNL     1       1.007  -1.161   1.935  0.00  0.00    +0.018 C 
ATOM      8  C   UNL     1       0.595  -0.954   3.386  0.00  0.00    -0.025 A 
ATOM      9  C   UNL     1      -0.552  -0.302   3.680  0.00  0.00    -0.021 A 
ATOM     10  S   UNL     1      -0.626  -0.300   5.445  0.00  0.00    -0.079 S 
ATOM     11  C   UNL     1       0.797  -1.123   5.792  0.00  0.00    +0.086 A 
ATOM     12  C   UNL     1       1.339  -1.406   4.546  0.00  0.00    +0.091 A 
ATOM     13  C   UNL     1      -1.516   0.278   2.693  0.00  0.00    -0.035 C 
ATOM     14  H   UNL     1      -0.127   1.079   1.423  0.00  0.00    -0.081 HD
BRANCH   5  16
ATOM     15  C   UNL     1      -2.372   2.120   0.621  0.00  0.00    -0.017 C 
ATOM     16  C   UNL     1      -1.825   0.717   0.351  0.00  0.00    -0.082 C 
ENDBRANCH   5  16
BRANCH  12  17
ATOM     17  C   UNL     1       2.604  -2.129   4.408  0.00  0.00    +0.342 C 
ATOM     18  O   UNL     1       3.654  -1.515   4.371  0.00  0.00    -0.245 OA
BRANCH  17  19
ATOM     19  O   UNL     1       2.607  -3.475   4.323  0.00  0.00    -0.461 OA
BRANCH  19  20
ATOM     20  C   UNL     1       3.878  -4.114   4.190  0.00  0.00    +0.229 C 
ATOM     21  C   UNL     1       3.680  -5.630   4.109  0.00  0.00    +0.048 C 
ENDBRANCH  19  20
ENDBRANCH  17  19
ENDBRANCH  12  17
ENDBRANCH   1  11
BRANCH   2  22
ATOM     22  C   UNL     1       1.209  -1.439   9.509  0.00  0.00    +0.166 C 
ATOM     23  C   UNL     1       0.712  -2.836   9.938  0.00  0.00    +0.031 C 
ATOM     24  C   UNL     1       0.459  -2.664  11.459  0.00  0.00    +0.019 C 
ATOM     25  C   UNL     1      -0.060  -1.206  11.524  0.00  0.00    +0.110 C 
ATOM     26  N   UNL     1       0.732  -0.476  10.512  0.00  0.00    -0.165 NA
BRANCH  26  27
ATOM     27  S   UNL     1       1.032   1.152  10.507  0.00  0.00    +0.062 S 
ATOM     28  O   UNL     1       1.443   1.485   9.187  0.00  0.00    -0.153 OA
ATOM     29  O   UNL     1      -0.079   1.773  11.138  0.00  0.00    -0.153 OA
BRANCH  27  30
ATOM     30  C   UNL     1       2.424   1.429  11.552  0.00  0.00    +0.106 A 
ATOM     31  C   UNL     1       2.245   1.586  12.913  0.00  0.00    +0.030 A 
ATOM     32  C   UNL     1       3.336   1.803  13.733  0.00  0.00    +0.022 A 
ATOM     33  C   UNL     1       4.608   1.863  13.191  0.00  0.00    +0.041 A 
ATOM     34  C   UNL     1       4.786   1.706  11.829  0.00  0.00    +0.022 A 
ATOM     35  C   UNL     1       3.695   1.483  11.010  0.00  0.00    +0.030 A 
ATOM     36 CL   UNL     1       5.979   2.136  14.221  0.00  0.00    -0.084 Cl
ENDBRANCH  27  30
ENDBRANCH  26  27
ENDBRANCH   2  22
TORSDOF 8
