REMARK  Name = ZINC09176726
REMARK  7 active torsions:
REMARK  status: ('A' for Active; 'I' for Inactive)
REMARK    1  A    between atoms: C_1  and  C_2
REMARK    2  A    between atoms: C_2  and  C_4
REMARK    3  A    between atoms: C_2  and  N_13
REMARK    4  A    between atoms: C_14  and  C_16
REMARK    5  A    between atoms: C_16  and  S_17
REMARK    6  A    between atoms: S_17  and  C_18
REMARK    7  A    between atoms: N_28  and  C_29
REMARK                            x       y       z     vdW  Elec       q    Type
REMARK                         _______ _______ _______ _____ _____    ______ ____
ROOT
ATOM      1  C   UNL     1      -1.016  -2.041  -0.498  0.00  0.00    +0.177 A 
ATOM      2  N   UNL     1      -1.029  -0.731  -0.522  0.00  0.00    -0.223 NA
ATOM      3  C   UNL     1       0.015  -0.004  -0.062  0.00  0.00    +0.079 A 
ATOM      4  C   UNL     1       0.003   1.393  -0.087  0.00  0.00    +0.028 A 
ATOM      5  C   UNL     1       1.079   2.088   0.389  0.00  0.00    +0.002 A 
ATOM      6  C   UNL     1       2.189   1.425   0.899  0.00  0.00    +0.001 A 
ATOM      7  C   UNL     1       2.231   0.059   0.937  0.00  0.00    +0.015 A 
ATOM      8  C   UNL     1       1.146  -0.675   0.458  0.00  0.00    +0.065 A 
ATOM      9  C   UNL     1       1.135  -2.144   0.474  0.00  0.00    +0.267 A 
ATOM     10  O   UNL     1       2.079  -2.777   0.909  0.00  0.00    -0.267 OA
ATOM     11  N   UNL     1       0.037  -2.767  -0.012  0.00  0.00    -0.255 N 
ENDROOT
BRANCH  11  12
ATOM     12  C   UNL     1      -0.022  -4.167  -0.019  0.00  0.00    +0.053 A 
ATOM     13  C   UNL     1      -0.543  -4.846   1.075  0.00  0.00    +0.026 A 
ATOM     14  C   UNL     1      -0.606  -6.226   1.064  0.00  0.00    +0.003 A 
ATOM     15  C   UNL     1      -0.140  -6.932  -0.030  0.00  0.00    +0.020 A 
ATOM     16  C   UNL     1       0.385  -6.259  -1.119  0.00  0.00    +0.043 A 
ATOM     17  C   UNL     1       0.445  -4.877  -1.116  0.00  0.00    +0.046 A 
ATOM     18 CL   UNL     1       0.969  -7.149  -2.490  0.00  0.00    -0.083 Cl
ENDBRANCH  11  12
BRANCH   1  19
ATOM     19  S   UNL     1      -2.419  -2.908  -1.118  0.00  0.00    -0.078 S 
BRANCH  19  20
ATOM     20  C   UNL     1      -3.460  -1.510  -1.609  0.00  0.00    +0.173 C 
BRANCH  20  22
ATOM     21  N   UNL     1      -5.689  -1.159  -2.620  0.00  0.00    -0.308 N 
ATOM     22  C   UNL     1      -4.753  -2.026  -2.185  0.00  0.00    +0.224 C 
ATOM     23  O   UNL     1      -4.952  -3.220  -2.257  0.00  0.00    -0.275 OA
ATOM     24  H   UNL     1      -5.530  -0.204  -2.562  0.00  0.00    +0.149 HD
BRANCH  21  26
ATOM     25  C   UNL     1      -7.938  -1.933  -2.046  0.00  0.00    +0.033 C 
ATOM     26  C   UNL     1      -6.947  -1.660  -3.180  0.00  0.00    +0.100 C 
BRANCH  26  27
ATOM     27  C   UNL     1      -7.526  -0.630  -4.115  0.00  0.00    -0.024 A 
ATOM     28  C   UNL     1      -7.467   0.712  -3.786  0.00  0.00    +0.009 A 
ATOM     29  C   UNL     1      -7.996   1.661  -4.641  0.00  0.00    +0.050 A 
ATOM     30  C   UNL     1      -8.588   1.269  -5.830  0.00  0.00    +0.166 A 
ATOM     31  C   UNL     1      -8.648  -0.083  -6.162  0.00  0.00    +0.167 A 
ATOM     32  C   UNL     1      -8.110  -1.027  -5.303  0.00  0.00    +0.055 A 
ATOM     33  O   UNL     1      -9.271  -0.208  -7.370  0.00  0.00    -0.453 OA
ATOM     34  C   UNL     1      -9.227   1.103  -7.963  0.00  0.00    +0.466 C 
ATOM     35  O   UNL     1      -9.174   1.990  -6.830  0.00  0.00    -0.453 OA
ENDBRANCH  26  27
ENDBRANCH  21  26
ENDBRANCH  20  22
ENDBRANCH  19  20
ENDBRANCH   1  19
TORSDOF 6
