REMARK  Name = ZINC40340842
REMARK  7 active torsions:
REMARK  status: ('A' for Active; 'I' for Inactive)
REMARK    1  A    between atoms: C_1  and  C_2
REMARK    2  A    between atoms: C_5  and  C_8
REMARK    3  A    between atoms: N_16  and  C_27
REMARK    4  A    between atoms: C_17  and  C_19
REMARK    5  A    between atoms: C_27  and  C_28
REMARK    6  A    between atoms: C_28  and  C_29
REMARK    7  A    between atoms: C_28  and  C_30
REMARK                            x       y       z     vdW  Elec       q    Type
REMARK                         _______ _______ _______ _____ _____    ______ ____
ROOT
ATOM      1  C   UNL     1      -0.310  -4.047   0.184  0.00  0.00    +0.099 A 
ATOM      2  C   UNL     1       0.522  -4.962   0.837  0.00  0.00    +0.035 A 
ATOM      3  C   UNL     1       0.260  -6.189   0.259  0.00  0.00    +0.126 A 
ATOM      4  N   UNL     1      -0.694  -5.964  -0.692  0.00  0.00    -0.272 N 
ATOM      5  H   UNL     1      -1.080  -6.644  -1.266  0.00  0.00    +0.189 HD
ATOM      6  N   UNL     1      -1.009  -4.718  -0.710  0.00  0.00    -0.173 NA
ATOM      7  C   UNL     1       1.107  -7.199   0.903  0.00  0.00    +0.265 C 
ATOM      8  O   UNL     1       1.115  -8.382   0.620  0.00  0.00    -0.268 OA
ATOM      9  N   UNL     1       1.874  -6.632   1.852  0.00  0.00    -0.285 N 
ATOM     10  C   UNL     1       1.573  -5.195   1.889  0.00  0.00    +0.143 C 
ENDROOT
BRANCH  10  11
ATOM     11  C   UNL     1       2.812  -4.398   1.569  0.00  0.00    -0.004 A 
ATOM     12  C   UNL     1       3.052  -3.985   0.272  0.00  0.00    +0.008 A 
ATOM     13  C   UNL     1       4.188  -3.254  -0.021  0.00  0.00    +0.020 A 
ATOM     14  C   UNL     1       5.084  -2.934   0.984  0.00  0.00    +0.042 A 
ATOM     15  C   UNL     1       4.843  -3.347   2.282  0.00  0.00    +0.040 A 
ATOM     16  C   UNL     1       3.704  -4.074   2.576  0.00  0.00    +0.048 A 
ATOM     17 CL   UNL     1       3.398  -4.587   4.206  0.00  0.00    -0.083 Cl
ATOM     18 CL   UNL     1       6.511  -2.016   0.615  0.00  0.00    -0.083 Cl
ENDBRANCH  10  11
BRANCH   1  23
ATOM     19  C   UNL     1      -0.642   1.608   1.227  0.00  0.00    +0.044 C 
ATOM     20  C   UNL     1      -0.555   0.128   0.954  0.00  0.00    -0.050 A 
ATOM     21  C   UNL     1      -0.606  -0.337  -0.347  0.00  0.00    +0.004 A 
ATOM     22  C   UNL     1      -0.527  -1.691  -0.603  0.00  0.00    +0.010 A 
ATOM     23  C   UNL     1      -0.395  -2.590   0.453  0.00  0.00    +0.002 A 
ATOM     24  C   UNL     1      -0.345  -2.116   1.762  0.00  0.00    +0.010 A 
ATOM     25  C   UNL     1      -0.419  -0.760   2.006  0.00  0.00    +0.004 A 
ENDBRANCH   1  23
BRANCH   9  26
ATOM     26  C   UNL     1       2.841  -7.328   2.703  0.00  0.00    +0.112 C 
BRANCH  26  27
ATOM     27  C   UNL     1       4.215  -7.317   2.029  0.00  0.00    +0.000 C 
ATOM     28  C   UNL     1       5.255  -7.911   2.980  0.00  0.00    +0.009 C 
ATOM     29  C   UNL     1       4.160  -8.151   0.747  0.00  0.00    +0.009 C 
ENDBRANCH  26  27
ENDBRANCH   9  26
TORSDOF 4
