REMARK  Name = ZINC43604373
REMARK  8 active torsions:
REMARK  status: ('A' for Active; 'I' for Inactive)
REMARK    1  A    between atoms: C_1  and  C_2
REMARK    2  A    between atoms: C_18  and  C_20
REMARK    3  A    between atoms: C_20  and  N_21
REMARK    4  A    between atoms: N_21  and  C_22
REMARK    5  A    between atoms: C_22  and  C_23
REMARK    6  A    between atoms: C_23  and  C_24
REMARK    7  A    between atoms: C_31  and  O_34
REMARK    8  A    between atoms: O_34  and  C_35
REMARK                            x       y       z     vdW  Elec       q    Type
REMARK                         _______ _______ _______ _____ _____    ______ ____
ROOT
ATOM      1  C   UNL     1      -1.823  -2.107   4.233  0.00  0.00    -0.068 C 
ENDROOT
BRANCH   1  16
ATOM      2  C   UNL     1      -0.019   1.526   0.010  0.00  0.00    +0.011 C 
ATOM      3  C   UNL     1       0.002  -0.004   0.002  0.00  0.00    -0.023 C 
ATOM      4  C   UNL     1       0.715  -0.501  -1.255  0.00  0.00    +0.007 C 
ATOM      5  C   UNL     1       2.128   0.081  -1.315  0.00  0.00    +0.003 C 
ATOM      6  C   UNL     1       2.939  -0.425  -0.117  0.00  0.00    +0.037 C 
ATOM      7  C   UNL     1       2.201  -0.057   1.173  0.00  0.00    +0.096 C 
ATOM      8  C   UNL     1       0.744  -0.517   1.245  0.00  0.00    +0.030 C 
ATOM      9  C   UNL     1       0.082   0.104   2.474  0.00  0.00    +0.014 C 
ATOM     10  C   UNL     1      -1.378  -0.263   2.566  0.00  0.00    +0.042 C 
ATOM     11  C   UNL     1      -2.168  -0.009   1.267  0.00  0.00    +0.181 C 
ATOM     12  C   UNL     1      -1.427  -0.537   0.050  0.00  0.00    +0.052 C 
ATOM     13  O   UNL     1      -3.319  -0.878   1.462  0.00  0.00    -0.461 OA
ATOM     14  C   UNL     1      -2.867  -2.045   1.968  0.00  0.00    +0.309 C 
ATOM     15  O   UNL     1      -3.381  -3.127   1.810  0.00  0.00    -0.251 OA
ATOM     16  C   UNL     1      -1.605  -1.774   2.756  0.00  0.00    +0.087 C 
ATOM     17  C   UNL     1       3.006  -0.019   2.471  0.00  0.00    +0.196 C 
ATOM     18  O   UNL     1       2.550   1.167   1.816  0.00  0.00    -0.368 OA
ENDBRANCH   1  16
BRANCH   1  19
ATOM     19  N   UNL     1      -1.917  -3.564   4.398  0.00  0.00    +0.380 N 
ATOM     20  H   UNL     1      -2.692  -3.914   3.857  0.00  0.00    -0.086 HD
ATOM     21  H   UNL     1      -1.062  -3.994   4.079  0.00  0.00    -0.086 HD
BRANCH  19  22
ATOM     22  C   UNL     1      -2.126  -3.883   5.817  0.00  0.00    -0.078 C 
BRANCH  22  23
ATOM     23  C   UNL     1      -2.224  -5.400   5.989  0.00  0.00    +0.018 C 
BRANCH  23  24
ATOM     24  C   UNL     1      -2.439  -5.728   7.444  0.00  0.00    -0.024 A 
ATOM     25  C   UNL     1      -1.490  -6.039   8.341  0.00  0.00    +0.087 A 
ATOM     26  N   UNL     1      -2.060  -6.274   9.562  0.00  0.00    -0.360 N 
ATOM     27  H   UNL     1      -1.576  -6.516  10.367  0.00  0.00    +0.165 HD
ATOM     28  C   UNL     1      -3.428  -6.115   9.478  0.00  0.00    +0.047 A 
ATOM     29  C   UNL     1      -3.722  -5.760   8.149  0.00  0.00    +0.006 A 
ATOM     30  C   UNL     1      -5.045  -5.527   7.766  0.00  0.00    +0.056 A 
ATOM     31  C   UNL     1      -6.056  -5.644   8.699  0.00  0.00    +0.121 A 
ATOM     32  C   UNL     1      -5.761  -5.992  10.014  0.00  0.00    +0.047 A 
ATOM     33  C   UNL     1      -4.461  -6.232  10.402  0.00  0.00    +0.030 A 
BRANCH  31  34
ATOM     34  O   UNL     1      -7.346  -5.418   8.332  0.00  0.00    -0.495 OA
ATOM     35  C   UNL     1      -8.343  -5.557   9.346  0.00  0.00    +0.277 C 
ENDBRANCH  31  34
ENDBRANCH  23  24
ENDBRANCH  22  23
ENDBRANCH  19  22
ENDBRANCH   1  19
TORSDOF 6
