REMARK  Name = ZINC33887630
REMARK  8 active torsions:
REMARK  status: ('A' for Active; 'I' for Inactive)
REMARK    1  A    between atoms: C_4  and  C_7
REMARK    2  A    between atoms: C_7  and  N_8
REMARK    3  A    between atoms: C_15  and  C_27
REMARK    4  A    between atoms: C_17  and  C_23
REMARK    5  A    between atoms: C_17  and  C_25
REMARK    6  A    between atoms: C_18  and  N_22
REMARK    7  A    between atoms: C_19  and  C_20
REMARK    8  A    between atoms: C_30  and  N_32
REMARK                            x       y       z     vdW  Elec       q    Type
REMARK                         _______ _______ _______ _____ _____    ______ ____
ROOT
ATOM      1  N   UNL     1       4.153  -0.953   1.342  0.00  0.00    -0.294 NA
ATOM      2  C   UNL     1       4.492   0.310   2.021  0.00  0.00    +0.112 C 
ATOM      3  C   UNL     1       4.763  -0.010   3.470  0.00  0.00    -0.006 C 
ATOM      4  C   UNL     1       5.308  -1.167   3.799  0.00  0.00    -0.026 C 
ATOM      5  C   UNL     1       5.733  -2.188   2.782  0.00  0.00    +0.045 C 
ATOM      6  C   UNL     1       5.299  -1.866   1.371  0.00  0.00    +0.094 C 
ATOM      7  C   UNL     1       5.228  -3.556   3.244  0.00  0.00    +0.074 C 
ATOM      8  C   UNL     1       5.899  -3.909   4.571  0.00  0.00    +0.189 C 
ATOM      9  C   UNL     1       5.784  -2.796   5.568  0.00  0.00    +0.054 C 
ATOM     10  C   UNL     1       5.521  -1.508   5.227  0.00  0.00    +0.074 C 
ENDROOT
BRANCH   7  11
ATOM     11  C   UNL     1       3.733  -3.506   3.428  0.00  0.00    -0.001 A 
ATOM     12  C   UNL     1       2.773  -4.238   2.813  0.00  0.00    +0.014 A 
ATOM     13  C   UNL     1       1.449  -4.020   3.144  0.00  0.00    +0.041 A 
ATOM     14  C   UNL     1       1.150  -3.080   4.074  0.00  0.00    +0.164 A 
ATOM     15  S   UNL     1       2.769  -2.474   4.519  0.00  0.00    -0.069 S 
BRANCH  14  16
ATOM     16  N   UNL     1      -0.175  -2.668   4.590  0.00  0.00    +0.063 N 
ATOM     17  O   UNL     1      -1.178  -3.197   4.173  0.00  0.00    -0.126 OA
ATOM     18  O   UNL     1      -0.253  -1.801   5.429  0.00  0.00    -0.126 OA
ENDBRANCH  14  16
ENDBRANCH   7  11
BRANCH   9  19
ATOM     19  N   UNL     1       5.953  -3.093   6.891  0.00  0.00    -0.358 N 
ATOM     20  H   UNL     1       6.142  -4.005   7.163  0.00  0.00    +0.142 HD
ATOM     21  H   UNL     1       5.884  -2.392   7.558  0.00  0.00    +0.142 HD
ENDBRANCH   9  19
BRANCH  10  22
ATOM     22  C   UNL     1       5.450  -0.492   6.234  0.00  0.00    +0.101 C 
ATOM     23  N   UNL     1       5.394   0.314   7.032  0.00  0.00    -0.191 NA
ENDBRANCH  10  22
BRANCH   8  24
ATOM     24  C   UNL     1       7.324  -4.190   4.329  0.00  0.00    +0.091 C 
ATOM     25  N   UNL     1       8.423  -4.407   4.142  0.00  0.00    -0.194 NA
ENDBRANCH   8  24
BRANCH   8  26
ATOM     26  C   UNL     1       5.262  -5.115   5.124  0.00  0.00    +0.091 C 
ATOM     27  N   UNL     1       4.770  -6.046   5.551  0.00  0.00    -0.194 NA
ENDBRANCH   8  26
BRANCH   1  28
ATOM     28  C   UNL     1       3.711  -0.707  -0.038  0.00  0.00    +0.120 C 
BRANCH  28  32
ATOM     29  C   UNL     1      -0.017   1.378   0.010  0.00  0.00    +0.000 A 
ATOM     30  C   UNL     1       1.171   2.086   0.002  0.00  0.00    +0.000 A 
ATOM     31  C   UNL     1       2.377   1.411  -0.013  0.00  0.00    +0.005 A 
ATOM     32  C   UNL     1       2.396   0.029  -0.020  0.00  0.00    -0.033 A 
ATOM     33  C   UNL     1       1.208  -0.679  -0.012  0.00  0.00    +0.005 A 
ATOM     34  C   UNL     1       0.002  -0.004   0.002  0.00  0.00    +0.000 A 
ENDBRANCH  28  32
ENDBRANCH   1  28
TORSDOF 8
