REMARK  Name = ZINC06003433
REMARK  9 active torsions:
REMARK  status: ('A' for Active; 'I' for Inactive)
REMARK    1  A    between atoms: C_1  and  C_2
REMARK    2  A    between atoms: C_2  and  C_3
REMARK    3  A    between atoms: C_3  and  C_5
REMARK    4  A    between atoms: C_3  and  S_6
REMARK    5  A    between atoms: S_6  and  C_7
REMARK    6  A    between atoms: C_18  and  C_20
REMARK    7  A    between atoms: C_23  and  C_25
REMARK    8  A    between atoms: C_29  and  C_31
REMARK    9  A    between atoms: C_29  and  C_32
REMARK                            x       y       z     vdW  Elec       q    Type
REMARK                         _______ _______ _______ _____ _____    ______ ____
ROOT
ATOM      1  C   UNL     1      -1.201   1.629   0.017  0.00  0.00    +0.171 A 
ATOM      2  N   UNL     1      -0.011   0.966   0.007  0.00  0.00    -0.302 N 
ATOM      3  H   UNL     1       0.005  -0.134   0.006  0.00  0.00    +0.171 HD
ATOM      4  C   UNL     1       1.149   1.655   0.000  0.00  0.00    +0.258 A 
ATOM      5  O   UNL     1       2.220   1.070  -0.014  0.00  0.00    -0.267 OA
ATOM      6  C   UNL     1       1.101   3.054   0.009  0.00  0.00    +0.072 A 
ATOM      7  C   UNL     1      -0.133   3.680   0.028  0.00  0.00    +0.135 A 
ATOM      8  N   UNL     1      -1.251   2.946   0.032  0.00  0.00    -0.208 NA
ATOM      9  N   UNL     1      -0.201   5.059   0.044  0.00  0.00    -0.302 N 
ATOM     10  C   UNL     1       0.880   5.806   0.428  0.00  0.00    +0.017 C 
ATOM     11  C   UNL     1       2.123   5.278   0.429  0.00  0.00    +0.027 C 
ATOM     12  C   UNL     1       2.368   3.856  -0.006  0.00  0.00    +0.128 C 
ATOM     13  C   UNL     1       3.231   6.040   0.840  0.00  0.00    +0.162 C 
ATOM     14  O   UNL     1       4.338   5.538   0.820  0.00  0.00    -0.292 OA
ATOM     15  C   UNL     1       3.075   7.462   1.302  0.00  0.00    +0.086 C 
ATOM     16  C   UNL     1       1.676   7.642   1.900  0.00  0.00    -0.023 C 
ATOM     17  C   UNL     1       0.644   7.237   0.846  0.00  0.00    +0.058 C 
ATOM     18  C   UNL     1       1.527   6.752   3.136  0.00  0.00    +0.011 C 
ATOM     19  C   UNL     1       1.467   9.106   2.291  0.00  0.00    +0.011 C 
ATOM     20  H   UNL     1      -1.129   5.568  -0.254  0.00  0.00    +0.153 HD
ENDROOT
BRANCH  12  21
ATOM     21  C   UNL     1       2.933   3.859  -1.404  0.00  0.00    +0.117 A 
ATOM     22  C   UNL     1       4.141   3.390  -1.765  0.00  0.00    +0.046 A 
ATOM     23  C   UNL     1       4.258   3.591  -3.160  0.00  0.00    +0.044 A 
ATOM     24  C   UNL     1       3.115   4.171  -3.567  0.00  0.00    +0.102 A 
ATOM     25  O   UNL     1       2.314   4.326  -2.500  0.00  0.00    -0.464 OA
ATOM     26  C   UNL     1       2.785   4.572  -4.982  0.00  0.00    +0.086 C 
ENDBRANCH  12  21
BRANCH   1  27
ATOM     27  S   UNL     1      -2.703   0.708   0.015  0.00  0.00    -0.085 S 
BRANCH  27  28
ATOM     28  C   UNL     1      -3.902   2.063   0.029  0.00  0.00    +0.051 C 
ATOM     29  C   UNL     1      -3.780   2.839   1.342  0.00  0.00    +0.019 C 
BRANCH  28  31
ATOM     30  C   UNL     1      -5.478   0.825  -1.463  0.00  0.00    +0.005 C 
ATOM     31  C   UNL     1      -5.317   1.494  -0.096  0.00  0.00    +0.011 C 
ENDBRANCH  28  31
ENDBRANCH  27  28
ENDBRANCH   1  27
TORSDOF 4
