REMARK  Name = ZINC63993516
REMARK  13 active torsions:
REMARK  status: ('A' for Active; 'I' for Inactive)
REMARK    1  A    between atoms: C_1  and  C_2
REMARK    2  A    between atoms: C_2  and  C_3
REMARK    3  A    between atoms: C_3  and  C_5
REMARK    4  A    between atoms: C_3  and  N_6
REMARK    5  A    between atoms: N_6  and  C_7
REMARK    6  A    between atoms: N_13  and  C_26
REMARK    7  A    between atoms: C_14  and  C_22
REMARK    8  A    between atoms: C_16  and  N_18
REMARK    9  A    between atoms: C_19  and  C_21
REMARK   10  A    between atoms: C_22  and  O_24
REMARK   11  A    between atoms: O_24  and  C_25
REMARK   12  A    between atoms: C_26  and  C_27
REMARK   13  A    between atoms: C_27  and  C_28
REMARK                            x       y       z     vdW  Elec       q    Type
REMARK                         _______ _______ _______ _____ _____    ______ ____
ROOT
ATOM      1  C   UNL     1       0.655  -0.006   3.670  0.00  0.00    +0.044 A 
ATOM      2  C   UNL     1      -0.047   0.341   4.823  0.00  0.00    +0.033 A 
ATOM      3  C   UNL     1       0.652   0.461   6.009  0.00  0.00    +0.015 A 
ATOM      4  C   UNL     1       2.022   0.238   6.034  0.00  0.00    +0.105 A 
ATOM      5  N   UNL     1       2.654  -0.092   4.908  0.00  0.00    -0.348 N 
ATOM      6  C   UNL     1       2.022  -0.221   3.760  0.00  0.00    +0.107 A 
ATOM      7  N   UNL     1       2.543   0.407   7.315  0.00  0.00    -0.301 N 
ATOM      8  C   UNL     1       1.477   0.771   8.251  0.00  0.00    +0.208 C 
ATOM      9  C   UNL     1       0.195   0.815   7.404  0.00  0.00    +0.138 C 
ATOM     10  H   UNL     1       3.612  -0.245   4.936  0.00  0.00    +0.167 HD
ENDROOT
BRANCH   9  11
ATOM     11  N   UNL     1      -0.774  -0.170   7.891  0.00  0.00    -0.306 N 
ATOM     12  C   UNL     1      -2.083  -0.026   7.606  0.00  0.00    +0.210 C 
ATOM     13  O   UNL     1      -2.460   0.920   6.947  0.00  0.00    -0.276 OA
ATOM     14  C   UNL     1      -3.080  -1.039   8.107  0.00  0.00    +0.109 C 
ATOM     15  H   UNL     1      -0.473  -0.927   8.418  0.00  0.00    +0.149 HD
ENDBRANCH   9  11
BRANCH   1  16
ATOM     16  N   UNL     1      -0.008  -0.140   2.444  0.00  0.00    -0.340 N 
ATOM     17  H   UNL     1      -0.965   0.013   2.391  0.00  0.00    +0.146 HD
BRANCH  16  18
ATOM     18  C   UNL     1       0.742  -0.511   1.242  0.00  0.00    +0.067 C 
ATOM     19  C   UNL     1       0.872  -2.034   1.171  0.00  0.00    +0.028 C 
BRANCH  18  21
ATOM     20  C   UNL     1      -0.019   1.526   0.010  0.00  0.00    +0.005 C 
ATOM     21  C   UNL     1       0.002  -0.004   0.002  0.00  0.00    +0.018 C 
ENDBRANCH  18  21
ENDBRANCH  16  18
ENDBRANCH   1  16
BRANCH   8  22
ATOM     22  C   UNL     1       1.355  -0.270   9.335  0.00  0.00    +0.330 C 
ATOM     23  O   UNL     1       1.826  -1.370   9.171  0.00  0.00    -0.249 OA
BRANCH  22  24
ATOM     24  O   UNL     1       0.723   0.026  10.481  0.00  0.00    -0.467 OA
ATOM     25  C   UNL     1       0.645  -1.008  11.464  0.00  0.00    +0.280 C 
ENDBRANCH  22  24
ENDBRANCH   8  22
BRANCH   7  26
ATOM     26  C   UNL     1       3.954   0.243   7.673  0.00  0.00    +0.112 C 
BRANCH  26  27
ATOM     27  C   UNL     1       4.678   1.582   7.520  0.00  0.00    +0.052 C 
BRANCH  27  28
ATOM     28  C   UNL     1       6.130   1.413   7.889  0.00  0.00    -0.040 C 
ATOM     29  C   UNL     1       7.161   1.177   7.046  0.00  0.00    -0.001 A 
ATOM     30  C   UNL     1       7.237   1.010   5.590  0.00  0.00    +0.010 A 
ATOM     31  C   UNL     1       8.440   0.777   5.018  0.00  0.00    +0.001 A 
ATOM     32  C   UNL     1       9.613   0.690   5.780  0.00  0.00    +0.002 A 
ATOM     33  C   UNL     1       9.624   0.832   7.122  0.00  0.00    +0.026 A 
ATOM     34  C   UNL     1       8.415   1.081   7.828  0.00  0.00    +0.043 A 
ATOM     35  N   UNL     1       8.168   1.252   9.104  0.00  0.00    -0.380 N 
ATOM     36  C   UNL     1       6.729   1.481   9.276  0.00  0.00    +0.144 C 
ATOM     37  H   UNL     1       8.827   1.233   9.816  0.00  0.00    +0.160 HD
ENDBRANCH  27  28
ENDBRANCH  26  27
ENDBRANCH   7  26
TORSDOF 9
