REMARK  Name = ZINC38716049
REMARK  6 active torsions:
REMARK  status: ('A' for Active; 'I' for Inactive)
REMARK    1  A    between atoms: C_4  and  C_7
REMARK    2  A    between atoms: C_7  and  N_8
REMARK    3  A    between atoms: C_10  and  C_19
REMARK    4  A    between atoms: C_11  and  C_13
REMARK    5  A    between atoms: C_19  and  N_20
REMARK    6  A    between atoms: C_21  and  C_23
REMARK                            x       y       z     vdW  Elec       q    Type
REMARK                         _______ _______ _______ _____ _____    ______ ____
ROOT
ATOM      1  N   UNL     1       4.089  -1.083   1.150  0.00  0.00    -0.221 NA
ATOM      2  C   UNL     1       5.462  -1.578   1.369  0.00  0.00    +0.140 C 
ATOM      3  C   UNL     1       5.292  -2.773   2.282  0.00  0.00    -0.014 C 
ATOM      4  C   UNL     1       3.987  -2.893   2.515  0.00  0.00    +0.051 C 
ATOM      5  N   UNL     1       3.264  -1.908   1.858  0.00  0.00    -0.277 N 
ATOM      6  H   UNL     1       2.299  -1.818   1.897  0.00  0.00    +0.166 HD
ENDROOT
BRANCH   4   7
ATOM      7  C   UNL     1       3.384  -3.944   3.368  0.00  0.00    -0.003 A 
ATOM      8  C   UNL     1       2.429  -3.606   4.325  0.00  0.00    +0.010 A 
ATOM      9  C   UNL     1       1.870  -4.589   5.116  0.00  0.00    +0.001 A 
ATOM     10  C   UNL     1       2.257  -5.908   4.960  0.00  0.00    +0.000 A 
ATOM     11  C   UNL     1       3.204  -6.250   4.012  0.00  0.00    +0.001 A 
ATOM     12  C   UNL     1       3.766  -5.276   3.212  0.00  0.00    +0.010 A 
ENDBRANCH   4   7
BRANCH   1  13
ATOM     13  C   UNL     1       3.746  -1.095  -0.278  0.00  0.00    +0.141 C 
BRANCH  13  17
ATOM     14  C   UNL     1      -0.159   0.549  -0.822  0.00  0.00    +0.000 A 
ATOM     15  C   UNL     1       0.950   1.374  -0.857  0.00  0.00    +0.000 A 
ATOM     16  C   UNL     1       2.213   0.842  -0.681  0.00  0.00    +0.005 A 
ATOM     17  C   UNL     1       2.369  -0.515  -0.469  0.00  0.00    -0.032 A 
ATOM     18  C   UNL     1       1.260  -1.340  -0.434  0.00  0.00    +0.005 A 
ATOM     19  C   UNL     1      -0.003  -0.809  -0.612  0.00  0.00    +0.000 A 
ENDBRANCH  13  17
ENDBRANCH   1  13
BRANCH   3  20
ATOM     20  C   UNL     1       6.388  -3.656   2.821  0.00  0.00    +0.138 C 
BRANCH  20  21
ATOM     21  N   UNL     1       6.714  -4.688   1.833  0.00  0.00    -0.306 N 
ATOM     22  C   UNL     1       7.673  -5.597   2.099  0.00  0.00    +0.265 C 
ATOM     23  O   UNL     1       8.266  -5.561   3.160  0.00  0.00    -0.268 OA
ATOM     24  H   UNL     1       6.241  -4.716   0.987  0.00  0.00    +0.149 HD
BRANCH  22  25
ATOM     25  C   UNL     1       8.001  -6.635   1.106  0.00  0.00    +0.154 A 
ATOM     26  C   UNL     1       9.011  -7.693   1.238  0.00  0.00    +0.032 A 
ATOM     27  C   UNL     1       9.925  -8.075   2.216  0.00  0.00    +0.012 A 
ATOM     28  C   UNL     1      10.741  -9.150   1.995  0.00  0.00    +0.001 A 
ATOM     29  C   UNL     1      10.666  -9.860   0.804  0.00  0.00    +0.002 A 
ATOM     30  C   UNL     1       9.769  -9.498  -0.176  0.00  0.00    +0.028 A 
ATOM     31  C   UNL     1       8.929  -8.409   0.028  0.00  0.00    +0.066 A 
ATOM     32  N   UNL     1       7.952  -7.793  -0.710  0.00  0.00    -0.276 N 
ATOM     33  N   UNL     1       7.443  -6.801  -0.074  0.00  0.00    -0.168 NA
ATOM     34  H   UNL     1       7.676  -8.074  -1.597  0.00  0.00    +0.189 HD
ENDBRANCH  22  25
ENDBRANCH  20  21
ENDBRANCH   3  20
TORSDOF 6
