REMARK  Name = ZINC09090149
REMARK  4 active torsions:
REMARK  status: ('A' for Active; 'I' for Inactive)
REMARK    1  A    between atoms: C_1  and  C_2
REMARK    2  A    between atoms: N_10  and  C_11
REMARK    3  A    between atoms: C_11  and  C_13
REMARK    4  A    between atoms: C_20  and  C_24
REMARK                            x       y       z     vdW  Elec       q    Type
REMARK                         _______ _______ _______ _____ _____    ______ ____
ROOT
ATOM      1  C   UNL     1       0.100  -6.317   3.043  0.00  0.00    +0.305 C 
ATOM      2  O   UNL     1       0.093  -5.450   3.899  0.00  0.00    -0.265 OA
ENDROOT
BRANCH   1   3
ATOM      3  C   UNL     1       0.121  -7.747   3.436  0.00  0.00    +0.196 A 
ATOM      4  C   UNL     1       0.126  -8.059   4.754  0.00  0.00    +0.103 A 
ATOM      5  C   UNL     1       0.145  -9.426   5.150  0.00  0.00    +0.193 A 
ATOM      6  O   UNL     1       0.150  -9.746   6.326  0.00  0.00    -0.287 OA
ATOM      7  C   UNL     1       0.159 -10.439   4.078  0.00  0.00    +0.065 A 
ATOM      8  C   UNL     1       0.178 -11.803   4.368  0.00  0.00    +0.035 A 
ATOM      9  C   UNL     1       0.190 -12.718   3.337  0.00  0.00    +0.045 A 
ATOM     10  C   UNL     1       0.183 -12.285   2.017  0.00  0.00    -0.029 A 
ATOM     11  C   UNL     1       0.165 -10.940   1.718  0.00  0.00    +0.051 A 
ATOM     12  C   UNL     1       0.152 -10.001   2.743  0.00  0.00    +0.140 A 
ATOM     13  O   UNL     1       0.128  -8.680   2.472  0.00  0.00    -0.450 OA
ATOM     14  C   UNL     1       0.197 -13.296   0.901  0.00  0.00    +0.045 C 
ATOM     15 CL   UNL     1       0.214 -14.417   3.689  0.00  0.00    -0.083 Cl
ENDBRANCH   1   3
BRANCH   1  25
ATOM     16  C   UNL     1      -0.018   1.503   0.010  0.00  0.00    +0.044 C 
ATOM     17  C   UNL     1       0.002  -0.004   0.002  0.00  0.00    -0.049 A 
ATOM     18  C   UNL     1       0.006  -0.697  -1.197  0.00  0.00    +0.005 A 
ATOM     19  C   UNL     1       0.024  -2.072  -1.226  0.00  0.00    +0.027 A 
ATOM     20  C   UNL     1       0.039  -2.810  -0.034  0.00  0.00    +0.055 A 
ATOM     21  C   UNL     1       0.035  -2.084   1.166  0.00  0.00    +0.039 A 
ATOM     22  C   UNL     1       0.023  -0.709   1.192  0.00  0.00    +0.020 A 
ATOM     23  S   UNL     1       0.058  -3.352   2.405  0.00  0.00    -0.052 S 
ATOM     24  C   UNL     1       0.071  -4.698   1.398  0.00  0.00    +0.164 A 
ATOM     25  N   UNL     1       0.090  -5.981   1.751  0.00  0.00    -0.150 NA
ATOM     26  N   UNL     1       0.058  -4.180   0.143  0.00  0.00    -0.335 N 
ATOM     27  H   UNL     1       0.062  -4.770  -0.626  0.00  0.00    +0.168 HD
ENDBRANCH   1  25
TORSDOF 2
