REMARK  Name = ZINC02310994
REMARK  9 active torsions:
REMARK  status: ('A' for Active; 'I' for Inactive)
REMARK    1  A    between atoms: C_1  and  C_2
REMARK    2  A    between atoms: C_2  and  O_3
REMARK    3  A    between atoms: O_3  and  C_4
REMARK    4  A    between atoms: C_4  and  C_6
REMARK    5  A    between atoms: C_7  and  N_17
REMARK    6  A    between atoms: C_18  and  C_20
REMARK    7  A    between atoms: C_20  and  C_22
REMARK    8  A    between atoms: C_20  and  N_59
REMARK    9  A    between atoms: N_25  and  C_28
REMARK                            x       y       z     vdW  Elec       q    Type
REMARK                         _______ _______ _______ _____ _____    ______ ____
ROOT
ATOM      1  N   UNL     1      -2.564  -2.746  -0.814  0.00  0.00    -0.284 N 
ATOM      2  C   UNL     1      -1.838  -1.960   0.005  0.00  0.00    +0.203 C 
ATOM      3  O   UNL     1      -1.161  -2.457   0.880  0.00  0.00    -0.277 OA
ATOM      4  H   UNL     1      -3.177  -2.347  -1.451  0.00  0.00    +0.155 HD
ENDROOT
BRANCH   1   6
ATOM      5  C   UNL     1      -3.422  -5.034  -0.412  0.00  0.00    +0.147 A 
ATOM      6  C   UNL     1      -2.435  -4.129  -0.746  0.00  0.00    +0.073 A 
ATOM      7  C   UNL     1      -1.226  -4.910  -1.019  0.00  0.00    +0.024 A 
ATOM      8  C   UNL     1       0.074  -4.566  -1.403  0.00  0.00    +0.050 A 
ATOM      9  C   UNL     1       1.014  -5.555  -1.587  0.00  0.00    +0.124 A 
ATOM     10  C   UNL     1       0.676  -6.891  -1.393  0.00  0.00    +0.040 A 
ATOM     11  C   UNL     1      -0.597  -7.244  -1.008  0.00  0.00    +0.029 A 
ATOM     12  C   UNL     1      -1.566  -6.261  -0.820  0.00  0.00    +0.049 A 
ATOM     13  N   UNL     1      -2.893  -6.315  -0.459  0.00  0.00    -0.348 N 
ATOM     14  H   UNL     1      -3.385  -7.128  -0.266  0.00  0.00    +0.166 HD
ATOM     15  F   UNL     1       2.271  -5.227  -1.957  0.00  0.00    -0.205 F 
BRANCH   5  16
ATOM     16  C   UNL     1      -4.761  -4.706  -0.076  0.00  0.00    +0.358 C 
ATOM     17  O   UNL     1      -5.082  -3.543   0.078  0.00  0.00    -0.243 OA
BRANCH  16  18
ATOM     18  O   UNL     1      -5.678  -5.685   0.074  0.00  0.00    -0.460 OA
BRANCH  18  20
ATOM     19  C   UNL     1      -7.897  -6.520   0.539  0.00  0.00    +0.048 C 
ATOM     20  C   UNL     1      -7.006  -5.283   0.413  0.00  0.00    +0.229 C 
ENDBRANCH  18  20
ENDBRANCH  16  18
ENDBRANCH   5  16
ENDBRANCH   1   6
BRANCH   2  21
ATOM     21  C   UNL     1      -1.867  -0.463  -0.166  0.00  0.00    +0.017 C 
ATOM     22  C   UNL     1      -3.300   0.043   0.011  0.00  0.00    -0.004 C 
BRANCH  21  28
ATOM     23  C   UNL     1      -0.908   1.614   0.630  0.00  0.00    -0.059 C 
ATOM     24  C   UNL     1       0.065   2.214   1.648  0.00  0.00    +0.086 C 
ATOM     25  N   UNL     1      -0.403   1.910   3.007  0.00  0.00    -0.331 N 
ATOM     26  C   UNL     1      -0.493   0.459   3.218  0.00  0.00    +0.086 C 
ATOM     27  C   UNL     1      -1.466  -0.142   2.200  0.00  0.00    -0.059 C 
ATOM     28  N   UNL     1      -0.973   0.152   0.838  0.00  0.00    +0.389 N 
ATOM     29  H   UNL     1      -0.031  -0.242   0.732  0.00  0.00    -0.081 HD
BRANCH  25  30
ATOM     30  C   UNL     1       0.424   2.505   3.966  0.00  0.00    +0.065 A 
ATOM     31  C   UNL     1       1.752   2.118   4.076  0.00  0.00    +0.026 A 
ATOM     32  C   UNL     1       2.567   2.710   5.021  0.00  0.00    +0.002 A 
ATOM     33  C   UNL     1       2.059   3.681   5.865  0.00  0.00    +0.003 A 
ATOM     34  C   UNL     1       0.735   4.067   5.762  0.00  0.00    +0.040 A 
ATOM     35  C   UNL     1      -0.085   3.482   4.815  0.00  0.00    +0.144 A 
ATOM     36  F   UNL     1      -1.379   3.857   4.716  0.00  0.00    -0.204 F 
ENDBRANCH  25  30
ENDBRANCH  21  28
ENDBRANCH   2  21
TORSDOF 7
