REMARK  Name = ZINC63488761
REMARK  7 active torsions:
REMARK  status: ('A' for Active; 'I' for Inactive)
REMARK    1  A    between atoms: C_1  and  C_2
REMARK    2  A    between atoms: C_5  and  C_8
REMARK    3  A    between atoms: C_8  and  C_9
REMARK    4  A    between atoms: N_11  and  C_12
REMARK    5  A    between atoms: C_12  and  C_13
REMARK    6  A    between atoms: C_12  and  C_14
REMARK    7  A    between atoms: C_18  and  C_20
REMARK                            x       y       z     vdW  Elec       q    Type
REMARK                         _______ _______ _______ _____ _____    ______ ____
ROOT
ATOM      1  C   UNL     1       3.137  -6.551  -0.051  0.00  0.00    +0.134 C 
ATOM      2  C   UNL     1       3.653  -6.588  -1.491  0.00  0.00    +0.036 C 
ENDROOT
BRANCH   1   3
ATOM      3  C   UNL     1       3.203  -7.936   0.542  0.00  0.00    +0.105 A 
ATOM      4  N   UNL     1       2.220  -8.860   0.485  0.00  0.00    -0.348 N 
ATOM      5  H   UNL     1       1.354  -8.753   0.060  0.00  0.00    +0.167 HD
ATOM      6  C   UNL     1       2.668  -9.975   1.137  0.00  0.00    +0.110 A 
ATOM      7  C   UNL     1       3.923  -9.693   1.575  0.00  0.00    +0.064 A 
ATOM      8  N   UNL     1       4.219  -8.435   1.186  0.00  0.00    -0.342 N 
ATOM      9  H   UNL     1       5.055  -7.976   1.361  0.00  0.00    +0.167 HD
BRANCH   7  10
ATOM     10  C   UNL     1       4.810 -10.605   2.337  0.00  0.00    -0.000 A 
ATOM     11  C   UNL     1       6.078 -10.181   2.730  0.00  0.00    +0.010 A 
ATOM     12  C   UNL     1       6.899 -11.034   3.439  0.00  0.00    +0.001 A 
ATOM     13  C   UNL     1       6.466 -12.309   3.759  0.00  0.00    +0.000 A 
ATOM     14  C   UNL     1       5.208 -12.735   3.371  0.00  0.00    +0.001 A 
ATOM     15  C   UNL     1       4.377 -11.888   2.668  0.00  0.00    +0.010 A 
ENDBRANCH   7  10
ENDBRANCH   1   3
BRANCH   1  18
ATOM     16  C   UNL     1       1.487  -4.759  -0.032  0.00  0.00    +0.218 C 
ATOM     17  O   UNL     1       2.398  -3.959  -0.033  0.00  0.00    -0.275 OA
ATOM     18  N   UNL     1       1.750  -6.081  -0.041  0.00  0.00    -0.306 N 
ATOM     19  H   UNL     1       1.021  -6.721  -0.040  0.00  0.00    +0.149 HD
BRANCH  16  20
ATOM     20  C   UNL     1       0.059  -4.275  -0.021  0.00  0.00    +0.130 C 
BRANCH  20  25
ATOM     21  C   UNL     1      -0.018   1.503   0.010  0.00  0.00    +0.044 C 
ATOM     22  C   UNL     1       0.002  -0.004   0.002  0.00  0.00    -0.050 A 
ATOM     23  C   UNL     1       0.006  -0.689  -1.199  0.00  0.00    +0.003 A 
ATOM     24  C   UNL     1       0.025  -2.071  -1.206  0.00  0.00    +0.004 A 
ATOM     25  C   UNL     1       0.040  -2.768  -0.013  0.00  0.00    -0.039 A 
ATOM     26  C   UNL     1       0.037  -2.084   1.188  0.00  0.00    +0.004 A 
ATOM     27  C   UNL     1       0.023  -0.702   1.195  0.00  0.00    +0.003 A 
ENDBRANCH  20  25
ENDBRANCH  16  20
ENDBRANCH   1  18
TORSDOF 5
