REMARK  Name = ZINC39552554
REMARK  8 active torsions:
REMARK  status: ('A' for Active; 'I' for Inactive)
REMARK    1  A    between atoms: C_4  and  C_7
REMARK    2  A    between atoms: C_10  and  C_13
REMARK    3  A    between atoms: C_13  and  N_14
REMARK    4  A    between atoms: C_15  and  C_17
REMARK    5  A    between atoms: C_17  and  C_18
REMARK    6  A    between atoms: C_18  and  C_19
REMARK    7  A    between atoms: C_19  and  C_25
REMARK    8  A    between atoms: C_25  and  C_26
REMARK                            x       y       z     vdW  Elec       q    Type
REMARK                         _______ _______ _______ _____ _____    ______ ____
ROOT
ATOM      1  C   UNL     1       1.668  -6.348   3.143  0.00  0.00    +0.098 C 
ENDROOT
BRANCH   1   3
ATOM      2  N   UNL     1       2.609  -4.650   1.610  0.00  0.00    -0.310 N 
ATOM      3  C   UNL     1       2.804  -5.495   2.643  0.00  0.00    +0.213 C 
ATOM      4  O   UNL     1       3.895  -5.567   3.169  0.00  0.00    -0.276 OA
ATOM      5  H   UNL     1       1.737  -4.593   1.190  0.00  0.00    +0.149 HD
BRANCH   2   6
ATOM      6  C   UNL     1       3.713  -3.820   1.124  0.00  0.00    +0.161 C 
BRANCH   6   9
ATOM      7  C   UNL     1       2.629  -1.284  -1.384  0.00  0.00    +0.153 C 
ATOM      8  C   UNL     1       3.159  -1.641  -0.007  0.00  0.00    +0.030 C 
ATOM      9  C   UNL     1       3.236  -2.973  -0.027  0.00  0.00    +0.076 C 
ATOM     10  N   UNL     1       2.827  -3.459  -1.220  0.00  0.00    -0.181 NA
ATOM     11  N   UNL     1       2.475  -2.596  -2.034  0.00  0.00    -0.297 N 
ATOM     12  H   UNL     1       2.154  -2.754  -2.936  0.00  0.00    +0.183 HD
BRANCH   7  16
ATOM     13  C   UNL     1      -1.140   0.705  -1.087  0.00  0.00    +0.000 A 
ATOM     14  C   UNL     1       0.009   1.434  -1.334  0.00  0.00    +0.000 A 
ATOM     15  C   UNL     1       1.228   0.790  -1.431  0.00  0.00    +0.006 A 
ATOM     16  C   UNL     1       1.300  -0.582  -1.278  0.00  0.00    -0.020 A 
ATOM     17  C   UNL     1       0.151  -1.310  -1.030  0.00  0.00    +0.006 A 
ATOM     18  C   UNL     1      -1.068  -0.667  -0.935  0.00  0.00    +0.000 A 
ENDBRANCH   7  16
ENDBRANCH   6   9
ENDBRANCH   2   6
ENDBRANCH   1   3
BRANCH   1  19
ATOM     19  C   UNL     1       2.153  -7.209   4.312  0.00  0.00    +0.035 C 
BRANCH  19  20
ATOM     20  C   UNL     1       0.979  -8.012   4.875  0.00  0.00    +0.039 C 
ATOM     21  C   UNL     1       1.480  -9.022   5.932  0.00  0.00    +0.035 C 
ATOM     22  C   UNL     1       1.684 -10.295   5.079  0.00  0.00    +0.098 C 
ATOM     23  C   UNL     1       0.748 -10.110   3.905  0.00  0.00    +0.214 C 
ATOM     24  O   UNL     1       0.395 -10.992   3.152  0.00  0.00    -0.276 OA
ATOM     25  N   UNL     1       0.365  -8.824   3.818  0.00  0.00    -0.309 N 
ATOM     26  H   UNL     1      -0.239  -8.478   3.143  0.00  0.00    +0.149 HD
BRANCH  20  27
ATOM     27  C   UNL     1      -0.059  -7.071   5.490  0.00  0.00    +0.061 C 
BRANCH  27  28
ATOM     28  C   UNL     1      -1.260  -7.867   5.933  0.00  0.00    -0.042 A 
ATOM     29  C   UNL     1      -2.251  -8.183   5.023  0.00  0.00    +0.007 A 
ATOM     30  C   UNL     1      -3.354  -8.914   5.424  0.00  0.00    +0.050 A 
ATOM     31  C   UNL     1      -3.468  -9.331   6.740  0.00  0.00    +0.166 A 
ATOM     32  C   UNL     1      -2.469  -9.013   7.656  0.00  0.00    +0.166 A 
ATOM     33  C   UNL     1      -1.364  -8.286   7.246  0.00  0.00    +0.053 A 
ATOM     34  O   UNL     1      -2.811  -9.532   8.872  0.00  0.00    -0.453 OA
ATOM     35  C   UNL     1      -4.219  -9.818   8.786  0.00  0.00    +0.466 C 
ATOM     36  O   UNL     1      -4.436 -10.050   7.381  0.00  0.00    -0.453 OA
ENDBRANCH  27  28
ENDBRANCH  20  27
ENDBRANCH  19  20
ENDBRANCH   1  19
TORSDOF 8
