REMARK  Name = ZINC58846529
REMARK  6 active torsions:
REMARK  status: ('A' for Active; 'I' for Inactive)
REMARK    1  A    between atoms: C_1  and  C_2
REMARK    2  A    between atoms: C_5  and  N_9
REMARK    3  A    between atoms: C_7  and  C_8
REMARK    4  A    between atoms: N_9  and  S_10
REMARK    5  A    between atoms: S_10  and  C_13
REMARK    6  A    between atoms: C_26  and  C_29
REMARK                            x       y       z     vdW  Elec       q    Type
REMARK                         _______ _______ _______ _____ _____    ______ ____
ROOT
ATOM      1  C   UNL     1       2.725  -4.602  -0.542  0.00  0.00    +0.109 A 
ATOM      2  C   UNL     1       3.377  -3.506  -1.079  0.00  0.00    +0.030 A 
ATOM      3  C   UNL     1       4.669  -3.220  -0.689  0.00  0.00    +0.025 A 
ATOM      4  C   UNL     1       5.313  -4.027   0.242  0.00  0.00    +0.031 A 
ATOM      5  C   UNL     1       4.657  -5.118   0.791  0.00  0.00    -0.018 A 
ATOM      6  C   UNL     1       3.358  -5.399   0.389  0.00  0.00    +0.034 A 
ATOM      7  C   UNL     1       5.299  -5.984   1.821  0.00  0.00    +0.049 C 
ATOM      8  C   UNL     1       5.763  -7.299   1.249  0.00  0.00    -0.023 C 
ATOM      9  C   UNL     1       6.883  -7.671   1.817  0.00  0.00    -0.030 C 
ATOM     10  C   UNL     1       7.330  -6.655   2.846  0.00  0.00    +0.033 C 
ATOM     11  C   UNL     1       6.542  -5.378   2.472  0.00  0.00    +0.029 C 
ATOM     12  C   UNL     1       7.391  -4.560   1.521  0.00  0.00    +0.105 C 
ATOM     13  N   UNL     1       6.621  -3.737   0.611  0.00  0.00    -0.336 N 
ATOM     14  H   UNL     1       7.047  -2.958   0.222  0.00  0.00    +0.147 HD
ENDROOT
BRANCH  12  15
ATOM     15  C   UNL     1       8.270  -5.499   0.736  0.00  0.00    -0.026 A 
ATOM     16  C   UNL     1       7.756  -6.179  -0.353  0.00  0.00    +0.005 A 
ATOM     17  C   UNL     1       8.562  -7.040  -1.074  0.00  0.00    +0.001 A 
ATOM     18  C   UNL     1       9.882  -7.222  -0.706  0.00  0.00    +0.015 A 
ATOM     19  C   UNL     1      10.397  -6.541   0.382  0.00  0.00    +0.018 A 
ATOM     20  C   UNL     1       9.591  -5.676   1.100  0.00  0.00    +0.020 A 
ATOM     21 BR   UNL     1      12.203  -6.790   0.886  0.00  0.00    -0.050 Br
ENDBRANCH  12  15
BRANCH   1  22
ATOM     22  S   UNL     1       1.078  -4.976  -1.044  0.00  0.00    +0.072 S 
ATOM     23  O   UNL     1       0.884  -6.362  -0.799  0.00  0.00    -0.150 OA
ATOM     24  O   UNL     1       0.904  -4.399  -2.331  0.00  0.00    -0.150 OA
BRANCH  22  25
ATOM     25  N   UNL     1       0.058  -4.167  -0.021  0.00  0.00    -0.216 N 
ATOM     26  H   UNL     1      -0.526  -4.663   0.573  0.00  0.00    +0.174 HD
BRANCH  25  31
ATOM     27  C   UNL     1      -0.018   1.503   0.010  0.00  0.00    +0.044 C 
ATOM     28  C   UNL     1       0.002  -0.004   0.002  0.00  0.00    -0.047 A 
ATOM     29  C   UNL     1       0.006  -0.687  -1.200  0.00  0.00    +0.005 A 
ATOM     30  C   UNL     1       0.024  -2.068  -1.212  0.00  0.00    +0.025 A 
ATOM     31  C   UNL     1       0.040  -2.771  -0.013  0.00  0.00    +0.048 A 
ATOM     32  C   UNL     1       0.036  -2.081   1.192  0.00  0.00    +0.028 A 
ATOM     33  C   UNL     1       0.023  -0.700   1.196  0.00  0.00    -0.046 A 
ATOM     34  C   UNL     1       0.025   0.049   2.504  0.00  0.00    +0.044 C 
ENDBRANCH  25  31
ENDBRANCH  22  25
ENDBRANCH   1  22
TORSDOF 4
