REMARK  Name = ZINC04697284
REMARK  7 active torsions:
REMARK  status: ('A' for Active; 'I' for Inactive)
REMARK    1  A    between atoms: C_1  and  C_2
REMARK    2  A    between atoms: C_2  and  C_19
REMARK    3  A    between atoms: N_3  and  N_4
REMARK    4  A    between atoms: C_5  and  C_7
REMARK    5  A    between atoms: C_7  and  C_18
REMARK    6  A    between atoms: C_15  and  C_16
REMARK    7  A    between atoms: C_15  and  C_17
REMARK                            x       y       z     vdW  Elec       q    Type
REMARK                         _______ _______ _______ _____ _____    ______ ____
ROOT
ATOM      1  C   UNL     1       2.492   4.005  -0.008  0.00  0.00    +0.035 C 
ATOM      2  C   UNL     1       1.201   3.229   0.018  0.00  0.00    -0.047 A 
ATOM      3  C   UNL     1       0.007   3.935   0.041  0.00  0.00    +0.003 A 
ATOM      4  C   UNL     1      -1.199   3.264   0.060  0.00  0.00    +0.000 A 
ATOM      5  C   UNL     1      -1.219   1.882   0.051  0.00  0.00    +0.000 A 
ATOM      6  C   UNL     1      -0.032   1.178   0.035  0.00  0.00    +0.004 A 
ATOM      7  C   UNL     1       1.181   1.851   0.017  0.00  0.00    -0.046 A 
ATOM      8  C   UNL     1       2.452   1.041   0.004  0.00  0.00    +0.022 C 
ATOM      9  C   UNL     1       3.627   1.920  -0.427  0.00  0.00    -0.068 C 
ATOM     10  C   UNL     1       3.483   2.281  -1.907  0.00  0.00    -0.010 C 
ATOM     11  C   UNL     1       4.942   1.171  -0.206  0.00  0.00    -0.010 C 
ATOM     12  C   UNL     1       2.392   5.184   0.961  0.00  0.00    +0.004 C 
ATOM     13  N   UNL     1       3.618   3.149   0.389  0.00  0.00    +0.395 N 
ATOM     14  H   UNL     1       3.522   2.899   1.380  0.00  0.00    -0.083 HD
ATOM     15  H   UNL     1       4.499   3.657   0.248  0.00  0.00    -0.083 HD
ENDROOT
BRANCH   1  17
ATOM     16  N   UNL     1       3.984   4.800  -1.814  0.00  0.00    -0.208 N 
ATOM     17  C   UNL     1       2.730   4.529  -1.401  0.00  0.00    +0.225 C 
ATOM     18  O   UNL     1       1.793   4.708  -2.150  0.00  0.00    -0.275 OA
ATOM     19  H   UNL     1       4.733   4.657  -1.215  0.00  0.00    +0.177 HD
BRANCH  16  22
ATOM     20  C   UNL     1       6.577   5.326  -2.575  0.00  0.00    +0.068 C 
ATOM     21  C   UNL     1       5.413   5.548  -3.506  0.00  0.00    +0.063 C 
ATOM     22  N   UNL     1       4.205   5.287  -3.109  0.00  0.00    -0.185 NA
BRANCH  21  23
ATOM     23  C   UNL     1       5.646   6.061  -4.869  0.00  0.00    -0.003 A 
ATOM     24  C   UNL     1       6.943   6.348  -5.299  0.00  0.00    +0.010 A 
ATOM     25  C   UNL     1       7.154   6.822  -6.577  0.00  0.00    +0.001 A 
ATOM     26  C   UNL     1       6.083   7.025  -7.428  0.00  0.00    +0.000 A 
ATOM     27  C   UNL     1       4.794   6.748  -7.008  0.00  0.00    +0.001 A 
ATOM     28  C   UNL     1       4.569   6.268  -5.735  0.00  0.00    +0.010 A 
ENDBRANCH  21  23
ENDBRANCH  16  22
ENDBRANCH   1  17
TORSDOF 3
