REMARK  Name = ZINC29467831
REMARK  5 active torsions:
REMARK  status: ('A' for Active; 'I' for Inactive)
REMARK    1  A    between atoms: C_1  and  C_2
REMARK    2  A    between atoms: C_7  and  C_13
REMARK    3  A    between atoms: C_13  and  S_14
REMARK    4  A    between atoms: S_14  and  C_15
REMARK    5  A    between atoms: N_16  and  C_17
REMARK                            x       y       z     vdW  Elec       q    Type
REMARK                         _______ _______ _______ _____ _____    ______ ____
ROOT
ATOM      1  C   UNL     1      -1.345  -8.670   0.629  0.00  0.00    +0.130 C 
ATOM      2  N   UNL     1      -2.444  -9.459   0.371  0.00  0.00    -0.296 N 
ATOM      3  N   UNL     1      -0.205  -9.222   0.941  0.00  0.00    -0.381 N 
ATOM      4  H   UNL     1      -0.111 -10.187   0.917  0.00  0.00    +0.158 HD
ATOM      5  H   UNL     1       0.548  -8.666   1.197  0.00  0.00    +0.158 HD
ATOM      6  H   UNL     1      -2.495 -10.355   0.741  0.00  0.00    +0.154 HD
ENDROOT
BRANCH   2   7
ATOM      7  C   UNL     1      -3.487  -8.969  -0.425  0.00  0.00    +0.036 A 
ATOM      8  C   UNL     1      -4.795  -9.363  -0.175  0.00  0.00    +0.027 A 
ATOM      9  C   UNL     1      -5.824  -8.880  -0.960  0.00  0.00    +0.051 A 
ATOM     10  C   UNL     1      -5.555  -8.002  -1.999  0.00  0.00    +0.162 A 
ATOM     11  C   UNL     1      -4.247  -7.604  -2.250  0.00  0.00    +0.164 A 
ATOM     12  C   UNL     1      -3.215  -8.086  -1.460  0.00  0.00    +0.072 A 
ATOM     13  O   UNL     1      -3.965  -6.737  -3.260  0.00  0.00    -0.485 OA
ATOM     14  C   UNL     1      -4.974  -6.563  -4.261  0.00  0.00    +0.270 C 
ATOM     15  C   UNL     1      -6.323  -6.374  -3.555  0.00  0.00    +0.270 C 
ATOM     16  O   UNL     1      -6.582  -7.540  -2.765  0.00  0.00    -0.485 OA
ENDBRANCH   2   7
BRANCH   1  17
ATOM     17  S   UNL     1      -1.480  -6.916   0.536  0.00  0.00    -0.086 S 
BRANCH  17  18
ATOM     18  C   UNL     1       0.186  -6.326   0.947  0.00  0.00    +0.132 C 
BRANCH  18  25
ATOM     19  C   UNL     1       0.298   1.385  -0.546  0.00  0.00    +0.045 C 
ATOM     20  C   UNL     1       0.274  -0.120  -0.478  0.00  0.00    -0.034 A 
ATOM     21  C   UNL     1       0.251  -0.873  -1.661  0.00  0.00    +0.008 A 
ATOM     22  C   UNL     1       0.230  -2.233  -1.591  0.00  0.00    +0.047 A 
ATOM     23  C   UNL     1       0.231  -2.862  -0.332  0.00  0.00    +0.141 A 
ATOM     24  N   UNL     1       0.210  -4.191  -0.262  0.00  0.00    -0.233 NA
ATOM     25  C   UNL     1       0.210  -4.820   0.903  0.00  0.00    +0.059 A 
ATOM     26  C   UNL     1       0.232  -4.096   2.080  0.00  0.00    +0.094 A 
ATOM     27  C   UNL     1       0.254  -2.698   2.014  0.00  0.00    +0.259 A 
ATOM     28  O   UNL     1       0.274  -2.029   3.035  0.00  0.00    -0.267 OA
ATOM     29  N   UNL     1       0.254  -2.100   0.803  0.00  0.00    -0.268 N 
ATOM     30  C   UNL     1       0.280  -0.741   0.722  0.00  0.00    +0.099 A 
ENDBRANCH  18  25
ENDBRANCH  17  18
ENDBRANCH   1  17
TORSDOF 4
