REMARK  Name = ZINC14066938
REMARK  9 active torsions:
REMARK  status: ('A' for Active; 'I' for Inactive)
REMARK    1  A    between atoms: C_1  and  C_2
REMARK    2  A    between atoms: C_5  and  C_8
REMARK    3  A    between atoms: C_10  and  S_14
REMARK    4  A    between atoms: S_14  and  C_15
REMARK    5  A    between atoms: C_15  and  C_16
REMARK    6  A    between atoms: C_19  and  C_32
REMARK    7  A    between atoms: C_22  and  C_24
REMARK    8  A    between atoms: C_27  and  O_30
REMARK    9  A    between atoms: O_30  and  C_31
REMARK                            x       y       z     vdW  Elec       q    Type
REMARK                         _______ _______ _______ _____ _____    ______ ____
ROOT
ATOM      1  C   UNL     1      -5.121   2.587   0.037  0.00  0.00    +0.246 C 
ATOM      2  O   UNL     1      -5.565   1.457   0.034  0.00  0.00    -0.273 OA
ATOM      3  N   UNL     1      -5.962   3.640   0.046  0.00  0.00    -0.181 N 
ATOM      4  C   UNL     1      -7.431   3.563   0.046  0.00  0.00    +0.173 C 
ATOM      5  C   UNL     1      -7.871   5.040   0.062  0.00  0.00    +0.090 C 
ATOM      6  C   UNL     1      -6.568   5.808   0.060  0.00  0.00    +0.069 C 
ATOM      7  N   UNL     1      -5.581   4.981   0.051  0.00  0.00    -0.181 NA
ENDROOT
BRANCH   6   8
ATOM      8  C   UNL     1      -6.447   7.277   0.067  0.00  0.00    -0.002 A 
ATOM      9  C   UNL     1      -7.594   8.075   0.071  0.00  0.00    +0.013 A 
ATOM     10  C   UNL     1      -7.475   9.448   0.082  0.00  0.00    +0.046 A 
ATOM     11  C   UNL     1      -6.218  10.039   0.080  0.00  0.00    +0.120 A 
ATOM     12  C   UNL     1      -5.075   9.250   0.070  0.00  0.00    +0.046 A 
ATOM     13  C   UNL     1      -5.184   7.876   0.064  0.00  0.00    +0.013 A 
BRANCH  11  14
ATOM     14  O   UNL     1      -6.106  11.393   0.086  0.00  0.00    -0.495 OA
ATOM     15  C   UNL     1      -7.322  12.144   0.096  0.00  0.00    +0.277 C 
ENDBRANCH  11  14
ENDBRANCH   6   8
BRANCH   4  16
ATOM     16  C   UNL     1      -7.925   2.853   1.280  0.00  0.00    +0.128 A 
ATOM     17  C   UNL     1      -8.957   1.991   1.332  0.00  0.00    +0.046 A 
ATOM     18  C   UNL     1      -9.069   1.567   2.676  0.00  0.00    +0.041 A 
ATOM     19  C   UNL     1      -8.099   2.195   3.365  0.00  0.00    +0.195 A 
ATOM     20  O   UNL     1      -7.406   2.967   2.514  0.00  0.00    -0.466 OA
ENDBRANCH   4  16
BRANCH   1  21
ATOM     21  C   UNL     1      -3.631   2.811   0.032  0.00  0.00    +0.175 C 
BRANCH  21  22
ATOM     22  S   UNL     1      -2.780   1.214   0.020  0.00  0.00    -0.077 S 
BRANCH  22  25
ATOM     23  C   UNL     1       0.640   3.051   0.012  0.00  0.00    +0.182 A 
ATOM     24  N   UNL     1      -0.700   3.011   0.024  0.00  0.00    -0.201 NA
ATOM     25  C   UNL     1      -1.105   1.760   0.016  0.00  0.00    +0.185 A 
ATOM     26  N   UNL     1      -0.011   0.966   0.007  0.00  0.00    -0.253 N 
ATOM     27  H   UNL     1       0.002  -0.004   0.002  0.00  0.00    +0.191 HD
ATOM     28  N   UNL     1       1.102   1.821   0.001  0.00  0.00    -0.152 NA
BRANCH  23  33
ATOM     29  C   UNL     1       3.848   7.834   0.006  0.00  0.00    +0.044 C 
ATOM     30  C   UNL     1       3.009   6.583   0.008  0.00  0.00    -0.050 A 
ATOM     31  C   UNL     1       3.621   5.342  -0.004  0.00  0.00    +0.004 A 
ATOM     32  C   UNL     1       2.857   4.193  -0.003  0.00  0.00    +0.012 A 
ATOM     33  C   UNL     1       1.467   4.283   0.011  0.00  0.00    +0.021 A 
ATOM     34  C   UNL     1       0.855   5.535   0.018  0.00  0.00    +0.012 A 
ATOM     35  C   UNL     1       1.629   6.678   0.022  0.00  0.00    +0.004 A 
ENDBRANCH  23  33
ENDBRANCH  22  25
ENDBRANCH  21  22
ENDBRANCH   1  21
TORSDOF 7
