REMARK  Name = ZINC13148345
REMARK  9 active torsions:
REMARK  status: ('A' for Active; 'I' for Inactive)
REMARK    1  A    between atoms: C_1  and  C_2
REMARK    2  A    between atoms: C_2  and  C_4
REMARK    3  A    between atoms: C_7  and  N_10
REMARK    4  A    between atoms: C_11  and  C_13
REMARK    5  A    between atoms: C_13  and  O_14
REMARK    6  A    between atoms: O_14  and  C_15
REMARK    7  A    between atoms: C_15  and  C_17
REMARK    8  A    between atoms: C_30  and  C_31
REMARK    9  A    between atoms: C_34  and  O_37
REMARK                            x       y       z     vdW  Elec       q    Type
REMARK                         _______ _______ _______ _____ _____    ______ ____
ROOT
ATOM      1  C   UNL     1       1.460  -2.131   0.185  0.00  0.00    +0.073 A 
ATOM      2  C   UNL     1       1.372  -0.671   0.144  0.00  0.00    +0.015 A 
ATOM      3  C   UNL     1       0.141  -0.009   0.186  0.00  0.00    +0.011 A 
ATOM      4  C   UNL     1       0.107   1.354   0.146  0.00  0.00    +0.001 A 
ATOM      5  C   UNL     1       1.284   2.095   0.063  0.00  0.00    +0.002 A 
ATOM      6  C   UNL     1       2.499   1.482   0.019  0.00  0.00    +0.028 A 
ATOM      7  C   UNL     1       2.574   0.076   0.059  0.00  0.00    +0.072 A 
ATOM      8  N   UNL     1       3.747  -0.551   0.019  0.00  0.00    -0.247 NA
ATOM      9  C   UNL     1       3.860  -1.875   0.054  0.00  0.00    +0.072 A 
ATOM     10  C   UNL     1       2.725  -2.698   0.138  0.00  0.00    -0.007 A 
ATOM     11  C   UNL     1       3.147  -4.147   0.161  0.00  0.00    +0.043 C 
ATOM     12  C   UNL     1       4.680  -4.150   0.083  0.00  0.00    +0.042 C 
ATOM     13  C   UNL     1       5.084  -2.699   0.017  0.00  0.00    -0.021 C 
ATOM     14  C   UNL     1       6.344  -2.235  -0.061  0.00  0.00    +0.013 C 
ENDROOT
BRANCH  14  15
ATOM     15  C   UNL     1       7.479  -3.166   0.047  0.00  0.00    -0.024 A 
ATOM     16  C   UNL     1       8.785  -2.673   0.134  0.00  0.00    +0.011 A 
ATOM     17  C   UNL     1       9.844  -3.548   0.239  0.00  0.00    +0.046 A 
ATOM     18  C   UNL     1       9.617  -4.918   0.250  0.00  0.00    +0.117 A 
ATOM     19  C   UNL     1       8.322  -5.413   0.158  0.00  0.00    +0.046 A 
ATOM     20  C   UNL     1       7.256  -4.546   0.057  0.00  0.00    +0.011 A 
BRANCH  18  21
ATOM     21  O   UNL     1      10.664  -5.777   0.349  0.00  0.00    -0.507 OA
ATOM     22  H   UNL     1      11.036  -6.044  -0.503  0.00  0.00    +0.292 HD
ENDBRANCH  18  21
ENDBRANCH  14  15
BRANCH   1  23
ATOM     23  C   UNL     1       0.247  -2.970   0.273  0.00  0.00    +0.341 C 
ATOM     24  O   UNL     1      -0.306  -3.347  -0.741  0.00  0.00    -0.245 OA
BRANCH  23  25
ATOM     25  O   UNL     1      -0.246  -3.316   1.478  0.00  0.00    -0.452 OA
BRANCH  25  26
ATOM     26  C   UNL     1      -1.441  -4.141   1.489  0.00  0.00    +0.328 C 
BRANCH  26  28
ATOM     27  N   UNL     1      -2.930  -5.178   3.170  0.00  0.00    -0.283 N 
ATOM     28  C   UNL     1      -1.842  -4.425   2.914  0.00  0.00    +0.255 C 
ATOM     29  O   UNL     1      -1.186  -3.976   3.829  0.00  0.00    -0.272 OA
ATOM     30  H   UNL     1      -3.417  -5.591   2.440  0.00  0.00    +0.155 HD
BRANCH  27  34
ATOM     31  C   UNL     1      -4.199  -5.731   7.093  0.00  0.00    +0.017 A 
ATOM     32  C   UNL     1      -2.832  -5.646   6.803  0.00  0.00    +0.013 A 
ATOM     33  C   UNL     1      -2.418  -5.464   5.509  0.00  0.00    +0.024 A 
ATOM     34  C   UNL     1      -3.355  -5.364   4.484  0.00  0.00    +0.034 A 
ATOM     35  C   UNL     1      -4.716  -5.443   4.768  0.00  0.00    +0.024 A 
ATOM     36  C   UNL     1      -5.138  -5.630   6.059  0.00  0.00    +0.013 A 
BRANCH  31  38
ATOM     37  C   UNL     1      -6.109  -6.142   8.774  0.00  0.00    +0.091 C 
ATOM     38  C   UNL     1      -4.647  -5.927   8.478  0.00  0.00    +0.160 C 
ATOM     39  O   UNL     1      -3.841  -5.916   9.384  0.00  0.00    -0.292 OA
ENDBRANCH  31  38
ENDBRANCH  27  34
ENDBRANCH  26  28
ENDBRANCH  25  26
ENDBRANCH  23  25
ENDBRANCH   1  23
TORSDOF 8
