REMARK  Name = ZINC43425273
REMARK  2 active torsions:
REMARK  status: ('A' for Active; 'I' for Inactive)
REMARK    1  A    between atoms: C_12  and  C_14
REMARK    2  A    between atoms: C_20  and  C_22
REMARK                            x       y       z     vdW  Elec       q    Type
REMARK                         _______ _______ _______ _____ _____    ______ ____
ROOT
ATOM      1  C   UNL     1      -0.025   1.518   0.041  0.00  0.00    +0.004 C 
ATOM      2  C   UNL     1       1.451   1.992   0.025  0.00  0.00    +0.025 C 
ATOM      3  C   UNL     1       2.277   0.722  -0.121  0.00  0.00    +0.105 C 
ATOM      4  C   UNL     1       1.395  -0.351   0.581  0.00  0.00    +0.139 C 
ATOM      5  C   UNL     1       0.014  -0.036   0.007  0.00  0.00    +0.033 C 
ATOM      6  O   UNL     1       1.972  -1.606   0.295  0.00  0.00    -0.373 OA
ATOM      7  C   UNL     1       3.248  -1.752   0.945  0.00  0.00    +0.179 C 
ATOM      8  C   UNL     1       4.226  -0.653   0.534  0.00  0.00    +0.136 C 
ATOM      9  N   UNL     1       3.571   0.676   0.544  0.00  0.00    -0.294 N 
ATOM     10  C   UNL     1       4.124   1.754   1.135  0.00  0.00    +0.220 C 
ATOM     11  O   UNL     1       3.591   2.839   1.037  0.00  0.00    -0.275 OA
ENDROOT
BRANCH  10  12
ATOM     12  C   UNL     1       5.404   1.612   1.917  0.00  0.00    +0.093 C 
ATOM     13  C   UNL     1       5.151   1.958   3.386  0.00  0.00    +0.040 C 
ATOM     14  C   UNL     1       4.901   3.430   3.534  0.00  0.00    -0.030 C 
ATOM     15  C   UNL     1       5.207   4.312   2.638  0.00  0.00    -0.030 C 
ATOM     16  C   UNL     1       5.846   3.985   1.320  0.00  0.00    +0.042 C 
ATOM     17  C   UNL     1       6.458   2.578   1.361  0.00  0.00    +0.118 C 
BRANCH  17  18
ATOM     18  C   UNL     1       6.855   2.150  -0.028  0.00  0.00    +0.360 C 
ATOM     19  O   UNL     1       7.214   2.982  -0.844  0.00  0.00    -0.246 OA
ATOM     20  O   UNL     1       6.818   0.971  -0.337  0.00  0.00    -0.246 OA
ENDBRANCH  17  18
ENDBRANCH  10  12
TORSDOF 2
