REMARK  Name = ZINC35370213
REMARK  5 active torsions:
REMARK  status: ('A' for Active; 'I' for Inactive)
REMARK    1  A    between atoms: C_3  and  C_9
REMARK    2  A    between atoms: C_9  and  C_10
REMARK    3  A    between atoms: C_10  and  N_11
REMARK    4  A    between atoms: C_12  and  C_14
REMARK    5  A    between atoms: C_25  and  C_27
REMARK                            x       y       z     vdW  Elec       q    Type
REMARK                         _______ _______ _______ _____ _____    ______ ____
ROOT
ATOM      1  C   UNL     1       8.503   5.367   2.066  0.00  0.00    +0.028 C 
ATOM      2  C   UNL     1       8.689   6.886   1.772  0.00  0.00    +0.061 C 
ATOM      3  S   UNL     1      10.175   7.190   2.831  0.00  0.00    -0.174 S 
ATOM      4  C   UNL     1       9.804   5.925   4.113  0.00  0.00    -0.016 C 
ATOM      5  N   UNL     1       8.790   5.072   3.474  0.00  0.00    +0.397 N 
ATOM      6  C   UNL     1       9.245   6.606   5.354  0.00  0.00    +0.017 C 
ATOM      7  C   UNL     1       8.919   5.549   6.414  0.00  0.00    +0.107 C 
ATOM      8  N   UNL     1      10.113   4.723   6.639  0.00  0.00    -0.301 N 
ATOM      9  C   UNL     1      10.751   4.071   5.486  0.00  0.00    +0.107 C 
ATOM     10  C   UNL     1      11.066   5.137   4.431  0.00  0.00    +0.017 C 
ATOM     11  C   UNL     1      10.616   4.566   7.880  0.00  0.00    +0.219 C 
ATOM     12  O   UNL     1      11.543   3.808   8.067  0.00  0.00    -0.275 OA
ATOM     13  H   UNL     1       7.930   5.159   3.996  0.00  0.00    -0.083 HD
ATOM     14  H   UNL     1       9.100   4.114   3.539  0.00  0.00    -0.083 HD
ENDROOT
BRANCH  11  15
ATOM     15  C   UNL     1      10.025   5.333   9.034  0.00  0.00    +0.075 C 
ATOM     16  C   UNL     1       8.812   4.578   9.581  0.00  0.00    +0.013 C 
ATOM     17  C   UNL     1       8.211   5.356  10.753  0.00  0.00    +0.001 C 
ATOM     18  C   UNL     1       9.260   5.504  11.857  0.00  0.00    +0.000 C 
ATOM     19  C   UNL     1      10.473   6.260  11.311  0.00  0.00    +0.001 C 
ATOM     20  C   UNL     1      11.073   5.481  10.138  0.00  0.00    +0.013 C 
ENDBRANCH  11  15
BRANCH   1  22
ATOM     21  N   UNL     1       6.598   5.125   0.508  0.00  0.00    -0.316 N 
ATOM     22  C   UNL     1       7.083   4.972   1.756  0.00  0.00    +0.200 C 
ATOM     23  O   UNL     1       6.376   4.515   2.629  0.00  0.00    -0.278 OA
ATOM     24  H   UNL     1       7.163   5.491  -0.191  0.00  0.00    +0.149 HD
BRANCH  21  25
ATOM     25  C   UNL     1       5.217   4.741   0.206  0.00  0.00    +0.109 C 
BRANCH  25  26
ATOM     26  C   UNL     1       4.922   5.015  -1.270  0.00  0.00    +0.055 C 
BRANCH  26  29
ATOM     27  C   UNL     1       1.211   5.222  -1.932  0.00  0.00    +0.020 A 
ATOM     28  C   UNL     1       2.514   5.585  -1.646  0.00  0.00    +0.006 A 
ATOM     29  C   UNL     1       3.501   4.620  -1.581  0.00  0.00    -0.027 A 
ATOM     30  C   UNL     1       3.186   3.291  -1.801  0.00  0.00    +0.046 A 
ATOM     31  C   UNL     1       1.882   2.928  -2.087  0.00  0.00    +0.040 A 
ATOM     32  C   UNL     1       0.894   3.894  -2.152  0.00  0.00    +0.042 A 
ATOM     33 CL   UNL     1      -0.742   3.439  -2.510  0.00  0.00    -0.083 Cl
ATOM     34 CL   UNL     1       4.426   2.079  -1.720  0.00  0.00    -0.083 Cl
ENDBRANCH  26  29
ENDBRANCH  25  26
ENDBRANCH  21  25
ENDBRANCH   1  22
TORSDOF 5
