REMARK  Name = ZINC34774465
REMARK  10 active torsions:
REMARK  status: ('A' for Active; 'I' for Inactive)
REMARK    1  A    between atoms: C_1  and  C_2
REMARK    2  A    between atoms: C_2  and  N_3
REMARK    3  A    between atoms: N_3  and  C_4
REMARK    4  A    between atoms: C_4  and  C_5
REMARK    5  A    between atoms: C_6  and  C_8
REMARK    6  A    between atoms: C_8  and  N_9
REMARK    7  A    between atoms: C_17  and  C_32
REMARK    8  A    between atoms: C_22  and  S_24
REMARK    9  A    between atoms: S_24  and  C_25
REMARK   10  A    between atoms: C_25  and  C_26
REMARK                            x       y       z     vdW  Elec       q    Type
REMARK                         _______ _______ _______ _____ _____    ______ ____
ROOT
ATOM      1  N   UNL     1      -1.121  -0.491  -5.944  0.00  0.00    +0.387 N 
ATOM      2  C   UNL     1      -1.883  -0.279  -7.181  0.00  0.00    -0.059 C 
ATOM      3  C   UNL     1      -3.381  -0.411  -6.885  0.00  0.00    +0.088 C 
ATOM      4  N   UNL     1      -3.617  -1.713  -6.242  0.00  0.00    -0.318 N 
ATOM      5  C   UNL     1      -2.780  -2.078  -5.089  0.00  0.00    +0.088 C 
ATOM      6  C   UNL     1      -1.311  -1.867  -5.469  0.00  0.00    -0.059 C 
ATOM      7  C   UNL     1      -4.597  -2.569  -6.709  0.00  0.00    +0.134 A 
ATOM      8  C   UNL     1      -5.969  -2.291  -6.464  0.00  0.00    +0.055 A 
ATOM      9  C   UNL     1      -6.578  -1.173  -5.749  0.00  0.00    +0.002 A 
ATOM     10  C   UNL     1      -7.926  -1.123  -5.644  0.00  0.00    +0.056 A 
ATOM     11  S   UNL     1      -8.465  -2.587  -6.506  0.00  0.00    -0.076 S 
ATOM     12  C   UNL     1      -6.883  -3.230  -6.985  0.00  0.00    +0.115 A 
ATOM     13  N   UNL     1      -6.474  -4.291  -7.654  0.00  0.00    -0.214 NA
ATOM     14  C   UNL     1      -5.180  -4.500  -7.853  0.00  0.00    +0.191 A 
ATOM     15  N   UNL     1      -4.268  -3.652  -7.393  0.00  0.00    -0.206 NA
ATOM     16  H   UNL     1      -1.444   0.154  -5.238  0.00  0.00    -0.081 HD
ENDROOT
BRANCH   9  17
ATOM     17  C   UNL     1      -5.734  -0.112  -5.149  0.00  0.00    -0.017 A 
ATOM     18  C   UNL     1      -4.793  -0.435  -4.173  0.00  0.00    +0.008 A 
ATOM     19  C   UNL     1      -4.010   0.557  -3.618  0.00  0.00    +0.001 A 
ATOM     20  C   UNL     1      -4.158   1.870  -4.029  0.00  0.00    +0.000 A 
ATOM     21  C   UNL     1      -5.090   2.196  -4.998  0.00  0.00    +0.001 A 
ATOM     22  C   UNL     1      -5.874   1.212  -5.564  0.00  0.00    +0.008 A 
ENDBRANCH   9  17
BRANCH   1  23
ATOM     23  C   UNL     1       0.306  -0.257  -6.203  0.00  0.00    +0.019 C 
BRANCH  23  25
ATOM     24  N   UNL     1       1.757   1.637  -6.855  0.00  0.00    -0.304 N 
ATOM     25  C   UNL     1       0.518   1.189  -6.572  0.00  0.00    +0.199 C 
ATOM     26  O   UNL     1      -0.426   1.949  -6.615  0.00  0.00    -0.278 OA
BRANCH  24  28
ATOM     27  C   UNL     1       3.495   0.725  -5.395  0.00  0.00    +0.024 C 
ATOM     28  C   UNL     1       2.898   0.719  -6.804  0.00  0.00    +0.104 C 
ENDBRANCH  24  28
BRANCH  24  29
ATOM     29  C   UNL     1       1.964   3.042  -7.214  0.00  0.00    +0.104 C 
ATOM     30  C   UNL     1       1.836   3.206  -8.730  0.00  0.00    +0.024 C 
ENDBRANCH  24  29
ENDBRANCH  23  25
ENDBRANCH   1  23
BRANCH  14  31
ATOM     31  S   UNL     1      -4.662  -5.926  -8.749  0.00  0.00    -0.081 S 
BRANCH  31  32
ATOM     32  C   UNL     1      -6.213  -6.765  -9.174  0.00  0.00    +0.112 C 
BRANCH  32  33
ATOM     33  C   UNL     1      -5.909  -8.018  -9.953  0.00  0.00    -0.037 A 
ATOM     34  C   UNL     1      -5.821  -7.970 -11.332  0.00  0.00    +0.004 A 
ATOM     35  C   UNL     1      -5.542  -9.120 -12.047  0.00  0.00    +0.000 A 
ATOM     36  C   UNL     1      -5.351 -10.318 -11.384  0.00  0.00    +0.000 A 
ATOM     37  C   UNL     1      -5.439 -10.365 -10.005  0.00  0.00    +0.000 A 
ATOM     38  C   UNL     1      -5.713  -9.215  -9.290  0.00  0.00    +0.004 A 
ENDBRANCH  32  33
ENDBRANCH  31  32
ENDBRANCH  14  31
TORSDOF 8
