REMARK  Name = ZINC63456325
REMARK  8 active torsions:
REMARK  status: ('A' for Active; 'I' for Inactive)
REMARK    1  A    between atoms: C_1  and  C_2
REMARK    2  A    between atoms: C_5  and  N_8
REMARK    3  A    between atoms: C_9  and  C_11
REMARK    4  A    between atoms: C_11  and  O_12
REMARK    5  A    between atoms: O_12  and  N_13
REMARK    6  A    between atoms: C_14  and  C_15
REMARK    7  A    between atoms: C_16  and  N_26
REMARK    8  A    between atoms: N_22  and  C_25
REMARK                            x       y       z     vdW  Elec       q    Type
REMARK                         _______ _______ _______ _____ _____    ______ ____
ROOT
ATOM      1  N   UNL     1      -0.457  -8.107   3.845  0.00  0.00    -0.068 NA
ATOM      2  C   UNL     1      -0.229  -8.677   4.995  0.00  0.00    +0.169 C 
ATOM      3  N   UNL     1      -0.194 -10.058   5.088  0.00  0.00    -0.340 N 
ATOM      4  H   UNL     1      -0.267 -10.600   4.287  0.00  0.00    +0.144 HD
ATOM      5  H   UNL     1      -0.097 -10.483   5.955  0.00  0.00    +0.144 HD
ENDROOT
BRANCH   2   6
ATOM      6  C   UNL     1      -0.009  -7.850   6.197  0.00  0.00    +0.098 C 
ATOM      7  C   UNL     1       1.054  -7.011   6.398  0.00  0.00    +0.041 C 
ATOM      8  C   UNL     1       0.844  -6.392   7.752  0.00  0.00    +0.076 C 
ATOM      9  C   UNL     1       2.030  -6.698   8.687  0.00  0.00    +0.032 C 
ATOM     10  C   UNL     1       1.938  -5.560   9.736  0.00  0.00    +0.003 C 
ATOM     11  C   UNL     1       1.494  -4.326   8.923  0.00  0.00    +0.003 C 
ATOM     12  C   UNL     1       0.788  -4.862   7.662  0.00  0.00    +0.032 C 
ATOM     13  N   UNL     1      -0.399  -6.942   8.282  0.00  0.00    -0.289 N 
ATOM     14  C   UNL     1      -0.894  -7.792   7.361  0.00  0.00    +0.252 C 
ATOM     15  O   UNL     1      -1.928  -8.423   7.480  0.00  0.00    -0.270 OA
ATOM     16  C   UNL     1      -1.002  -6.625   9.579  0.00  0.00    +0.133 C 
BRANCH   7  17
ATOM     17  N   UNL     1       2.090  -6.784   5.546  0.00  0.00    -0.359 N 
ATOM     18  H   UNL     1       2.163  -7.295   4.725  0.00  0.00    +0.142 HD
ATOM     19  H   UNL     1       2.755  -6.111   5.760  0.00  0.00    +0.142 HD
ENDBRANCH   7  17
ENDBRANCH   2   6
BRANCH   1  20
ATOM     20  O   UNL     1      -0.606  -6.701   3.768  0.00  0.00    -0.383 OA
BRANCH  20  21
ATOM     21  C   UNL     1      -0.852  -6.213   2.448  0.00  0.00    +0.358 C 
BRANCH  21  23
ATOM     22  N   UNL     1      -1.230  -4.030   1.347  0.00  0.00    -0.310 N 
ATOM     23  C   UNL     1      -0.992  -4.713   2.485  0.00  0.00    +0.254 C 
ATOM     24  O   UNL     1      -0.892  -4.120   3.538  0.00  0.00    -0.272 OA
ATOM     25  H   UNL     1      -1.310  -4.505   0.504  0.00  0.00    +0.149 HD
BRANCH  22  30
ATOM     26  C   UNL     1      -1.109   1.580   0.191  0.00  0.00    +0.007 C 
ATOM     27  C   UNL     1      -0.967   0.057   0.154  0.00  0.00    -0.014 C 
ATOM     28  C   UNL     1      -2.352  -0.587   0.229  0.00  0.00    +0.005 C 
ATOM     29  C   UNL     1      -2.209  -2.110   0.192  0.00  0.00    +0.022 C 
ATOM     30  C   UNL     1      -1.366  -2.572   1.382  0.00  0.00    +0.073 C 
ATOM     31  C   UNL     1       0.019  -1.928   1.307  0.00  0.00    +0.022 C 
ATOM     32  C   UNL     1      -0.123  -0.405   1.344  0.00  0.00    +0.005 C 
ENDBRANCH  22  30
ENDBRANCH  21  23
ENDBRANCH  20  21
ENDBRANCH   1  20
TORSDOF 6
