REMARK  Name = ZINC15324703
REMARK  12 active torsions:
REMARK  status: ('A' for Active; 'I' for Inactive)
REMARK    1  A    between atoms: C_1  and  C_2
REMARK    2  A    between atoms: C_2  and  C_3
REMARK    3  A    between atoms: C_3  and  C_4
REMARK    4  A    between atoms: C_4  and  N_5
REMARK    5  A    between atoms: N_5  and  C_6
REMARK    6  A    between atoms: C_7  and  N_19
REMARK    7  A    between atoms: N_8  and  C_15
REMARK    8  A    between atoms: C_15  and  C_16
REMARK    9  A    between atoms: C_16  and  C_17
REMARK   10  A    between atoms: C_16  and  C_18
REMARK   11  A    between atoms: C_20  and  C_22
REMARK   12  A    between atoms: C_22  and  C_23
REMARK                            x       y       z     vdW  Elec       q    Type
REMARK                         _______ _______ _______ _____ _____    ______ ____
ROOT
ATOM      1  N   UNL     1      -0.681   1.565   1.128  0.00  0.00    -0.264 N 
ATOM      2  C   UNL     1      -1.509   0.800   1.869  0.00  0.00    +0.224 C 
ATOM      3  O   UNL     1      -1.860   1.174   2.968  0.00  0.00    -0.275 OA
ENDROOT
BRANCH   1   4
ATOM      4  C   UNL     1      -0.137   2.747   1.673  0.00  0.00    +0.140 A 
ATOM      5  C   UNL     1      -0.955   3.807   2.008  0.00  0.00    +0.127 A 
ATOM      6  N   UNL     1      -0.396   4.944   2.542  0.00  0.00    -0.280 N 
ATOM      7  C   UNL     1       0.935   5.027   2.726  0.00  0.00    +0.331 A 
ATOM      8  O   UNL     1       1.410   6.043   3.196  0.00  0.00    -0.246 OA
ATOM      9  N   UNL     1       1.748   4.007   2.401  0.00  0.00    -0.273 N 
ATOM     10  H   UNL     1       2.733   4.094   2.548  0.00  0.00    +0.173 HD
ATOM     11  C   UNL     1       1.250   2.868   1.879  0.00  0.00    +0.277 A 
ATOM     12  O   UNL     1       1.997   1.949   1.588  0.00  0.00    -0.266 OA
BRANCH   5  13
ATOM     13  N   UNL     1      -2.313   3.725   1.814  0.00  0.00    -0.343 N 
ATOM     14  H   UNL     1      -2.697   2.936   1.401  0.00  0.00    +0.144 HD
ATOM     15  H   UNL     1      -2.887   4.456   2.091  0.00  0.00    +0.144 HD
ENDBRANCH   5  13
BRANCH   6  16
ATOM     16  C   UNL     1      -1.253   6.075   2.907  0.00  0.00    +0.131 C 
BRANCH  16  17
ATOM     17  C   UNL     1      -1.401   7.011   1.706  0.00  0.00    +0.003 C 
ATOM     18  C   UNL     1      -2.394   8.124   2.047  0.00  0.00    +0.009 C 
ATOM     19  C   UNL     1      -0.042   7.627   1.368  0.00  0.00    +0.009 C 
ENDBRANCH  16  17
ENDBRANCH   6  16
ENDBRANCH   1   4
BRANCH   1  20
ATOM     20  C   UNL     1      -0.346   1.169  -0.242  0.00  0.00    +0.114 C 
BRANCH  20  21
ATOM     21  C   UNL     1      -1.358   1.782  -1.212  0.00  0.00    +0.019 C 
BRANCH  21  23
ATOM     22  C   UNL     1      -2.021   1.981  -3.613  0.00  0.00    +0.004 C 
ATOM     23  C   UNL     1      -1.009   1.368  -2.643  0.00  0.00    -0.002 C 
ENDBRANCH  21  23
ENDBRANCH  20  21
ENDBRANCH   1  20
BRANCH   2  24
ATOM     24  C   UNL     1      -1.999  -0.520   1.330  0.00  0.00    +0.135 C 
BRANCH  24  25
ATOM     25  C   UNL     1      -2.903  -1.172   2.344  0.00  0.00    +0.007 A 
ATOM     26  C   UNL     1      -2.557  -2.089   3.263  0.00  0.00    +0.200 A 
ATOM     27  O   UNL     1      -3.631  -2.435   3.991  0.00  0.00    -0.463 OA
ATOM     28  C   UNL     1      -4.728  -1.768   3.578  0.00  0.00    +0.136 A 
ATOM     29  C   UNL     1      -4.334  -0.939   2.523  0.00  0.00    +0.031 A 
ATOM     30  C   UNL     1      -5.326  -0.091   1.874  0.00  0.00    -0.007 A 
ATOM     31  C   UNL     1      -4.991   0.759   0.814  0.00  0.00    +0.009 A 
ATOM     32  C   UNL     1      -5.955   1.534   0.239  0.00  0.00    +0.001 A 
ATOM     33  C   UNL     1      -7.270   1.491   0.693  0.00  0.00    +0.001 A 
ATOM     34  C   UNL     1      -7.630   0.675   1.722  0.00  0.00    +0.008 A 
ATOM     35  C   UNL     1      -6.664  -0.136   2.337  0.00  0.00    -0.017 A 
ATOM     36  C   UNL     1      -6.999  -0.992   3.404  0.00  0.00    +0.012 A 
ATOM     37  C   UNL     1      -6.063  -1.774   3.997  0.00  0.00    +0.047 A 
ENDBRANCH  24  25
ENDBRANCH   2  24
TORSDOF 9
