REMARK  Name = ZINC08964088
REMARK  8 active torsions:
REMARK  status: ('A' for Active; 'I' for Inactive)
REMARK    1  A    between atoms: C_1  and  N_2
REMARK    2  A    between atoms: C_9  and  C_11
REMARK    3  A    between atoms: C_11  and  C_13
REMARK    4  A    between atoms: C_11  and  N_63
REMARK    5  A    between atoms: C_13  and  N_14
REMARK    6  A    between atoms: C_15  and  C_17
REMARK    7  A    between atoms: N_19  and  C_20
REMARK    8  A    between atoms: C_20  and  C_21
REMARK                            x       y       z     vdW  Elec       q    Type
REMARK                         _______ _______ _______ _____ _____    ______ ____
ROOT
ATOM      1  C   UNL     1      10.481  -2.220   0.027  0.00  0.00    +0.094 C 
ENDROOT
BRANCH   1   2
ATOM      2  N   UNL     1       9.762  -2.509   1.271  0.00  0.00    -0.309 N 
ATOM      3  C   UNL     1       8.419  -2.406   1.312  0.00  0.00    +0.299 C 
ATOM      4  O   UNL     1       7.805  -2.074   0.319  0.00  0.00    -0.265 OA
ATOM      5  H   UNL     1      10.253  -2.775   2.064  0.00  0.00    +0.149 HD
BRANCH   3   6
ATOM      6  C   UNL     1       7.686  -2.701   2.580  0.00  0.00    +0.299 C 
ATOM      7  O   UNL     1       8.300  -3.034   3.573  0.00  0.00    -0.265 OA
ATOM      8  N   UNL     1       6.342  -2.599   2.622  0.00  0.00    -0.303 N 
ATOM      9  H   UNL     1       5.852  -2.333   1.828  0.00  0.00    +0.149 HD
BRANCH   8  10
ATOM     10  C   UNL     1       5.623  -2.888   3.865  0.00  0.00    +0.140 C 
BRANCH  10  11
ATOM     11  C   UNL     1       4.144  -2.700   3.646  0.00  0.00    -0.027 A 
ATOM     12  C   UNL     1       3.370  -3.764   3.221  0.00  0.00    +0.009 A 
ATOM     13  C   UNL     1       2.013  -3.596   3.018  0.00  0.00    +0.050 A 
ATOM     14  C   UNL     1       1.425  -2.361   3.240  0.00  0.00    +0.166 A 
ATOM     15  C   UNL     1       2.206  -1.290   3.668  0.00  0.00    +0.167 A 
ATOM     16  C   UNL     1       3.565  -1.465   3.869  0.00  0.00    +0.054 A 
ATOM     17  O   UNL     1       1.403  -0.195   3.813  0.00  0.00    -0.453 OA
ATOM     18  C   UNL     1       0.059  -0.709   3.864  0.00  0.00    +0.466 C 
ATOM     19  O   UNL     1       0.134  -1.938   3.116  0.00  0.00    -0.453 OA
ENDBRANCH  10  11
ENDBRANCH   8  10
ENDBRANCH   3   6
ENDBRANCH   1   2
BRANCH   1  20
ATOM     20  C   UNL     1      11.987  -2.230   0.295  0.00  0.00    -0.020 C 
BRANCH  20  29
ATOM     21  C   UNL     1      15.687  -0.923  -4.843  0.00  0.00    +0.129 C 
ATOM     22  N   UNL     1      14.819  -2.086  -4.615  0.00  0.00    -0.332 N 
ATOM     23  C   UNL     1      15.613  -3.330  -4.524  0.00  0.00    +0.109 C 
ATOM     24  C   UNL     1      14.777  -4.195  -3.554  0.00  0.00    +0.056 C 
ATOM     25  C   UNL     1      14.021  -3.159  -2.745  0.00  0.00    -0.025 A 
ATOM     26  C   UNL     1      14.098  -1.948  -3.423  0.00  0.00    +0.033 A 
ATOM     27  C   UNL     1      13.482  -0.824  -2.874  0.00  0.00    +0.023 A 
ATOM     28  C   UNL     1      12.804  -0.920  -1.676  0.00  0.00    +0.004 A 
ATOM     29  C   UNL     1      12.730  -2.131  -1.012  0.00  0.00    -0.059 A 
ATOM     30  C   UNL     1      13.345  -3.249  -1.547  0.00  0.00    +0.007 A 
ENDBRANCH  20  29
BRANCH  20  35
ATOM     31  C   UNL     1      11.840  -1.281   2.532  0.00  0.00    -0.078 C 
ATOM     32  C   UNL     1      12.717  -0.313   3.365  0.00  0.00    -0.020 C 
ATOM     33  C   UNL     1      14.100  -0.427   2.685  0.00  0.00    -0.020 C 
ATOM     34  C   UNL     1      13.809  -0.948   1.266  0.00  0.00    -0.078 C 
ATOM     35  N   UNL     1      12.354  -1.075   1.169  0.00  0.00    +0.385 N 
ATOM     36  H   UNL     1      11.956  -0.215   0.775  0.00  0.00    -0.081 HD
ENDBRANCH  20  35
ENDBRANCH   1  20
TORSDOF 7
