REMARK  Name = ZINC39599146
REMARK  7 active torsions:
REMARK  status: ('A' for Active; 'I' for Inactive)
REMARK    1  A    between atoms: C_1  and  O_2
REMARK    2  A    between atoms: O_2  and  C_3
REMARK    3  A    between atoms: C_9  and  C_12
REMARK    4  A    between atoms: C_12  and  C_13
REMARK    5  A    between atoms: C_13  and  N_14
REMARK    6  A    between atoms: C_15  and  C_17
REMARK    7  A    between atoms: C_28  and  C_30
REMARK                            x       y       z     vdW  Elec       q    Type
REMARK                         _______ _______ _______ _____ _____    ______ ____
ROOT
ATOM      1  C   UNL     1       0.522  -7.960   2.888  0.00  0.00    +0.100 C 
ATOM      2  C   UNL     1       1.694  -7.879   1.885  0.00  0.00    +0.121 C 
ATOM      3  N   UNL     1       2.881  -7.577   2.719  0.00  0.00    -0.296 N 
ATOM      4  C   UNL     1       2.690  -8.394   3.941  0.00  0.00    +0.115 C 
ATOM      5  C   UNL     1       1.179  -8.303   4.236  0.00  0.00    -0.004 C 
ATOM      6  C   UNL     1       0.660  -9.641   4.753  0.00  0.00    -0.010 C 
ATOM      7  C   UNL     1       1.284  -9.931   6.121  0.00  0.00    -0.082 C 
ATOM      8  N   UNL     1       0.938  -8.855   7.057  0.00  0.00    +0.379 N 
ATOM      9  C   UNL     1       1.521  -7.587   6.600  0.00  0.00    -0.082 C 
ATOM     10  C   UNL     1       0.907  -7.198   5.252  0.00  0.00    -0.010 C 
ATOM     11  C   UNL     1       3.904  -6.748   2.431  0.00  0.00    +0.248 C 
ATOM     12  O   UNL     1       4.859  -6.678   3.180  0.00  0.00    -0.270 OA
ATOM     13  H   UNL     1      -0.066  -8.763   7.107  0.00  0.00    -0.086 HD
ATOM     14  H   UNL     1       1.298  -9.078   7.973  0.00  0.00    -0.086 HD
ENDROOT
BRANCH  11  15
ATOM     15  C   UNL     1       3.865  -5.925   1.204  0.00  0.00    +0.057 A 
ATOM     16  C   UNL     1       3.287  -6.430   0.038  0.00  0.00    +0.014 A 
ATOM     17  C   UNL     1       3.253  -5.657  -1.103  0.00  0.00    +0.002 A 
ATOM     18  C   UNL     1       3.790  -4.381  -1.096  0.00  0.00    +0.021 A 
ATOM     19  C   UNL     1       4.365  -3.872   0.055  0.00  0.00    +0.060 A 
ATOM     20  C   UNL     1       4.400  -4.635   1.209  0.00  0.00    +0.071 A 
ATOM     21 CL   UNL     1       5.114  -3.993   2.655  0.00  0.00    -0.081 Cl
ATOM     22 CL   UNL     1       5.037  -2.272   0.054  0.00  0.00    -0.082 Cl
ENDBRANCH  11  15
BRANCH   1  24
ATOM     23  N   UNL     1      -1.493  -6.590   3.314  0.00  0.00    -0.315 N 
ATOM     24  C   UNL     1      -0.189  -6.635   2.973  0.00  0.00    +0.218 C 
ATOM     25  O   UNL     1       0.411  -5.608   2.735  0.00  0.00    -0.275 OA
ATOM     26  H   UNL     1      -1.973  -7.411   3.504  0.00  0.00    +0.149 HD
BRANCH  23  27
ATOM     27  C   UNL     1      -2.184  -5.301   3.396  0.00  0.00    +0.109 C 
BRANCH  27  28
ATOM     28  C   UNL     1      -3.643  -5.530   3.799  0.00  0.00    +0.056 C 
BRANCH  28  35
ATOM     29  C   UNL     1      -5.778  -2.815   0.610  0.00  0.00    +0.121 A 
ATOM     30  C   UNL     1      -6.305  -1.652   1.164  0.00  0.00    +0.047 A 
ATOM     31  C   UNL     1      -6.175  -1.395   2.511  0.00  0.00    +0.030 A 
ATOM     32  C   UNL     1      -5.511  -2.301   3.331  0.00  0.00    +0.047 A 
ATOM     33  N   UNL     1      -5.226  -2.325   4.680  0.00  0.00    -0.360 N 
ATOM     34  C   UNL     1      -4.537  -3.465   4.989  0.00  0.00    +0.087 A 
ATOM     35  C   UNL     1      -4.354  -4.204   3.883  0.00  0.00    -0.021 A 
ATOM     36  C   UNL     1      -4.978  -3.478   2.774  0.00  0.00    +0.006 A 
ATOM     37  C   UNL     1      -5.120  -3.731   1.409  0.00  0.00    +0.056 A 
ATOM     38  H   UNL     1      -5.476  -1.635   5.315  0.00  0.00    +0.165 HD
BRANCH  29  40
ATOM     39  C   UNL     1      -6.611  -2.070  -1.488  0.00  0.00    +0.277 C 
ATOM     40  O   UNL     1      -5.915  -3.054  -0.721  0.00  0.00    -0.495 OA
ENDBRANCH  29  40
ENDBRANCH  28  35
ENDBRANCH  27  28
ENDBRANCH  23  27
ENDBRANCH   1  24
TORSDOF 6
