REMARK  Name = ZINC09505395
REMARK  11 active torsions:
REMARK  status: ('A' for Active; 'I' for Inactive)
REMARK    1  A    between atoms: C_1  and  C_2
REMARK    2  A    between atoms: C_2  and  C_33
REMARK    3  A    between atoms: C_5  and  C_29
REMARK    4  A    between atoms: C_6  and  N_12
REMARK    5  A    between atoms: C_9  and  C_10
REMARK    6  A    between atoms: C_9  and  C_11
REMARK    7  A    between atoms: C_13  and  C_15
REMARK    8  A    between atoms: N_20  and  S_21
REMARK    9  A    between atoms: S_21  and  C_24
REMARK   10  A    between atoms: C_29  and  O_31
REMARK   11  A    between atoms: O_31  and  C_32
REMARK                            x       y       z     vdW  Elec       q    Type
REMARK                         _______ _______ _______ _____ _____    ______ ____
ROOT
ATOM      1  C   UNL     1      -1.996   0.987  -0.495  0.00  0.00    -0.010 C 
ATOM      2  C   UNL     1      -0.498   1.229  -0.762  0.00  0.00    -0.069 C 
ATOM      3  C   UNL     1      -0.175   2.670  -0.350  0.00  0.00    +0.024 C 
ATOM      4  C   UNL     1       1.327   2.866  -0.506  0.00  0.00    -0.024 A 
ATOM      5  C   UNL     1       1.991   4.108  -0.841  0.00  0.00    +0.091 A 
ATOM      6  C   UNL     1       3.378   4.080  -0.951  0.00  0.00    +0.086 A 
ATOM      7  S   UNL     1       3.770   2.429  -0.602  0.00  0.00    -0.079 S 
ATOM      8  C   UNL     1       2.140   1.801  -0.319  0.00  0.00    -0.016 A 
ATOM      9  C   UNL     1       1.721   0.414   0.044  0.00  0.00    -0.041 C 
ATOM     10  C   UNL     1       2.212   0.117   1.474  0.00  0.00    -0.005 C 
ATOM     11  C   UNL     1       2.397  -0.586  -0.905  0.00  0.00    -0.005 C 
ATOM     12  C   UNL     1      -0.257   1.068  -2.266  0.00  0.00    -0.010 C 
ATOM     13  N   UNL     1       0.244   0.211   0.026  0.00  0.00    +0.389 N 
ATOM     14  H   UNL     1       0.050  -0.713  -0.377  0.00  0.00    -0.084 HD
ATOM     15  H   UNL     1      -0.098   0.241   0.994  0.00  0.00    -0.084 HD
ENDROOT
BRANCH   6  16
ATOM     16  N   UNL     1       4.236   5.122  -1.266  0.00  0.00    -0.278 N 
ATOM     17  C   UNL     1       5.564   4.906  -1.330  0.00  0.00    +0.236 C 
ATOM     18  O   UNL     1       6.009   3.799  -1.112  0.00  0.00    -0.274 OA
ATOM     19  H   UNL     1       3.880   6.008  -1.440  0.00  0.00    +0.155 HD
BRANCH  17  20
ATOM     20  C   UNL     1       6.497   6.039  -1.672  0.00  0.00    +0.166 C 
ATOM     21  C   UNL     1       6.778   6.065  -3.195  0.00  0.00    +0.031 C 
ATOM     22  C   UNL     1       8.144   6.798  -3.248  0.00  0.00    +0.019 C 
ATOM     23  C   UNL     1       8.857   6.291  -1.976  0.00  0.00    +0.110 C 
ATOM     24  N   UNL     1       7.815   5.825  -1.046  0.00  0.00    -0.164 NA
BRANCH  24  25
ATOM     25  S   UNL     1       8.077   5.169   0.451  0.00  0.00    +0.068 S 
ATOM     26  O   UNL     1       9.249   5.787   0.966  0.00  0.00    -0.152 OA
ATOM     27  O   UNL     1       6.832   5.208   1.135  0.00  0.00    -0.152 OA
BRANCH  25  28
ATOM     28  C   UNL     1       8.469   3.468   0.213  0.00  0.00    +0.143 A 
ATOM     29  C   UNL     1       9.658   2.902  -0.106  0.00  0.00    +0.036 A 
ATOM     30  C   UNL     1       9.733   1.528  -0.240  0.00  0.00    +0.010 A 
ATOM     31  C   UNL     1       8.612   0.788  -0.058  0.00  0.00    +0.047 A 
ATOM     32  S   UNL     1       7.400   2.042   0.323  0.00  0.00    -0.077 S 
ENDBRANCH  25  28
ENDBRANCH  24  25
ENDBRANCH  17  20
ENDBRANCH   6  16
BRANCH   5  33
ATOM     33  C   UNL     1       1.246   5.351  -1.053  0.00  0.00    +0.342 C 
ATOM     34  O   UNL     1       0.851   5.641  -2.166  0.00  0.00    -0.245 OA
BRANCH  33  35
ATOM     35  O   UNL     1       0.999   6.175  -0.014  0.00  0.00    -0.464 OA
ATOM     36  C   UNL     1       0.256   7.390  -0.297  0.00  0.00    +0.280 C 
ENDBRANCH  33  35
ENDBRANCH   5  33
TORSDOF 6
