REMARK  Name = ZINC08430235
REMARK  3 active torsions:
REMARK  status: ('A' for Active; 'I' for Inactive)
REMARK    1  A    between atoms: C_1  and  C_2
REMARK    2  A    between atoms: C_5  and  C_8
REMARK    3  A    between atoms: C_13  and  C_23
REMARK                            x       y       z     vdW  Elec       q    Type
REMARK                         _______ _______ _______ _____ _____    ______ ____
ROOT
ATOM      1  C   UNL     1      -3.409   1.294  -4.158  0.00  0.00    +0.032 C 
ATOM      2  C   UNL     1      -3.645  -0.105  -3.592  0.00  0.00    +0.059 C 
ATOM      3  C   UNL     1      -3.060  -0.207  -2.193  0.00  0.00    +0.017 C 
ATOM      4  C   UNL     1      -3.025   0.869  -1.388  0.00  0.00    +0.037 C 
ATOM      5  C   UNL     1      -2.481   0.905   0.020  0.00  0.00    +0.143 C 
ATOM      6  N   UNL     1      -2.207  -0.396   0.592  0.00  0.00    -0.331 N 
ATOM      7  C   UNL     1      -1.222  -1.224   0.056  0.00  0.00    +0.049 A 
ATOM      8  C   UNL     1      -0.060  -1.511   0.754  0.00  0.00    +0.025 A 
ATOM      9  C   UNL     1       0.940  -2.244   0.138  0.00  0.00    +0.002 A 
ATOM     10  C   UNL     1       0.783  -2.687  -1.162  0.00  0.00    +0.002 A 
ATOM     11  C   UNL     1      -0.386  -2.420  -1.855  0.00  0.00    +0.025 A 
ATOM     12  C   UNL     1      -1.394  -1.704  -1.234  0.00  0.00    +0.052 A 
ATOM     13  N   UNL     1      -2.611  -1.441  -1.852  0.00  0.00    -0.316 N 
ATOM     14  C   UNL     1      -3.526   2.113  -1.840  0.00  0.00    +0.163 C 
ATOM     15  O   UNL     1      -3.501   3.065  -1.084  0.00  0.00    -0.292 OA
ATOM     16  C   UNL     1      -4.087   2.298  -3.218  0.00  0.00    +0.088 C 
ATOM     17  H   UNL     1      -2.717  -0.697   1.361  0.00  0.00    +0.147 HD
ATOM     18  H   UNL     1      -3.183  -2.198  -2.055  0.00  0.00    +0.152 HD
ENDROOT
BRANCH   5  19
ATOM     19  C   UNL     1      -1.203   1.703   0.017  0.00  0.00    +0.059 A 
ATOM     20  C   UNL     1      -0.556   1.943  -1.138  0.00  0.00    +0.205 A 
ATOM     21  O   UNL     1       0.577   2.648  -1.202  0.00  0.00    -0.461 OA
ATOM     22  C   UNL     1       1.166   3.172  -0.107  0.00  0.00    +0.157 A 
ATOM     23  C   UNL     1       0.581   2.981   1.155  0.00  0.00    +0.067 A 
ATOM     24  C   UNL     1      -0.670   2.203   1.235  0.00  0.00    +0.198 A 
ATOM     25  O   UNL     1      -1.226   2.002   2.301  0.00  0.00    -0.287 OA
ATOM     26  C   UNL     1       1.178   3.518   2.294  0.00  0.00    +0.035 A 
ATOM     27  C   UNL     1       2.348   4.239   2.173  0.00  0.00    +0.043 A 
ATOM     28  C   UNL     1       2.927   4.429   0.926  0.00  0.00    +0.043 A 
ATOM     29  C   UNL     1       2.345   3.902  -0.209  0.00  0.00    +0.085 A 
ATOM     30 CL   UNL     1       3.083   4.151  -1.760  0.00  0.00    -0.080 Cl
ATOM     31 CL   UNL     1       3.098   4.912   3.586  0.00  0.00    -0.083 Cl
ENDBRANCH   5  19
BRANCH   1  36
ATOM     32  C   UNL     1      -5.719   1.686  -9.440  0.00  0.00    +0.044 C 
ATOM     33  C   UNL     1      -5.116   1.583  -8.062  0.00  0.00    -0.050 A 
ATOM     34  C   UNL     1      -3.767   1.821  -7.879  0.00  0.00    +0.003 A 
ATOM     35  C   UNL     1      -3.214   1.728  -6.615  0.00  0.00    +0.004 A 
ATOM     36  C   UNL     1      -4.011   1.396  -5.535  0.00  0.00    -0.043 A 
ATOM     37  C   UNL     1      -5.359   1.153  -5.720  0.00  0.00    +0.004 A 
ATOM     38  C   UNL     1      -5.913   1.250  -6.983  0.00  0.00    +0.003 A 
ENDBRANCH   1  36
TORSDOF 2
