REMARK  Name = ZINC06552658
REMARK  4 active torsions:
REMARK  status: ('A' for Active; 'I' for Inactive)
REMARK    1  A    between atoms: C_3  and  S_22
REMARK    2  A    between atoms: C_6  and  N_7
REMARK    3  A    between atoms: C_8  and  C_9
REMARK    4  A    between atoms: S_22  and  N_25
REMARK                            x       y       z     vdW  Elec       q    Type
REMARK                         _______ _______ _______ _____ _____    ______ ____
ROOT
ATOM      1  N   UNL     1      -1.176  -0.710   0.010  0.00  0.00    -0.258 NA
ATOM      2  C   UNL     1      -1.331  -1.715  -0.784  0.00  0.00    +0.110 C 
ENDROOT
BRANCH   2   3
ATOM      3  C   UNL     1      -2.624  -2.489  -0.776  0.00  0.00    +0.247 C 
ATOM      4  C   UNL     1      -3.240  -2.488  -2.163  0.00  0.00    +0.330 C 
ATOM      5  O   UNL     1      -2.704  -3.336  -3.071  0.00  0.00    -0.421 OA
ATOM      6  C   UNL     1      -2.563  -4.694  -2.640  0.00  0.00    +0.259 C 
ATOM      7  C   UNL     1      -1.781  -5.482  -3.692  0.00  0.00    +0.093 C 
ATOM      8  C   UNL     1      -2.534  -5.444  -5.023  0.00  0.00    +0.008 C 
ATOM      9  C   UNL     1      -3.920  -6.068  -4.842  0.00  0.00    +0.000 C 
ATOM     10  C   UNL     1      -4.702  -5.278  -3.791  0.00  0.00    +0.008 C 
ATOM     11  C   UNL     1      -3.948  -5.317  -2.459  0.00  0.00    +0.093 C 
ATOM     12  O   UNL     1      -1.858  -4.730  -1.395  0.00  0.00    -0.421 OA
ATOM     13  C   UNL     1      -2.358  -3.940  -0.417  0.00  0.00    +0.330 C 
ATOM     14  O   UNL     1      -2.582  -4.369   0.690  0.00  0.00    -0.249 OA
ATOM     15  O   UNL     1      -4.165  -1.763  -2.444  0.00  0.00    -0.249 OA
ENDBRANCH   2   3
BRANCH   1  21
ATOM     16  C   UNL     1      -0.017   1.391   0.010  0.00  0.00    +0.029 A 
ATOM     17  C   UNL     1       1.170   2.094   0.002  0.00  0.00    +0.030 A 
ATOM     18  C   UNL     1       2.378   1.419  -0.013  0.00  0.00    +0.105 A 
ATOM     19  C   UNL     1       2.403   0.035  -0.021  0.00  0.00    +0.030 A 
ATOM     20  C   UNL     1       1.223  -0.679  -0.014  0.00  0.00    +0.029 A 
ATOM     21  C   UNL     1       0.002  -0.004   0.002  0.00  0.00    +0.064 A 
BRANCH  18  22
ATOM     22  S   UNL     1       3.889   2.324  -0.023  0.00  0.00    +0.056 S 
ATOM     23  O   UNL     1       4.872   1.467  -0.587  0.00  0.00    -0.153 OA
ATOM     24  O   UNL     1       3.593   3.604  -0.564  0.00  0.00    -0.153 OA
BRANCH  22  25
ATOM     25  N   UNL     1       4.324   2.567   1.557  0.00  0.00    -0.204 NA
ATOM     26  H   UNL     1       3.766   2.224   2.272  0.00  0.00    +0.144 HD
ATOM     27  H   UNL     1       5.138   3.052   1.766  0.00  0.00    +0.144 HD
ENDBRANCH  22  25
ENDBRANCH  18  22
ENDBRANCH   1  21
TORSDOF 4
