REMARK  Name = ZINC19927702
REMARK  14 active torsions:
REMARK  status: ('A' for Active; 'I' for Inactive)
REMARK    1  A    between atoms: C_1  and  C_2
REMARK    2  A    between atoms: C_3  and  C_36
REMARK    3  A    between atoms: C_9  and  C_35
REMARK    4  A    between atoms: C_20  and  O_31
REMARK    5  A    between atoms: C_24  and  C_30
REMARK    6  A    between atoms: O_31  and  C_32
REMARK    7  A    between atoms: C_32  and  C_34
REMARK    8  A    between atoms: C_36  and  C_37
REMARK    9  A    between atoms: C_37  and  C_38
REMARK   10  A    between atoms: C_38  and  C_40
REMARK   11  A    between atoms: C_38  and  C_41
REMARK   12  A    between atoms: C_41  and  O_42
REMARK   13  A    between atoms: O_42  and  C_43
REMARK   14  A    between atoms: C_43  and  C_45
REMARK                            x       y       z     vdW  Elec       q    Type
REMARK                         _______ _______ _______ _____ _____    ______ ____
ROOT
ATOM      1  C   UNL     1      -0.826   1.026   2.983  0.00  0.00    +0.043 C 
ATOM      2  C   UNL     1      -0.814  -0.349   2.367  0.00  0.00    -0.028 C 
ATOM      3  C   UNL     1      -0.649  -1.474   3.039  0.00  0.00    +0.098 C 
ATOM      4  O   UNL     1      -0.693  -2.578   2.260  0.00  0.00    -0.492 OA
ATOM      5  C   UNL     1      -0.430  -2.180   0.902  0.00  0.00    +0.181 C 
ATOM      6  C   UNL     1      -1.013  -0.716   0.914  0.00  0.00    +0.072 C 
ATOM      7  C   UNL     1       0.002  -0.004   0.002  0.00  0.00    +0.039 C 
ATOM      8  C   UNL     1       1.321  -0.511   0.614  0.00  0.00    +0.010 C 
ATOM      9  C   UNL     1       1.097  -2.020   0.707  0.00  0.00    +0.050 C 
ATOM     10  C   UNL     1       2.563  -0.034  -0.105  0.00  0.00    -0.003 C 
ATOM     11  C   UNL     1       3.643   0.152   0.970  0.00  0.00    +0.004 C 
ATOM     12  C   UNL     1       4.900   0.801   0.404  0.00  0.00    +0.004 C 
ATOM     13  C   UNL     1       4.534   2.167  -0.176  0.00  0.00    -0.001 C 
ATOM     14  C   UNL     1       5.790   2.886  -0.661  0.00  0.00    +0.048 C 
ATOM     15  C   UNL     1       5.418   4.256  -1.229  0.00  0.00    +0.177 C 
ATOM     16  C   UNL     1       4.418   4.091  -2.373  0.00  0.00    +0.045 C 
ATOM     17  C   UNL     1       3.167   3.368  -1.877  0.00  0.00    +0.011 C 
ATOM     18  C   UNL     1       3.531   1.993  -1.310  0.00  0.00    -0.026 C 
ATOM     19  C   UNL     1       2.281   1.275  -0.830  0.00  0.00    +0.006 C 
ATOM     20  C   UNL     1       1.358   2.165   0.001  0.00  0.00    +0.079 C 
ATOM     21  C   UNL     1      -0.018   1.490   0.010  0.00  0.00    +0.140 C 
ATOM     22  O   UNL     1      -1.048   2.136   0.014  0.00  0.00    -0.297 OA
ATOM     23  C   UNL     1       4.148   1.154  -2.438  0.00  0.00    +0.012 C 
ATOM     24  C   UNL     1      -0.201  -0.536  -1.426  0.00  0.00    +0.020 C 
ENDROOT
BRANCH  15  25
ATOM     25  O   UNL     1       6.614   4.915  -1.722  0.00  0.00    -0.462 OA
BRANCH  25  26
ATOM     26  C   UNL     1       6.638   6.255  -1.666  0.00  0.00    +0.304 C 
ATOM     27  O   UNL     1       5.691   6.859  -1.218  0.00  0.00    -0.251 OA
ATOM     28  C   UNL     1       7.846   7.008  -2.160  0.00  0.00    +0.136 C 
ENDBRANCH  25  26
ENDBRANCH  15  25
BRANCH   3  29
ATOM     29  C   UNL     1      -0.438  -1.518   4.529  0.00  0.00    +0.074 C 
BRANCH  29  30
ATOM     30  C   UNL     1      -1.780  -1.743   5.228  0.00  0.00    +0.014 C 
BRANCH  30  31
ATOM     31  C   UNL     1      -1.566  -1.788   6.742  0.00  0.00    +0.024 C 
ATOM     32  C   UNL     1      -0.714  -3.007   7.100  0.00  0.00    +0.011 C 
BRANCH  31  33
ATOM     33  C   UNL     1      -2.921  -1.887   7.446  0.00  0.00    +0.235 C 
BRANCH  33  34
ATOM     34  O   UNL     1      -2.726  -1.811   8.883  0.00  0.00    -0.465 OA
BRANCH  34  35
ATOM     35  C   UNL     1      -3.825  -1.884   9.651  0.00  0.00    +0.304 C 
ATOM     36  O   UNL     1      -4.912  -2.007   9.140  0.00  0.00    -0.251 OA
ATOM     37  C   UNL     1      -3.701  -1.812  11.151  0.00  0.00    +0.136 C 
ENDBRANCH  34  35
ENDBRANCH  33  34
ENDBRANCH  31  33
ENDBRANCH  30  31
ENDBRANCH  29  30
ENDBRANCH   3  29
TORSDOF 8
