REMARK  Name = ZINC23099685
REMARK  7 active torsions:
REMARK  status: ('A' for Active; 'I' for Inactive)
REMARK    1  A    between atoms: C_1  and  C_2
REMARK    2  A    between atoms: C_5  and  C_8
REMARK    3  A    between atoms: C_10  and  C_18
REMARK    4  A    between atoms: C_23  and  C_26
REMARK    5  A    between atoms: C_26  and  C_27
REMARK    6  A    between atoms: N_33  and  C_34
REMARK    7  A    between atoms: C_34  and  C_35
REMARK                            x       y       z     vdW  Elec       q    Type
REMARK                         _______ _______ _______ _____ _____    ______ ____
ROOT
ATOM      1  C   UNL     1      -2.581   1.450   0.047  0.00  0.00    +0.250 C 
ATOM      2  O   UNL     1      -2.628   0.239  -0.048  0.00  0.00    -0.270 OA
ATOM      3  N   UNL     1      -3.719   2.161   0.165  0.00  0.00    -0.261 N 
ATOM      4  C   UNL     1      -4.946   1.511   0.179  0.00  0.00    +0.165 A 
ATOM      5  N   UNL     1      -6.156   2.025   0.291  0.00  0.00    -0.229 NA
ATOM      6  C   UNL     1      -7.228   1.258   0.281  0.00  0.00    +0.058 A 
ATOM      7  C   UNL     1      -7.062  -0.083   0.165  0.00  0.00    +0.072 A 
ATOM      8  S   UNL     1      -5.281  -0.189   0.061  0.00  0.00    -0.060 S 
ATOM      9  H   UNL     1      -3.677   3.257   0.251  0.00  0.00    +0.157 HD
ENDROOT
BRANCH   1  12
ATOM     10  C   UNL     1       0.069   4.143   0.012  0.00  0.00    +0.072 A 
ATOM     11  C   UNL     1      -1.192   3.528   0.021  0.00  0.00    +0.042 A 
ATOM     12  C   UNL     1      -1.275   2.143   0.032  0.00  0.00    +0.048 A 
ATOM     13  C   UNL     1      -0.017   1.395   0.025  0.00  0.00    +0.013 A 
ATOM     14  C   UNL     1       0.002  -0.004   0.032  0.00  0.00    +0.011 A 
ATOM     15  C   UNL     1       1.197  -0.661   0.031  0.00  0.00    +0.001 A 
ATOM     16  C   UNL     1       2.399   0.043   0.022  0.00  0.00    +0.002 A 
ATOM     17  C   UNL     1       2.417   1.404   0.015  0.00  0.00    +0.028 A 
ATOM     18  C   UNL     1       1.203   2.117   0.016  0.00  0.00    +0.072 A 
ATOM     19  N   UNL     1       1.189   3.451   0.010  0.00  0.00    -0.247 NA
BRANCH  10  24
ATOM     20  C   UNL     1       0.356   9.894  -0.015  0.00  0.00    +0.044 C 
ATOM     21  C   UNL     1       0.281   8.389  -0.008  0.00  0.00    -0.050 A 
ATOM     22  C   UNL     1       1.445   7.641  -0.010  0.00  0.00    +0.004 A 
ATOM     23  C   UNL     1       1.382   6.262  -0.003  0.00  0.00    +0.010 A 
ATOM     24  C   UNL     1       0.143   5.624   0.005  0.00  0.00    +0.000 A 
ATOM     25  C   UNL     1      -1.026   6.383   0.001  0.00  0.00    +0.010 A 
ATOM     26  C   UNL     1      -0.951   7.761   0.001  0.00  0.00    +0.004 A 
ENDBRANCH  10  24
ENDBRANCH   1  12
BRANCH   6  27
ATOM     27  C   UNL     1      -8.605   1.856   0.404  0.00  0.00    +0.132 C 
BRANCH  27  28
ATOM     28  C   UNL     1      -8.675   2.708   1.645  0.00  0.00    +0.138 A 
ATOM     29  N   UNL     1      -9.028   2.299   2.820  0.00  0.00    -0.158 NA
ATOM     30  N   UNL     1      -8.959   3.388   3.700  0.00  0.00    -0.254 N 
ATOM     31  H   UNL     1      -9.215   3.254   4.762  0.00  0.00    +0.191 HD
ATOM     32  C   UNL     1      -8.556   4.458   2.984  0.00  0.00    +0.176 A 
ATOM     33  S   UNL     1      -8.316   6.045   3.580  0.00  0.00    -0.011 S 
ATOM     34  N   UNL     1      -8.378   4.047   1.712  0.00  0.00    -0.303 N 
BRANCH  34  35
ATOM     35  C   UNL     1      -7.942   4.886   0.593  0.00  0.00    +0.152 C 
BRANCH  35  36
ATOM     36  C   UNL     1      -9.147   5.489  -0.082  0.00  0.00    -0.013 C 
ATOM     37  C   UNL     1      -9.234   6.787  -0.231  0.00  0.00    +0.005 C 
ENDBRANCH  35  36
ENDBRANCH  34  35
ENDBRANCH  27  28
ENDBRANCH   6  27
TORSDOF 6
