REMARK  Name = ZINC25444022
REMARK  7 active torsions:
REMARK  status: ('A' for Active; 'I' for Inactive)
REMARK    1  A    between atoms: C_1  and  N_2
REMARK    2  A    between atoms: N_2  and  C_3
REMARK    3  A    between atoms: N_2  and  C_4
REMARK    4  A    between atoms: C_4  and  C_11
REMARK    5  A    between atoms: C_11  and  N_12
REMARK    6  A    between atoms: C_13  and  C_15
REMARK    7  A    between atoms: C_20  and  C_21
REMARK                            x       y       z     vdW  Elec       q    Type
REMARK                         _______ _______ _______ _____ _____    ______ ____
ROOT
ATOM      1  N   UNL     1      -6.822   0.781   1.407  0.00  0.00    -0.313 N 
ATOM      2  C   UNL     1      -5.803   0.325   0.652  0.00  0.00    +0.248 C 
ATOM      3  O   UNL     1      -4.654   0.530   0.994  0.00  0.00    -0.270 OA
ATOM      4  H   UNL     1      -7.862   0.595   1.097  0.00  0.00    +0.149 HD
ENDROOT
BRANCH   2   5
ATOM      5  C   UNL     1      -6.080  -0.420  -0.588  0.00  0.00    +0.082 A 
ATOM      6  C   UNL     1      -7.321  -0.727  -1.108  0.00  0.00    +0.118 A 
ATOM      7  N   UNL     1      -7.133  -1.418  -2.242  0.00  0.00    -0.283 N 
ATOM      8  H   UNL     1      -7.999  -1.770  -2.822  0.00  0.00    +0.188 HD
ATOM      9  N   UNL     1      -5.764  -1.566  -2.481  0.00  0.00    -0.173 NA
ATOM     10  C   UNL     1      -5.093  -0.980  -1.516  0.00  0.00    +0.105 A 
BRANCH  10  11
ATOM     11  C   UNL     1      -3.618  -0.903  -1.386  0.00  0.00    +0.007 A 
ATOM     12  C   UNL     1      -3.022   0.235  -0.845  0.00  0.00    +0.014 A 
ATOM     13  C   UNL     1      -1.650   0.306  -0.731  0.00  0.00    +0.050 A 
ATOM     14  C   UNL     1      -0.857  -0.756  -1.145  0.00  0.00    +0.162 A 
ATOM     15  C   UNL     1      -1.447  -1.895  -1.684  0.00  0.00    +0.163 A 
ATOM     16  C   UNL     1      -2.824  -1.969  -1.805  0.00  0.00    +0.059 A 
ATOM     17  O   UNL     1      -0.685  -2.946  -2.095  0.00  0.00    -0.485 OA
ATOM     18  C   UNL     1       0.708  -2.687  -2.305  0.00  0.00    +0.270 C 
ATOM     19  C   UNL     1       1.234  -1.888  -1.106  0.00  0.00    +0.270 C 
ATOM     20  O   UNL     1       0.495  -0.664  -1.024  0.00  0.00    -0.485 OA
ENDBRANCH  10  11
ENDBRANCH   2   5
BRANCH   1  21
ATOM     21  C   UNL     1      -6.547   1.522   2.640  0.00  0.00    +0.092 C 
BRANCH  21  22
ATOM     22  C   UNL     1      -7.861   2.037   3.230  0.00  0.00    -0.050 C 
ATOM     23  C   UNL     1      -7.650   3.408   3.813  0.00  0.00    -0.010 C 
ATOM     24  C   UNL     1      -6.187   3.647   4.241  0.00  0.00    -0.001 C 
ATOM     25  C   UNL     1      -5.559   2.425   4.938  0.00  0.00    -0.000 C 
ATOM     26  C   UNL     1      -6.504   1.766   5.906  0.00  0.00    -0.000 C 
ATOM     27  C   UNL     1      -7.229   0.616   5.177  0.00  0.00    -0.001 C 
ATOM     28  C   UNL     1      -8.331   1.090   4.353  0.00  0.00    -0.010 C 
BRANCH  22  30
ATOM     29  C   UNL     1     -10.186   2.494   2.731  0.00  0.00    -0.096 C 
ATOM     30  N   UNL     1      -8.883   2.100   2.177  0.00  0.00    +0.381 N 
ATOM     31  C   UNL     1      -8.473   3.010   1.099  0.00  0.00    -0.096 C 
ATOM     32  H   UNL     1      -8.989   1.093   1.748  0.00  0.00    -0.082 HD
ENDBRANCH  22  30
ENDBRANCH  21  22
ENDBRANCH   1  21
TORSDOF 5
