REMARK  Name = ZINC39686644
REMARK  11 active torsions:
REMARK  status: ('A' for Active; 'I' for Inactive)
REMARK    1  A    between atoms: C_1  and  C_2
REMARK    2  A    between atoms: C_2  and  C_4
REMARK    3  A    between atoms: C_2  and  N_13
REMARK    4  A    between atoms: C_4  and  C_5
REMARK    5  A    between atoms: C_10  and  O_11
REMARK    6  A    between atoms: O_11  and  C_12
REMARK    7  A    between atoms: C_14  and  C_16
REMARK    8  A    between atoms: C_27  and  C_29
REMARK    9  A    between atoms: C_32  and  O_39
REMARK   10  A    between atoms: C_33  and  C_35
REMARK   11  A    between atoms: O_39  and  C_40
REMARK                            x       y       z     vdW  Elec       q    Type
REMARK                         _______ _______ _______ _____ _____    ______ ____
ROOT
ATOM      1  C   UNL     1       1.271  -1.373   3.946  0.00  0.00    +0.100 C 
ATOM      2  C   UNL     1       2.291  -0.218   4.066  0.00  0.00    +0.121 C 
ATOM      3  N   UNL     1       1.691   0.712   5.050  0.00  0.00    -0.296 N 
ATOM      4  C   UNL     1       1.086  -0.175   6.073  0.00  0.00    +0.115 C 
ATOM      5  C   UNL     1       0.484  -1.343   5.267  0.00  0.00    -0.004 C 
ATOM      6  C   UNL     1      -0.995  -1.087   4.995  0.00  0.00    -0.010 C 
ATOM      7  C   UNL     1      -1.765  -1.118   6.318  0.00  0.00    -0.082 C 
ATOM      8  N   UNL     1      -1.584  -2.425   6.962  0.00  0.00    +0.379 N 
ATOM      9  C   UNL     1      -0.170  -2.623   7.303  0.00  0.00    -0.082 C 
ATOM     10  C   UNL     1       0.667  -2.655   6.022  0.00  0.00    -0.010 C 
ATOM     11  C   UNL     1       1.694   2.059   5.023  0.00  0.00    +0.247 C 
ATOM     12  O   UNL     1       2.137   2.646   4.054  0.00  0.00    -0.270 OA
ATOM     13  H   UNL     1      -2.140  -2.465   7.802  0.00  0.00    -0.086 HD
ATOM     14  H   UNL     1      -1.881  -3.154   6.330  0.00  0.00    -0.086 HD
ENDROOT
BRANCH  11  15
ATOM     15  C   UNL     1       1.159   2.822   6.167  0.00  0.00    +0.038 A 
ATOM     16  C   UNL     1       1.067   2.224   7.427  0.00  0.00    +0.016 A 
ATOM     17  C   UNL     1       0.568   2.939   8.492  0.00  0.00    +0.047 A 
ATOM     18  C   UNL     1       0.157   4.255   8.316  0.00  0.00    +0.132 A 
ATOM     19  C   UNL     1       0.247   4.854   7.066  0.00  0.00    +0.097 A 
ATOM     20  C   UNL     1       0.749   4.147   5.996  0.00  0.00    +0.029 A 
BRANCH  19  21
ATOM     21  C   UNL     1      -0.202   6.281   6.881  0.00  0.00    +0.421 C 
ATOM     22  F   UNL     1      -0.016   6.659   5.547  0.00  0.00    -0.166 F 
ATOM     23  F   UNL     1      -1.556   6.391   7.212  0.00  0.00    -0.166 F 
ATOM     24  F   UNL     1       0.551   7.117   7.712  0.00  0.00    -0.166 F 
ENDBRANCH  19  21
BRANCH  18  25
ATOM     25  O   UNL     1      -0.335   4.957   9.369  0.00  0.00    -0.495 OA
ATOM     26  C   UNL     1      -0.400   4.280  10.626  0.00  0.00    +0.277 C 
ENDBRANCH  18  25
ENDBRANCH  11  15
BRANCH   1  28
ATOM     27  N   UNL     1      -0.147  -2.183   2.088  0.00  0.00    -0.312 N 
ATOM     28  C   UNL     1       0.347  -1.137   2.779  0.00  0.00    +0.218 C 
ATOM     29  O   UNL     1       0.047  -0.005   2.462  0.00  0.00    -0.275 OA
ATOM     30  H   UNL     1       0.093  -3.088   2.341  0.00  0.00    +0.149 HD
BRANCH  27  32
ATOM     31  C   UNL     1      -0.219  -1.699  -0.308  0.00  0.00    +0.028 C 
ATOM     32  C   UNL     1      -1.045  -1.954   0.954  0.00  0.00    +0.074 C 
BRANCH  32  33
ATOM     33  C   UNL     1      -1.927  -3.187   0.745  0.00  0.00    +0.060 C 
BRANCH  33  34
ATOM     34  C   UNL     1      -2.830  -3.367   1.938  0.00  0.00    -0.004 A 
ATOM     35  C   UNL     1      -2.456  -4.210   2.967  0.00  0.00    +0.007 A 
ATOM     36  C   UNL     1      -3.284  -4.376   4.061  0.00  0.00    +0.000 A 
ATOM     37  C   UNL     1      -4.487  -3.699   4.130  0.00  0.00    +0.004 A 
ATOM     38  C   UNL     1      -4.865  -2.854   3.105  0.00  0.00    +0.046 A 
ATOM     39  C   UNL     1      -4.034  -2.682   2.008  0.00  0.00    +0.123 A 
BRANCH  39  40
ATOM     40  O   UNL     1      -4.401  -1.847   1.000  0.00  0.00    -0.495 OA
ATOM     41  C   UNL     1      -5.654  -1.174   1.139  0.00  0.00    +0.277 C 
ENDBRANCH  39  40
ENDBRANCH  33  34
ENDBRANCH  32  33
ENDBRANCH  27  32
ENDBRANCH   1  28
TORSDOF 8
