REMARK  Name = ZINC21661245
REMARK  6 active torsions:
REMARK  status: ('A' for Active; 'I' for Inactive)
REMARK    1  A    between atoms: C_1  and  C_2
REMARK    2  A    between atoms: C_2  and  O_3
REMARK    3  A    between atoms: O_3  and  C_4
REMARK    4  A    between atoms: C_16  and  C_18
REMARK    5  A    between atoms: C_19  and  C_25
REMARK    6  A    between atoms: C_26  and  C_30
REMARK                            x       y       z     vdW  Elec       q    Type
REMARK                         _______ _______ _______ _____ _____    ______ ____
ROOT
ATOM      1  C   UNL     1       0.271   4.148   0.022  0.00  0.00    +0.122 A 
ATOM      2  C   UNL     1      -0.988   3.556   0.031  0.00  0.00    +0.048 A 
ATOM      3  C   UNL     1      -1.140   2.205   0.030  0.00  0.00    +0.032 A 
ATOM      4  C   UNL     1      -0.016   1.347   0.009  0.00  0.00    +0.081 A 
ATOM      5  C   UNL     1       1.250   1.976   0.001  0.00  0.00    +0.044 A 
ATOM      6  C   UNL     1       1.399   3.341   0.007  0.00  0.00    +0.063 A 
ATOM      7  S   UNL     1       2.361   0.589  -0.017  0.00  0.00    -0.048 S 
ATOM      8  C   UNL     1       1.117  -0.695  -0.012  0.00  0.00    +0.196 A 
ATOM      9  N   UNL     1       0.002  -0.004   0.002  0.00  0.00    -0.221 NA
ATOM     10  N   UNL     1       1.288  -2.074  -0.021  0.00  0.00    -0.193 N 
ATOM     11  C   UNL     1       0.304  -3.000  -0.011  0.00  0.00    +0.135 A 
ATOM     12  C   UNL     1       0.898  -4.234  -0.038  0.00  0.00    +0.024 A 
ATOM     13  C   UNL     1       2.273  -4.048  -0.047  0.00  0.00    +0.066 A 
ATOM     14  N   UNL     1       2.515  -2.758  -0.035  0.00  0.00    -0.168 NA
ATOM     15  C   UNL     1       3.311  -5.140  -0.066  0.00  0.00    +0.068 C 
ATOM     16  C   UNL     1       0.099  -5.513  -0.055  0.00  0.00    +0.070 C 
ATOM     17  C   UNL     1      -1.238  -5.254   0.647  0.00  0.00    +0.109 C 
ATOM     18  C   UNL     1      -1.838  -3.947   0.210  0.00  0.00    +0.219 C 
ATOM     19  O   UNL     1      -3.038  -3.876   0.049  0.00  0.00    -0.275 OA
ATOM     20  N   UNL     1      -1.082  -2.851  -0.011  0.00  0.00    -0.270 N 
ATOM     21  H   UNL     1      -1.528  -1.861  -0.186  0.00  0.00    +0.156 HD
ENDROOT
BRANCH  16  22
ATOM     22  C   UNL     1      -0.149  -5.939  -1.479  0.00  0.00    +0.001 A 
ATOM     23  C   UNL     1       0.224  -7.081  -2.105  0.00  0.00    -0.040 A 
ATOM     24  C   UNL     1      -0.121  -7.262  -3.432  0.00  0.00    +0.011 A 
ATOM     25  C   UNL     1      -0.811  -6.286  -4.070  0.00  0.00    +0.046 A 
ATOM     26  S   UNL     1      -1.002  -5.065  -2.781  0.00  0.00    -0.101 S 
ATOM     27  C   UNL     1       0.998  -8.141  -1.365  0.00  0.00    +0.044 C 
ENDBRANCH  16  22
BRANCH   1  28
ATOM     28  O   UNL     1       0.395   5.502   0.029  0.00  0.00    -0.492 OA
BRANCH  28  30
ATOM     29  C   UNL     1      -0.476   7.756   0.049  0.00  0.00    +0.048 C 
ATOM     30  C   UNL     1      -0.814   6.264   0.045  0.00  0.00    +0.225 C 
ENDBRANCH  28  30
ENDBRANCH   1  28
TORSDOF 3
