REMARK  Name = ZINC54617551
REMARK  13 active torsions:
REMARK  status: ('A' for Active; 'I' for Inactive)
REMARK    1  A    between atoms: C_1  and  C_2
REMARK    2  A    between atoms: C_2  and  O_3
REMARK    3  A    between atoms: O_3  and  C_4
REMARK    4  A    between atoms: C_9  and  N_10
REMARK    5  A    between atoms: C_11  and  C_13
REMARK    6  A    between atoms: C_14  and  C_37
REMARK    7  A    between atoms: C_18  and  S_34
REMARK    8  A    between atoms: C_21  and  C_23
REMARK    9  A    between atoms: C_26  and  O_32
REMARK   10  A    between atoms: C_27  and  N_29
REMARK   11  A    between atoms: O_32  and  C_33
REMARK   12  A    between atoms: S_34  and  C_35
REMARK   13  A    between atoms: C_35  and  C_36
REMARK                            x       y       z     vdW  Elec       q    Type
REMARK                         _______ _______ _______ _____ _____    ______ ____
ROOT
ATOM      1  C   UNL     1       3.082  -0.817  -5.240  0.00  0.00    +0.060 C 
ATOM      2  C   UNL     1       3.596  -1.342  -6.362  0.00  0.00    +0.018 C 
ATOM      3  N   UNL     1       4.104  -0.558  -7.370  0.00  0.00    -0.287 N 
ATOM      4  C   UNL     1       4.313   0.785  -7.092  0.00  0.00    +0.219 A 
ATOM      5  N   UNL     1       4.971   1.690  -7.764  0.00  0.00    -0.187 NA
ATOM      6  C   UNL     1       4.915   2.861  -7.113  0.00  0.00    +0.210 A 
ATOM      7  N   UNL     1       4.212   2.706  -6.012  0.00  0.00    -0.141 NA
ATOM      8  N   UNL     1       3.809   1.372  -5.978  0.00  0.00    -0.220 N 
ATOM      9  C   UNL     1       2.997   0.665  -4.989  0.00  0.00    +0.177 C 
ATOM     10  C   UNL     1       3.618  -2.840  -6.523  0.00  0.00    +0.061 C 
ATOM     11  H   UNL     1       4.308  -0.930  -8.243  0.00  0.00    +0.155 HD
ENDROOT
BRANCH   9  12
ATOM     12  C   UNL     1       1.562   1.111  -5.099  0.00  0.00    -0.016 A 
ATOM     13  C   UNL     1       0.858   0.890  -6.269  0.00  0.00    +0.010 A 
ATOM     14  C   UNL     1      -0.458   1.299  -6.371  0.00  0.00    +0.048 A 
ATOM     15  C   UNL     1      -1.073   1.930  -5.300  0.00  0.00    +0.150 A 
ATOM     16  C   UNL     1      -0.364   2.150  -4.128  0.00  0.00    +0.168 A 
ATOM     17  C   UNL     1       0.950   1.735  -4.028  0.00  0.00    +0.042 A 
BRANCH  16  18
ATOM     18  N   UNL     1      -1.017   2.823  -2.983  0.00  0.00    +0.060 N 
ATOM     19  O   UNL     1      -0.391   3.042  -1.972  0.00  0.00    -0.126 OA
ATOM     20  O   UNL     1      -2.177   3.155  -3.058  0.00  0.00    -0.126 OA
ENDBRANCH  16  18
BRANCH  15  21
ATOM     21  O   UNL     1      -2.367   2.333  -5.399  0.00  0.00    -0.493 OA
ATOM     22  C   UNL     1      -3.034   2.075  -6.636  0.00  0.00    +0.277 C 
ENDBRANCH  15  21
ENDBRANCH   9  12
BRANCH   1  24
ATOM     23  N   UNL     1       1.383  -2.275  -4.396  0.00  0.00    -0.279 N 
ATOM     24  C   UNL     1       2.592  -1.698  -4.248  0.00  0.00    +0.248 C 
ATOM     25  O   UNL     1       3.262  -1.936  -3.259  0.00  0.00    -0.270 OA
ATOM     26  H   UNL     1       0.865  -2.115  -5.201  0.00  0.00    +0.155 HD
BRANCH  23  32
ATOM     27  C   UNL     1      -0.503  -3.246  -3.230  0.00  0.00    +0.142 A 
ATOM     28  C   UNL     1      -1.000  -4.073  -2.236  0.00  0.00    +0.047 A 
ATOM     29  C   UNL     1      -0.132  -4.750  -1.401  0.00  0.00    +0.004 A 
ATOM     30  C   UNL     1       1.235  -4.606  -1.554  0.00  0.00    +0.002 A 
ATOM     31  C   UNL     1       1.739  -3.783  -2.543  0.00  0.00    +0.027 A 
ATOM     32  C   UNL     1       0.874  -3.104  -3.389  0.00  0.00    +0.076 A 
BRANCH  27  33
ATOM     33  O   UNL     1      -1.356  -2.579  -4.052  0.00  0.00    -0.490 OA
BRANCH  33  35
ATOM     34  C   UNL     1      -3.551  -1.924  -4.823  0.00  0.00    +0.048 C 
ATOM     35  C   UNL     1      -2.752  -2.694  -3.769  0.00  0.00    +0.226 C 
ENDBRANCH  33  35
ENDBRANCH  27  33
ENDBRANCH  23  32
ENDBRANCH   1  24
BRANCH   6  36
ATOM     36  S   UNL     1       5.664   4.364  -7.646  0.00  0.00    -0.085 S 
BRANCH  36  37
ATOM     37  C   UNL     1       6.473   3.923  -9.208  0.00  0.00    +0.074 C 
ATOM     38  C   UNL     1       7.171   5.155  -9.787  0.00  0.00    +0.016 C 
ENDBRANCH  36  37
ENDBRANCH   6  36
TORSDOF 9
