REMARK  Name = ZINC00826081
REMARK  12 active torsions:
REMARK  status: ('A' for Active; 'I' for Inactive)
REMARK    1  A    between atoms: C_1  and  C_2
REMARK    2  A    between atoms: C_2  and  C_28
REMARK    3  A    between atoms: C_4  and  C_8
REMARK    4  A    between atoms: C_4  and  C_15
REMARK    5  A    between atoms: C_8  and  C_9
REMARK    6  A    between atoms: C_15  and  C_17
REMARK    7  A    between atoms: C_15  and  C_26
REMARK    8  A    between atoms: C_17  and  N_60
REMARK    9  A    between atoms: C_18  and  C_19
REMARK   10  A    between atoms: C_18  and  N_60
REMARK   11  A    between atoms: C_22  and  O_25
REMARK   12  A    between atoms: C_26  and  O_27
REMARK                            x       y       z     vdW  Elec       q    Type
REMARK                         _______ _______ _______ _____ _____    ______ ____
ROOT
ATOM      1  C   UNL     1       3.542   1.440  -0.870  0.00  0.00    +0.004 C 
ENDROOT
BRANCH   1   5
ATOM      2  C   UNL     1       0.180  -1.769  -2.710  0.00  0.00    +0.041 C 
ATOM      3  C   UNL     1       0.404  -0.339  -2.214  0.00  0.00    +0.064 C 
ATOM      4  C   UNL     1       1.880  -0.148  -1.856  0.00  0.00    +0.042 C 
ATOM      5  C   UNL     1       2.085   1.266  -1.304  0.00  0.00    -0.017 C 
ATOM      6  C   UNL     1       1.163   1.469  -0.097  0.00  0.00    +0.035 C 
ATOM      7  C   UNL     1      -0.285   1.216  -0.523  0.00  0.00    +0.161 C 
ATOM      8  O   UNL     1      -0.400  -0.105  -1.055  0.00  0.00    -0.374 OA
ATOM      9  C   UNL     1       0.014   0.650  -3.314  0.00  0.00    +0.041 C 
BRANCH   5  10
ATOM     10  C   UNL     1       1.745   2.292  -2.386  0.00  0.00    +0.042 C 
BRANCH  10  11
ATOM     11  C   UNL     1       2.125   3.670  -1.909  0.00  0.00    -0.047 A 
ATOM     12  C   UNL     1       1.255   4.390  -1.111  0.00  0.00    +0.003 A 
ATOM     13  C   UNL     1       1.606   5.652  -0.669  0.00  0.00    +0.000 A 
ATOM     14  C   UNL     1       2.822   6.199  -1.033  0.00  0.00    +0.000 A 
ATOM     15  C   UNL     1       3.690   5.481  -1.835  0.00  0.00    +0.000 A 
ATOM     16  C   UNL     1       3.341   4.217  -2.273  0.00  0.00    +0.003 A 
ENDBRANCH  10  11
ENDBRANCH   5  10
ENDBRANCH   1   5
BRANCH   1  17
ATOM     17  C   UNL     1       3.793   0.638   0.409  0.00  0.00    -0.076 C 
BRANCH  17  18
ATOM     18  N   UNL     1       5.162   0.907   0.887  0.00  0.00    +0.382 N 
ATOM     19  H   UNL     1       5.264   1.910   1.079  0.00  0.00    -0.085 HD
ATOM     20  H   UNL     1       5.834   0.627   0.163  0.00  0.00    -0.085 HD
BRANCH  18  21
ATOM     21  C   UNL     1       5.432   0.145   2.121  0.00  0.00    -0.047 C 
BRANCH  21  22
ATOM     22  C   UNL     1       6.836   0.438   2.585  0.00  0.00    -0.064 A 
ATOM     23  C   UNL     1       7.886  -0.348   2.147  0.00  0.00    +0.005 A 
ATOM     24  C   UNL     1       9.174  -0.077   2.567  0.00  0.00    +0.045 A 
ATOM     25  C   UNL     1       9.412   0.976   3.437  0.00  0.00    +0.117 A 
ATOM     26  C   UNL     1       8.356   1.760   3.879  0.00  0.00    +0.045 A 
ATOM     27  C   UNL     1       7.071   1.489   3.452  0.00  0.00    +0.005 A 
BRANCH  25  28
ATOM     28  O   UNL     1      10.678   1.241   3.855  0.00  0.00    -0.507 OA
ATOM     29  H   UNL     1      10.930   0.776   4.664  0.00  0.00    +0.292 HD
ENDBRANCH  25  28
ENDBRANCH  21  22
ENDBRANCH  18  21
ENDBRANCH  17  18
ENDBRANCH   1  17
BRANCH   1  30
ATOM     30  C   UNL     1       4.468   0.935  -1.978  0.00  0.00    +0.158 C 
BRANCH  30  31
ATOM     31  O   UNL     1       4.255   1.703  -3.164  0.00  0.00    -0.395 OA
ATOM     32  H   UNL     1       4.810   1.438  -3.910  0.00  0.00    +0.209 HD
ENDBRANCH  30  31
ENDBRANCH   1  30
TORSDOF 10
