REMARK  Name = ZINC09633601
REMARK  9 active torsions:
REMARK  status: ('A' for Active; 'I' for Inactive)
REMARK    1  A    between atoms: C_1  and  C_2
REMARK    2  A    between atoms: C_2  and  O_3
REMARK    3  A    between atoms: O_3  and  C_4
REMARK    4  A    between atoms: C_4  and  C_6
REMARK    5  A    between atoms: C_7  and  C_15
REMARK    6  A    between atoms: C_12  and  C_14
REMARK    7  A    between atoms: C_15  and  S_16
REMARK    8  A    between atoms: S_16  and  C_17
REMARK    9  A    between atoms: N_19  and  C_23
REMARK                            x       y       z     vdW  Elec       q    Type
REMARK                         _______ _______ _______ _____ _____    ______ ____
ROOT
ATOM      1  C   UNL     1      -2.870   0.247  -0.006  0.00  0.00    +0.127 C 
ENDROOT
BRANCH   1   3
ATOM      2  C   UNL     1      -4.700  -0.889   1.201  0.00  0.00    +0.074 C 
ATOM      3  C   UNL     1      -4.099  -0.625   0.021  0.00  0.00    +0.034 C 
ATOM      4  N   UNL     1      -4.589  -1.131  -1.149  0.00  0.00    -0.272 N 
ATOM      5  C   UNL     1      -5.670  -1.918  -1.222  0.00  0.00    +0.304 C 
ATOM      6  O   UNL     1      -6.028  -2.326  -2.310  0.00  0.00    -0.253 OA
ATOM      7  N   UNL     1      -6.376  -2.270  -0.130  0.00  0.00    -0.292 N 
ATOM      8  C   UNL     1      -5.932  -1.771   1.183  0.00  0.00    +0.110 C 
ATOM      9  C   UNL     1      -7.087  -0.980   1.802  0.00  0.00    +0.033 C 
ATOM     10  H   UNL     1      -4.126  -0.911  -1.972  0.00  0.00    +0.156 HD
ATOM     11  H   UNL     1      -7.159  -2.838  -0.206  0.00  0.00    +0.151 HD
BRANCH   2  12
ATOM     12  C   UNL     1      -4.196  -0.362   2.413  0.00  0.00    +0.338 C 
ATOM     13  O   UNL     1      -3.529  -1.063   3.151  0.00  0.00    -0.245 OA
BRANCH  12  14
ATOM     14  O   UNL     1      -4.455   0.919   2.751  0.00  0.00    -0.462 OA
BRANCH  14  16
ATOM     15  C   UNL     1      -4.311   2.848   4.199  0.00  0.00    +0.048 C 
ATOM     16  C   UNL     1      -3.915   1.385   3.989  0.00  0.00    +0.229 C 
ENDBRANCH  14  16
ENDBRANCH  12  14
ENDBRANCH   2  12
ENDBRANCH   1   3
BRANCH   1  17
ATOM     17  S   UNL     1      -1.404  -0.783  -0.258  0.00  0.00    -0.091 S 
BRANCH  17  18
ATOM     18  C   UNL     1      -0.153   0.458  -0.248  0.00  0.00    +0.158 A 
ATOM     19  N   UNL     1       1.142   0.324  -0.388  0.00  0.00    -0.151 NA
ATOM     20  N   UNL     1       1.965   1.426  -0.351  0.00  0.00    -0.217 N 
ATOM     21  C   UNL     1       1.408   2.649  -0.168  0.00  0.00    +0.150 A 
ATOM     22  S   UNL     1       2.160   4.184  -0.079  0.00  0.00    -0.023 S 
ATOM     23  S   UNL     1      -0.323   2.224  -0.045  0.00  0.00    -0.034 S 
BRANCH  20  24
ATOM     24  C   UNL     1       3.350   1.287  -0.501  0.00  0.00    +0.069 A 
ATOM     25  C   UNL     1       4.078   2.263  -1.170  0.00  0.00    +0.029 A 
ATOM     26  C   UNL     1       5.445   2.128  -1.311  0.00  0.00    +0.023 A 
ATOM     27  C   UNL     1       6.089   1.015  -0.797  0.00  0.00    +0.059 A 
ATOM     28  C   UNL     1       5.365   0.038  -0.134  0.00  0.00    +0.061 A 
ATOM     29  C   UNL     1       3.997   0.172   0.015  0.00  0.00    +0.049 A 
ATOM     30 CL   UNL     1       6.175  -1.355   0.510  0.00  0.00    -0.082 Cl
ATOM     31 CL   UNL     1       7.806   0.845  -0.982  0.00  0.00    -0.082 Cl
ENDBRANCH  20  24
ENDBRANCH  17  18
ENDBRANCH   1  17
TORSDOF 7
