REMARK  Name = ZINC39127809
REMARK  13 active torsions:
REMARK  status: ('A' for Active; 'I' for Inactive)
REMARK    1  A    between atoms: C_1  and  C_2
REMARK    2  A    between atoms: C_3  and  C_31
REMARK    3  A    between atoms: C_4  and  O_24
REMARK    4  A    between atoms: C_5  and  C_23
REMARK    5  A    between atoms: N_11  and  C_12
REMARK    6  A    between atoms: C_12  and  C_13
REMARK    7  A    between atoms: C_16  and  S_19
REMARK    8  A    between atoms: S_19  and  N_22
REMARK    9  A    between atoms: O_24  and  C_25
REMARK   10  A    between atoms: C_25  and  C_27
REMARK   11  A    between atoms: C_27  and  C_28
REMARK   12  A    between atoms: C_27  and  C_29
REMARK   13  A    between atoms: C_27  and  C_30
REMARK                            x       y       z     vdW  Elec       q    Type
REMARK                         _______ _______ _______ _____ _____    ______ ____
ROOT
ATOM      1  C   UNL     1       0.438   1.473  -0.054  0.00  0.00    +0.046 C 
ATOM      2  C   UNL     1       0.222  -0.018  -0.029  0.00  0.00    -0.018 A 
ATOM      3  C   UNL     1      -0.098  -0.676  -1.188  0.00  0.00    -0.003 A 
ATOM      4  C   UNL     1      -0.306  -2.051  -1.209  0.00  0.00    +0.139 A 
ATOM      5  C   UNL     1      -0.187  -2.772  -0.029  0.00  0.00    +0.008 A 
ATOM      6  C   UNL     1       0.134  -2.118   1.134  0.00  0.00    +0.047 A 
ATOM      7  C   UNL     1       0.357  -0.723   1.189  0.00  0.00    +0.084 A 
ATOM      8  N   UNL     1       0.670  -0.228   2.408  0.00  0.00    -0.225 NA
ATOM      9  C   UNL     1       0.766  -0.989   3.474  0.00  0.00    +0.159 A 
ATOM     10  S   UNL     1       0.386  -2.609   2.822  0.00  0.00    -0.052 S 
ATOM     11  N   UNL     1       1.075  -0.627   4.770  0.00  0.00    -0.319 N 
ATOM     12  C   UNL     1      -0.407  -4.263  -0.024  0.00  0.00    +0.049 C 
ATOM     13  C   UNL     1      -0.228   0.108  -2.469  0.00  0.00    +0.048 C 
ATOM     14  H   UNL     1       1.255   0.301   4.985  0.00  0.00    +0.148 HD
ENDROOT
BRANCH  11  15
ATOM     15  C   UNL     1       1.130  -1.647   5.821  0.00  0.00    +0.138 C 
BRANCH  15  16
ATOM     16  C   UNL     1       1.485  -0.996   7.133  0.00  0.00    -0.030 A 
ATOM     17  C   UNL     1       2.810  -0.865   7.504  0.00  0.00    +0.007 A 
ATOM     18  C   UNL     1       3.135  -0.268   8.708  0.00  0.00    +0.029 A 
ATOM     19  C   UNL     1       2.135   0.198   9.541  0.00  0.00    +0.105 A 
ATOM     20  C   UNL     1       0.810   0.068   9.170  0.00  0.00    +0.029 A 
ATOM     21  C   UNL     1       0.485  -0.525   7.964  0.00  0.00    +0.007 A 
BRANCH  19  22
ATOM     22  S   UNL     1       2.549   0.958  11.076  0.00  0.00    +0.056 S 
ATOM     23  O   UNL     1       1.413   0.817  11.918  0.00  0.00    -0.153 OA
ATOM     24  O   UNL     1       3.832   0.467  11.438  0.00  0.00    -0.153 OA
BRANCH  22  25
ATOM     25  N   UNL     1       2.726   2.579  10.788  0.00  0.00    -0.204 NA
ATOM     26  H   UNL     1       2.525   3.220  11.487  0.00  0.00    +0.144 HD
ATOM     27  H   UNL     1       3.031   2.887   9.920  0.00  0.00    +0.144 HD
ENDBRANCH  22  25
ENDBRANCH  19  22
ENDBRANCH  15  16
ENDBRANCH  11  15
BRANCH   4  28
ATOM     28  O   UNL     1      -0.624  -2.682  -2.371  0.00  0.00    -0.425 OA
BRANCH  28  29
ATOM     29  C   UNL     1       0.381  -3.145  -3.131  0.00  0.00    +0.318 C 
ATOM     30  O   UNL     1       1.526  -2.996  -2.776  0.00  0.00    -0.250 OA
BRANCH  29  31
ATOM     31  C   UNL     1       0.080  -3.851  -4.428  0.00  0.00    +0.060 C 
ATOM     32  C   UNL     1       1.391  -4.275  -5.094  0.00  0.00    +0.022 C 
ATOM     33  C   UNL     1      -0.773  -5.090  -4.149  0.00  0.00    +0.022 C 
ATOM     34  C   UNL     1      -0.682  -2.906  -5.359  0.00  0.00    +0.022 C 
ENDBRANCH  29  31
ENDBRANCH  28  29
ENDBRANCH   4  28
TORSDOF 7
