REMARK  Name = ZINC63426718
REMARK  10 active torsions:
REMARK  status: ('A' for Active; 'I' for Inactive)
REMARK    1  A    between atoms: C_1  and  C_2
REMARK    2  A    between atoms: C_2  and  C_3
REMARK    3  A    between atoms: C_3  and  N_20
REMARK    4  A    between atoms: N_10  and  C_13
REMARK    5  A    between atoms: N_20  and  C_21
REMARK    6  A    between atoms: C_21  and  C_23
REMARK    7  A    between atoms: C_21  and  C_33
REMARK    8  A    between atoms: C_23  and  C_24
REMARK    9  A    between atoms: C_33  and  O_35
REMARK   10  A    between atoms: O_35  and  C_36
REMARK                            x       y       z     vdW  Elec       q    Type
REMARK                         _______ _______ _______ _____ _____    ______ ____
ROOT
ATOM      1  C   UNL     1       0.553  -0.120  -1.181  0.00  0.00    +0.022 C 
ATOM      2  C   UNL     1       1.896  -0.447  -1.168  0.00  0.00    +0.116 C 
ATOM      3  C   UNL     1       2.575  -0.956  -2.373  0.00  0.00    +0.258 C 
ATOM      4  O   UNL     1       1.968  -1.102  -3.417  0.00  0.00    -0.270 OA
ATOM      5  N   UNL     1       3.888  -1.254  -2.287  0.00  0.00    -0.235 N 
ATOM      6  C   UNL     1       4.568  -1.097  -1.143  0.00  0.00    +0.320 C 
ATOM      7  O   UNL     1       5.749  -1.385  -1.131  0.00  0.00    -0.251 OA
ATOM      8  N   UNL     1       4.016  -0.640  -0.011  0.00  0.00    -0.190 N 
ATOM      9  C   UNL     1       2.713  -0.296   0.049  0.00  0.00    +0.265 C 
ATOM     10  O   UNL     1       2.224   0.123   1.081  0.00  0.00    -0.269 OA
ATOM     11  H   UNL     1       4.350  -1.590  -3.071  0.00  0.00    +0.159 HD
ENDROOT
BRANCH   8  12
ATOM     12  C   UNL     1       4.811  -0.510   1.136  0.00  0.00    +0.046 A 
ATOM     13  C   UNL     1       4.523  -1.257   2.270  0.00  0.00    +0.025 A 
ATOM     14  C   UNL     1       5.309  -1.128   3.399  0.00  0.00    +0.022 A 
ATOM     15  C   UNL     1       6.382  -0.254   3.400  0.00  0.00    +0.041 A 
ATOM     16  C   UNL     1       6.671   0.492   2.271  0.00  0.00    +0.022 A 
ATOM     17  C   UNL     1       5.892   0.361   1.138  0.00  0.00    +0.025 A 
ATOM     18 CL   UNL     1       7.367  -0.094   4.820  0.00  0.00    -0.084 Cl
ENDBRANCH   8  12
BRANCH   1  20
ATOM     19  C   UNL     1      -0.576  -0.528   0.989  0.00  0.00    +0.010 C 
ATOM     20  C   UNL     1      -0.073   0.543   0.019  0.00  0.00    +0.048 C 
ENDBRANCH   1  20
BRANCH   1  21
ATOM     21  N   UNL     1      -0.198  -0.394  -2.267  0.00  0.00    -0.334 N 
ATOM     22  H   UNL     1       0.182  -0.899  -3.003  0.00  0.00    +0.147 HD
BRANCH  21  23
ATOM     23  C   UNL     1      -1.585   0.070  -2.335  0.00  0.00    +0.184 C 
BRANCH  23  24
ATOM     24  C   UNL     1      -1.617   1.486  -2.849  0.00  0.00    +0.328 C 
ATOM     25  O   UNL     1      -0.586   2.050  -3.131  0.00  0.00    -0.249 OA
BRANCH  24  26
ATOM     26  O   UNL     1      -2.790   2.121  -2.995  0.00  0.00    -0.467 OA
ATOM     27  C   UNL     1      -2.745   3.462  -3.488  0.00  0.00    +0.280 C 
ENDBRANCH  24  26
ENDBRANCH  23  24
BRANCH  23  28
ATOM     28  C   UNL     1      -2.380  -0.834  -3.280  0.00  0.00    +0.066 C 
BRANCH  28  29
ATOM     29  C   UNL     1      -2.452  -2.224  -2.703  0.00  0.00    -0.039 C 
ATOM     30  C   UNL     1      -3.453  -2.743  -1.956  0.00  0.00    -0.001 A 
ATOM     31  C   UNL     1      -4.725  -2.190  -1.474  0.00  0.00    +0.010 A 
ATOM     32  C   UNL     1      -5.539  -2.970  -0.728  0.00  0.00    +0.001 A 
ATOM     33  C   UNL     1      -5.200  -4.290  -0.402  0.00  0.00    +0.002 A 
ATOM     34  C   UNL     1      -4.049  -4.869  -0.808  0.00  0.00    +0.026 A 
ATOM     35  C   UNL     1      -3.118  -4.140  -1.599  0.00  0.00    +0.043 A 
ATOM     36  N   UNL     1      -1.956  -4.472  -2.105  0.00  0.00    -0.380 N 
ATOM     37  C   UNL     1      -1.424  -3.323  -2.847  0.00  0.00    +0.144 C 
ATOM     38  H   UNL     1      -1.522  -5.334  -2.009  0.00  0.00    +0.160 HD
ENDBRANCH  28  29
ENDBRANCH  23  28
ENDBRANCH  21  23
ENDBRANCH   1  21
TORSDOF 8
