REMARK  Name = ZINC37205402
REMARK  4 active torsions:
REMARK  status: ('A' for Active; 'I' for Inactive)
REMARK    1  A    between atoms: C_3  and  S_9
REMARK    2  A    between atoms: C_4  and  N_8
REMARK    3  A    between atoms: S_9  and  C_10
REMARK    4  A    between atoms: C_10  and  C_11
REMARK                            x       y       z     vdW  Elec       q    Type
REMARK                         _______ _______ _______ _____ _____    ______ ____
ROOT
ATOM      1  C   UNL     1       3.367   4.058  -0.006  0.00  0.00    +0.170 C 
ENDROOT
BRANCH   1   2
ATOM      2  C   UNL     1       4.581   4.951  -0.015  0.00  0.00    +0.228 C 
ATOM      3  O   UNL     1       5.692   4.464  -0.029  0.00  0.00    -0.275 OA
ATOM      4  N   UNL     1       4.432   6.290  -0.009  0.00  0.00    -0.270 N 
ATOM      5  C   UNL     1       5.551   7.116   0.090  0.00  0.00    +0.125 A 
ATOM      6  C   UNL     1       5.385   8.491   0.203  0.00  0.00    +0.045 A 
ATOM      7  C   UNL     1       6.504   9.299   0.300  0.00  0.00    +0.020 A 
ATOM      8  C   UNL     1       7.757   8.700   0.281  0.00  0.00    +0.036 A 
ATOM      9  C   UNL     1       7.848   7.327   0.167  0.00  0.00    +0.128 A 
ATOM     10  N   UNL     1       6.762   6.582   0.081  0.00  0.00    -0.239 NA
ATOM     11 BR   UNL     1       9.322   9.754   0.411  0.00  0.00    -0.049 Br
ATOM     12  H   UNL     1       3.546   6.680  -0.072  0.00  0.00    +0.156 HD
ENDBRANCH   1   2
BRANCH   1  13
ATOM     13  S   UNL     1       3.893   2.322  -0.018  0.00  0.00    -0.114 S 
BRANCH  13  16
ATOM     14  C   UNL     1      -0.017   1.379   0.018  0.00  0.00    +0.016 A 
ATOM     15  C   UNL     1       1.169   2.091   0.009  0.00  0.00    +0.017 A 
ATOM     16  C   UNL     1       2.381   1.418  -0.006  0.00  0.00    +0.029 A 
ATOM     17  C   UNL     1       2.400   0.022  -0.012  0.00  0.00    +0.039 A 
ATOM     18  C   UNL     1       1.207  -0.683  -0.003  0.00  0.00    +0.039 A 
ATOM     19  C   UNL     1       0.002  -0.004   0.012  0.00  0.00    +0.020 A 
ATOM     20 BR   UNL     1      -1.625  -0.969   0.026  0.00  0.00    -0.050 Br
BRANCH  17  21
ATOM     21  N   UNL     1       3.621  -0.663  -0.028  0.00  0.00    -0.357 N 
ATOM     22  H   UNL     1       4.455  -0.168  -0.035  0.00  0.00    +0.142 HD
ATOM     23  H   UNL     1       3.632  -1.633  -0.032  0.00  0.00    +0.142 HD
ENDBRANCH  17  21
ENDBRANCH  13  16
ENDBRANCH   1  13
TORSDOF 4
