REMARK  Name = ZINC66564968
REMARK  9 active torsions:
REMARK  status: ('A' for Active; 'I' for Inactive)
REMARK    1  A    between atoms: C_1  and  C_2
REMARK    2  A    between atoms: C_3  and  C_7
REMARK    3  A    between atoms: C_7  and  N_8
REMARK    4  A    between atoms: N_8  and  C_9
REMARK    5  A    between atoms: N_8  and  C_10
REMARK    6  A    between atoms: C_10  and  C_11
REMARK    7  A    between atoms: N_17  and  C_18
REMARK    8  A    between atoms: C_23  and  O_24
REMARK    9  A    between atoms: O_24  and  C_25
REMARK                            x       y       z     vdW  Elec       q    Type
REMARK                         _______ _______ _______ _____ _____    ______ ____
ROOT
ATOM      1  C   UNL     1       2.813   1.058  -4.698  0.00  0.00    +0.150 A 
ATOM      2  N   UNL     1       3.294   2.218  -4.288  0.00  0.00    -0.198 NA
ATOM      3  C   UNL     1       4.553   2.553  -4.563  0.00  0.00    +0.217 A 
ATOM      4  N   UNL     1       5.325   1.719  -5.251  0.00  0.00    -0.181 NA
ATOM      5  C   UNL     1       4.837   0.553  -5.662  0.00  0.00    +0.224 A 
ATOM      6  N   UNL     1       3.579   0.223  -5.378  0.00  0.00    -0.198 NA
ATOM      7  N   UNL     1       5.636  -0.317  -6.377  0.00  0.00    -0.281 N 
ATOM      8  N   UNL     1       5.055   3.765  -4.134  0.00  0.00    -0.327 N 
ATOM      9  H   UNL     1       5.308  -1.201  -6.603  0.00  0.00    +0.155 HD
ATOM     10  H   UNL     1       4.491   4.373  -3.632  0.00  0.00    +0.145 HD
ATOM     11  H   UNL     1       5.972   4.008  -4.335  0.00  0.00    +0.145 HD
ENDROOT
BRANCH   7  12
ATOM     12  C   UNL     1       6.919   0.078  -6.777  0.00  0.00    +0.076 A 
ATOM     13  C   UNL     1       7.215   1.424  -6.933  0.00  0.00    +0.027 A 
ATOM     14  C   UNL     1       8.482   1.811  -7.327  0.00  0.00    +0.002 A 
ATOM     15  C   UNL     1       9.456   0.859  -7.567  0.00  0.00    +0.004 A 
ATOM     16  C   UNL     1       9.168  -0.484  -7.413  0.00  0.00    +0.047 A 
ATOM     17  C   UNL     1       7.902  -0.880  -7.013  0.00  0.00    +0.141 A 
BRANCH  17  18
ATOM     18  O   UNL     1       7.619  -2.201  -6.856  0.00  0.00    -0.493 OA
ATOM     19  C   UNL     1       8.676  -3.127  -7.115  0.00  0.00    +0.277 C 
ENDBRANCH  17  18
ENDBRANCH   7  12
BRANCH   1  20
ATOM     20  C   UNL     1       1.387   0.683  -4.384  0.00  0.00    +0.160 C 
BRANCH  20  21
ATOM     21  N   UNL     1       1.339  -0.024  -3.097  0.00  0.00    -0.293 NA
ATOM     22  C   UNL     1       2.030  -1.317  -3.180  0.00  0.00    +0.105 C 
BRANCH  21  23
ATOM     23  C   UNL     1      -0.048  -0.196  -2.643  0.00  0.00    +0.128 C 
BRANCH  23  26
ATOM     24  C   UNL     1      -0.074   1.506  -0.040  0.00  0.00    +0.066 C 
ATOM     25  C   UNL     1      -0.064  -0.000  -0.057  0.00  0.00    +0.050 A 
ATOM     26  C   UNL     1      -0.052  -0.697  -1.222  0.00  0.00    +0.026 A 
ATOM     27  S   UNL     1      -0.044  -2.372  -0.603  0.00  0.00    -0.079 S 
ATOM     28  C   UNL     1      -0.056  -2.011   1.041  0.00  0.00    +0.156 A 
ATOM     29  N   UNL     1      -0.060  -0.702   1.059  0.00  0.00    -0.252 NA
ENDBRANCH  23  26
ENDBRANCH  21  23
ENDBRANCH  20  21
ENDBRANCH   1  20
TORSDOF 6
