REMARK  Name = ZINC23249384
REMARK  7 active torsions:
REMARK  status: ('A' for Active; 'I' for Inactive)
REMARK    1  A    between atoms: C_1  and  C_2
REMARK    2  A    between atoms: C_2  and  C_4
REMARK    3  A    between atoms: C_2  and  N_17
REMARK    4  A    between atoms: N_6  and  N_7
REMARK    5  A    between atoms: N_7  and  S_8
REMARK    6  A    between atoms: S_8  and  C_11
REMARK    7  A    between atoms: C_18  and  C_28
REMARK                            x       y       z     vdW  Elec       q    Type
REMARK                         _______ _______ _______ _____ _____    ______ ____
ROOT
ATOM      1  N   UNL     1      -4.502  -0.123   0.588  0.00  0.00    -0.275 N 
ATOM      2  C   UNL     1      -3.142  -0.093   0.038  0.00  0.00    +0.140 C 
ATOM      3  C   UNL     1      -3.249  -0.596  -1.380  0.00  0.00    -0.010 A 
ATOM      4  C   UNL     1      -2.327  -0.791  -2.383  0.00  0.00    +0.006 A 
ATOM      5  C   UNL     1      -2.736  -1.279  -3.612  0.00  0.00    +0.000 A 
ATOM      6  C   UNL     1      -4.071  -1.570  -3.837  0.00  0.00    +0.001 A 
ATOM      7  C   UNL     1      -5.003  -1.378  -2.838  0.00  0.00    +0.013 A 
ATOM      8  C   UNL     1      -4.598  -0.887  -1.595  0.00  0.00    +0.042 A 
ATOM      9  C   UNL     1      -5.340  -0.581  -0.357  0.00  0.00    +0.248 C 
ATOM     10  O   UNL     1      -6.539  -0.724  -0.213  0.00  0.00    -0.270 OA
ENDROOT
BRANCH   2  11
ATOM     11  C   UNL     1      -2.610   1.317   0.048  0.00  0.00    +0.002 A 
ATOM     12  C   UNL     1      -3.338   2.445   0.042  0.00  0.00    +0.089 A 
ATOM     13  N   UNL     1      -2.510   3.535   0.055  0.00  0.00    -0.360 N 
ATOM     14  H   UNL     1      -2.935   4.549   0.052  0.00  0.00    +0.165 HD
ATOM     15  C   UNL     1      -1.196   3.124   0.071  0.00  0.00    +0.047 A 
ATOM     16  C   UNL     1      -1.201   1.717   0.062  0.00  0.00    +0.005 A 
ATOM     17  C   UNL     1       0.006   1.016   0.080  0.00  0.00    +0.010 A 
ATOM     18  C   UNL     1       1.189   1.701   0.097  0.00  0.00    +0.001 A 
ATOM     19  C   UNL     1       1.199   3.089   0.101  0.00  0.00    +0.002 A 
ATOM     20  C   UNL     1       0.019   3.801   0.088  0.00  0.00    +0.026 A 
ENDBRANCH   2  11
BRANCH   1  22
ATOM     21  C   UNL     1      -5.997   1.326   1.871  0.00  0.00    +0.038 C 
ATOM     22  C   UNL     1      -4.883   0.280   1.944  0.00  0.00    +0.161 C 
BRANCH  22  23
ATOM     23  C   UNL     1      -5.373  -0.924   2.706  0.00  0.00    +0.248 C 
ATOM     24  O   UNL     1      -5.402  -2.011   2.170  0.00  0.00    -0.272 OA
ATOM     25  N   UNL     1      -5.780  -0.792   3.984  0.00  0.00    -0.230 N 
ATOM     26  H   UNL     1      -5.755   0.194   4.471  0.00  0.00    +0.171 HD
BRANCH  25  27
ATOM     27  N   UNL     1      -6.237  -1.911   4.693  0.00  0.00    -0.108 NA
ATOM     28  H   UNL     1      -6.958  -2.452   4.335  0.00  0.00    +0.172 HD
BRANCH  27  29
ATOM     29  S   UNL     1      -5.544  -2.312   6.143  0.00  0.00    +0.074 S 
ATOM     30  O   UNL     1      -6.307  -3.387   6.674  0.00  0.00    -0.152 OA
ATOM     31  O   UNL     1      -4.145  -2.412   5.911  0.00  0.00    -0.152 OA
BRANCH  29  32
ATOM     32  C   UNL     1      -5.777  -0.944   7.228  0.00  0.00    +0.107 A 
ATOM     33  C   UNL     1      -4.827   0.059   7.290  0.00  0.00    +0.028 A 
ATOM     34  C   UNL     1      -5.013   1.135   8.138  0.00  0.00    +0.002 A 
ATOM     35  C   UNL     1      -6.144   1.204   8.931  0.00  0.00    +0.000 A 
ATOM     36  C   UNL     1      -7.091   0.198   8.872  0.00  0.00    +0.002 A 
ATOM     37  C   UNL     1      -6.908  -0.875   8.020  0.00  0.00    +0.028 A 
ENDBRANCH  29  32
ENDBRANCH  27  29
ENDBRANCH  25  27
ENDBRANCH  22  23
ENDBRANCH   1  22
TORSDOF 6
