REMARK  Name = ZINC33024418
REMARK  11 active torsions:
REMARK  status: ('A' for Active; 'I' for Inactive)
REMARK    1  A    between atoms: C_1  and  C_2
REMARK    2  A    between atoms: C_3  and  C_32
REMARK    3  A    between atoms: C_4  and  C_9
REMARK    4  A    between atoms: C_7  and  C_8
REMARK    5  A    between atoms: C_14  and  C_17
REMARK    6  A    between atoms: C_17  and  C_18
REMARK    7  A    between atoms: N_20  and  C_21
REMARK    8  A    between atoms: C_21  and  C_22
REMARK    9  A    between atoms: C_22  and  C_23
REMARK   10  A    between atoms: C_23  and  N_24
REMARK   11  A    between atoms: C_29  and  C_31
REMARK                            x       y       z     vdW  Elec       q    Type
REMARK                         _______ _______ _______ _____ _____    ______ ____
ROOT
ATOM      1  C   UNL     1     -10.020   2.293  -4.384  0.00  0.00    +0.263 C 
ATOM      2  O   UNL     1     -11.002   1.578  -4.316  0.00  0.00    -0.268 OA
ATOM      3  N   UNL     1      -8.787   1.754  -4.307  0.00  0.00    -0.296 N 
ATOM      4  C   UNL     1      -8.611   0.297  -4.234  0.00  0.00    +0.108 C 
ATOM      5  C   UNL     1      -7.748  -0.035  -3.013  0.00  0.00    +0.023 C 
ATOM      6  C   UNL     1      -6.439   0.753  -3.089  0.00  0.00    +0.001 C 
ATOM      7  C   UNL     1      -6.742   2.253  -3.072  0.00  0.00    +0.023 C 
ATOM      8  C   UNL     1      -7.594   2.611  -4.295  0.00  0.00    +0.108 C 
ENDROOT
BRANCH   1  12
ATOM      9  C   UNL     1     -10.070   6.962  -6.362  0.00  0.00    +0.046 C 
ATOM     10  C   UNL     1     -10.204   5.803  -5.408  0.00  0.00    -0.027 A 
ATOM     11  C   UNL     1      -9.914   4.465  -5.693  0.00  0.00    -0.018 A 
ATOM     12  C   UNL     1     -10.177   3.742  -4.549  0.00  0.00    +0.105 A 
ATOM     13  N   UNL     1     -10.608   4.628  -3.588  0.00  0.00    -0.354 N 
ATOM     14  H   UNL     1     -10.872   4.265  -2.583  0.00  0.00    +0.166 HD
ATOM     15  C   UNL     1     -10.620   5.874  -4.121  0.00  0.00    +0.017 A 
ATOM     16  C   UNL     1     -11.028   7.133  -3.400  0.00  0.00    +0.063 C 
ATOM     17  C   UNL     1      -9.414   3.916  -7.004  0.00  0.00    +0.046 C 
ENDBRANCH   1  12
BRANCH   6  18
ATOM     18  C   UNL     1      -5.559   0.398  -1.888  0.00  0.00    +0.099 C 
BRANCH  18  19
ATOM     19  C   UNL     1      -4.222   1.079  -2.026  0.00  0.00    +0.213 C 
ATOM     20  O   UNL     1      -3.995   1.779  -2.990  0.00  0.00    -0.276 OA
ATOM     21  N   UNL     1      -3.279   0.910  -1.078  0.00  0.00    -0.315 N 
ATOM     22  H   UNL     1      -3.485   0.274  -0.204  0.00  0.00    +0.149 HD
BRANCH  21  23
ATOM     23  C   UNL     1      -1.979   1.572  -1.212  0.00  0.00    +0.102 C 
BRANCH  23  24
ATOM     24  C   UNL     1      -1.100   1.216  -0.011  0.00  0.00    +0.000 C 
BRANCH  24  25
ATOM     25  C   UNL     1       0.258   1.908  -0.151  0.00  0.00    -0.077 C 
BRANCH  25  26
ATOM     26  N   UNL     1       1.102   1.567   1.002  0.00  0.00    +0.381 N 
ATOM     27  C   UNL     1       1.447   0.139   0.998  0.00  0.00    -0.078 C 
ATOM     28  C   UNL     1       2.201  -0.208   2.283  0.00  0.00    -0.019 C 
ATOM     29  C   UNL     1       3.471   0.642   2.370  0.00  0.00    -0.003 C 
ATOM     30  C   UNL     1       3.088   2.124   2.323  0.00  0.00    -0.016 C 
ATOM     31  C   UNL     1       2.308   2.404   1.037  0.00  0.00    -0.072 C 
ATOM     32  C   UNL     1       1.906   3.880   0.995  0.00  0.00    -0.013 C 
ATOM     33  H   UNL     1       0.526   1.770   1.916  0.00  0.00    -0.081 HD
ENDBRANCH  25  26
ENDBRANCH  24  25
ENDBRANCH  23  24
ENDBRANCH  21  23
ENDBRANCH  18  19
ENDBRANCH   6  18
TORSDOF 7
