REMARK  Name = ZINC21669672
REMARK  9 active torsions:
REMARK  status: ('A' for Active; 'I' for Inactive)
REMARK    1  A    between atoms: C_1  and  C_2
REMARK    2  A    between atoms: C_5  and  C_32
REMARK    3  A    between atoms: C_6  and  N_8
REMARK    4  A    between atoms: C_9  and  C_11
REMARK    5  A    between atoms: C_11  and  C_13
REMARK    6  A    between atoms: C_11  and  S_14
REMARK    7  A    between atoms: S_14  and  C_15
REMARK    8  A    between atoms: C_18  and  C_21
REMARK    9  A    between atoms: N_19  and  C_20
REMARK                            x       y       z     vdW  Elec       q    Type
REMARK                         _______ _______ _______ _____ _____    ______ ____
ROOT
ATOM      1  C   UNL     1      -2.800  -2.887   1.010  0.00  0.00    +0.192 A 
ATOM      2  N   UNL     1      -3.872  -2.199   0.694  0.00  0.00    -0.122 NA
ATOM      3  N   UNL     1      -4.925  -2.887   0.954  0.00  0.00    -0.130 NA
ATOM      4  C   UNL     1      -4.591  -4.046   1.448  0.00  0.00    +0.178 A 
ATOM      5  N   UNL     1      -3.225  -4.090   1.496  0.00  0.00    -0.306 N 
ATOM      6  C   UNL     1      -2.392  -5.196   1.973  0.00  0.00    +0.153 C 
ENDROOT
BRANCH   4   7
ATOM      7  C   UNL     1      -5.536  -5.138   1.880  0.00  0.00    +0.278 C 
ATOM      8  C   UNL     1      -6.129  -5.828   0.644  0.00  0.00    +0.281 C 
ATOM      9  O   UNL     1      -7.029  -6.848   1.089  0.00  0.00    -0.484 OA
ATOM     10  C   UNL     1      -7.906  -6.504   2.072  0.00  0.00    +0.162 A 
ATOM     11  C   UNL     1      -9.021  -7.298   2.298  0.00  0.00    +0.049 A 
ATOM     12  C   UNL     1      -9.919  -6.962   3.293  0.00  0.00    +0.004 A 
ATOM     13  C   UNL     1      -9.708  -5.836   4.067  0.00  0.00    +0.004 A 
ATOM     14  C   UNL     1      -8.599  -5.041   3.846  0.00  0.00    +0.049 A 
ATOM     15  C   UNL     1      -7.695  -5.371   2.848  0.00  0.00    +0.163 A 
ATOM     16  O   UNL     1      -6.611  -4.574   2.638  0.00  0.00    -0.474 OA
ENDBRANCH   4   7
BRANCH   1  17
ATOM     17  S   UNL     1      -1.127  -2.361   0.835  0.00  0.00    -0.074 S 
BRANCH  17  18
ATOM     18  C   UNL     1      -1.388  -0.711   0.138  0.00  0.00    +0.137 C 
ATOM     19  C   UNL     1      -2.033  -0.837  -1.244  0.00  0.00    +0.029 C 
BRANCH  18  21
ATOM     20  N   UNL     1      -0.016   1.344   0.009  0.00  0.00    -0.284 N 
ATOM     21  C   UNL     1      -0.063  -0.003   0.012  0.00  0.00    +0.230 C 
ATOM     22  O   UNL     1       0.960  -0.646  -0.088  0.00  0.00    -0.274 OA
ATOM     23  H   UNL     1      -0.949   1.927   0.008  0.00  0.00    +0.155 HD
BRANCH  20  29
ATOM     24  C   UNL     1       4.789   1.322   1.051  0.00  0.00    +0.044 C 
ATOM     25  C   UNL     1       3.565   2.013   0.507  0.00  0.00    -0.049 A 
ATOM     26  C   UNL     1       3.663   3.299   0.007  0.00  0.00    +0.004 A 
ATOM     27  C   UNL     1       2.542   3.937  -0.492  0.00  0.00    +0.005 A 
ATOM     28  C   UNL     1       1.321   3.291  -0.493  0.00  0.00    -0.029 A 
ATOM     29  C   UNL     1       1.219   2.000   0.009  0.00  0.00    +0.037 A 
ATOM     30  C   UNL     1       2.346   1.365   0.515  0.00  0.00    +0.027 A 
ATOM     31  C   UNL     1       0.100   3.987  -1.038  0.00  0.00    +0.045 C 
ENDBRANCH  20  29
ENDBRANCH  18  21
ENDBRANCH  17  18
ENDBRANCH   1  17
TORSDOF 5
