REMARK  Name = ZINC11844188
REMARK  6 active torsions:
REMARK  status: ('A' for Active; 'I' for Inactive)
REMARK    1  A    between atoms: C_4  and  C_7
REMARK    2  A    between atoms: C_7  and  N_59
REMARK    3  A    between atoms: C_13  and  C_15
REMARK    4  A    between atoms: C_15  and  C_16
REMARK    5  A    between atoms: C_21  and  C_24
REMARK    6  A    between atoms: C_21  and  O_30
REMARK                            x       y       z     vdW  Elec       q    Type
REMARK                         _______ _______ _______ _____ _____    ______ ____
ROOT
ATOM      1  C   UNL     1       2.796  -0.634  -1.859  0.00  0.00    +0.090 C 
ENDROOT
BRANCH   1   7
ATOM      2  C   UNL     1       1.827  -0.886   1.760  0.00  0.00    -0.058 C 
ATOM      3  C   UNL     1       0.479  -1.575   1.538  0.00  0.00    +0.085 C 
ATOM      4  N   UNL     1      -0.103  -1.140   0.272  0.00  0.00    -0.318 N 
ATOM      5  C   UNL     1       0.614  -0.559  -0.696  0.00  0.00    +0.200 C 
ATOM      6  O   UNL     1       0.056  -0.257  -1.730  0.00  0.00    -0.278 OA
ATOM      7  C   UNL     1       2.081  -0.266  -0.557  0.00  0.00    +0.028 C 
ATOM      8  H   UNL     1      -1.052  -1.279   0.126  0.00  0.00    +0.149 HD
ATOM      9  N   UNL     1       2.642  -1.073   0.543  0.00  0.00    +0.391 N 
ATOM     10  H   UNL     1       2.622  -2.065   0.275  0.00  0.00    -0.080 HD
BRANCH   9  11
ATOM     11  C   UNL     1       4.043  -0.672   0.802  0.00  0.00    -0.042 C 
BRANCH  11  15
ATOM     12  C   UNL     1       4.254   3.511   1.640  0.00  0.00    +0.000 A 
ATOM     13  C   UNL     1       3.976   2.616   2.656  0.00  0.00    +0.000 A 
ATOM     14  C   UNL     1       3.908   1.263   2.385  0.00  0.00    +0.002 A 
ATOM     15  C   UNL     1       4.117   0.804   1.098  0.00  0.00    -0.064 A 
ATOM     16  C   UNL     1       4.400   1.698   0.083  0.00  0.00    +0.002 A 
ATOM     17  C   UNL     1       4.464   3.053   0.353  0.00  0.00    +0.000 A 
ENDBRANCH  11  15
ENDBRANCH   9  11
ENDBRANCH   1   7
BRANCH   1  18
ATOM     18  C   UNL     1       2.650  -2.112  -2.112  0.00  0.00    +0.214 C 
ATOM     19  O   UNL     1       2.116  -2.820  -1.284  0.00  0.00    -0.276 OA
ATOM     20  N   UNL     1       3.113  -2.649  -3.258  0.00  0.00    -0.301 N 
ATOM     21  C   UNL     1       3.757  -1.804  -4.274  0.00  0.00    +0.111 C 
ATOM     22  C   UNL     1       3.062  -2.023  -5.617  0.00  0.00    +0.058 C 
ATOM     23  C   UNL     1       3.062  -3.517  -5.950  0.00  0.00    +0.094 C 
ATOM     24  C   UNL     1       2.288  -4.281  -4.873  0.00  0.00    +0.058 C 
ATOM     25  C   UNL     1       2.978  -4.088  -3.519  0.00  0.00    +0.111 C 
BRANCH  23  26
ATOM     26  C   UNL     1       2.405  -3.732  -7.289  0.00  0.00    -0.016 A 
ATOM     27  C   UNL     1       1.043  -3.958  -7.362  0.00  0.00    +0.006 A 
ATOM     28  C   UNL     1       0.439  -4.150  -8.591  0.00  0.00    +0.000 A 
ATOM     29  C   UNL     1       1.199  -4.128  -9.745  0.00  0.00    +0.000 A 
ATOM     30  C   UNL     1       2.562  -3.907  -9.671  0.00  0.00    +0.000 A 
ATOM     31  C   UNL     1       3.165  -3.709  -8.443  0.00  0.00    +0.006 A 
ENDBRANCH  23  26
BRANCH  23  32
ATOM     32  O   UNL     1       4.408  -3.994  -5.998  0.00  0.00    -0.384 OA
ATOM     33  H   UNL     1       4.958  -3.554  -6.659  0.00  0.00    +0.211 HD
ENDBRANCH  23  32
ENDBRANCH   1  18
TORSDOF 6
