REMARK  Name = ZINC35115353
REMARK  5 active torsions:
REMARK  status: ('A' for Active; 'I' for Inactive)
REMARK    1  A    between atoms: C_1  and  C_2
REMARK    2  A    between atoms: C_2  and  C_3
REMARK    3  A    between atoms: C_2  and  C_4
REMARK    4  A    between atoms: C_7  and  C_19
REMARK    5  A    between atoms: C_11  and  C_13
REMARK                            x       y       z     vdW  Elec       q    Type
REMARK                         _______ _______ _______ _____ _____    ______ ____
ROOT
ATOM      1  C   UNL     1      -1.351  -0.045  -0.012  0.00  0.00    +0.220 C 
ATOM      2  O   UNL     1      -0.293   0.548  -0.030  0.00  0.00    -0.275 OA
ATOM      3  N   UNL     1      -2.216   0.090  -1.037  0.00  0.00    -0.275 N 
ATOM      4  C   UNL     1      -1.873   0.838  -2.234  0.00  0.00    +0.200 C 
ATOM      5  C   UNL     1      -3.001   0.903  -3.293  0.00  0.00    +0.105 C 
ATOM      6  S   UNL     1      -4.463   0.533  -2.226  0.00  0.00    -0.136 S 
ATOM      7  C   UNL     1      -3.562  -0.522  -1.003  0.00  0.00    +0.138 C 
ENDROOT
BRANCH   7   8
ATOM      8  C   UNL     1      -4.186  -0.404   0.389  0.00  0.00    +0.020 C 
ATOM      9  C   UNL     1      -4.097   1.047   0.867  0.00  0.00    +0.006 C 
ATOM     10  C   UNL     1      -4.721   1.165   2.259  0.00  0.00    +0.000 C 
ATOM     11  C   UNL     1      -6.188   0.737   2.198  0.00  0.00    +0.000 C 
ATOM     12  C   UNL     1      -6.277  -0.714   1.721  0.00  0.00    +0.000 C 
ATOM     13  C   UNL     1      -5.654  -0.832   0.329  0.00  0.00    +0.006 C 
ENDBRANCH   7   8
BRANCH   1  15
ATOM     14  C   UNL     1      -1.995  -2.346   0.651  0.00  0.00    +0.017 C 
ATOM     15  C   UNL     1      -1.697  -0.932   1.156  0.00  0.00    +0.069 C 
ATOM     16  C   UNL     1      -0.519  -0.976   2.130  0.00  0.00    +0.017 C 
ENDBRANCH   1  15
BRANCH   4  17
ATOM     17  C   UNL     1      -1.518   2.246  -1.832  0.00  0.00    +0.377 C 
ATOM     18  O   UNL     1      -0.930   2.974  -2.615  0.00  0.00    -0.244 OA
ATOM     19  O   UNL     1      -1.818   2.658  -0.724  0.00  0.00    -0.244 OA
ENDBRANCH   4  17
TORSDOF 3
