REMARK  Name = ZINC12097111
REMARK  11 active torsions:
REMARK  status: ('A' for Active; 'I' for Inactive)
REMARK    1  A    between atoms: C_1  and  C_2
REMARK    2  A    between atoms: C_4  and  C_34
REMARK    3  A    between atoms: C_6  and  C_8
REMARK    4  A    between atoms: N_10  and  C_11
REMARK    5  A    between atoms: C_11  and  C_13
REMARK    6  A    between atoms: C_11  and  C_17
REMARK    7  A    between atoms: C_13  and  C_14
REMARK    8  A    between atoms: C_14  and  C_15
REMARK    9  A    between atoms: C_14  and  C_16
REMARK   10  A    between atoms: C_26  and  C_27
REMARK   11  A    between atoms: C_26  and  N_68
REMARK                            x       y       z     vdW  Elec       q    Type
REMARK                         _______ _______ _______ _____ _____    ______ ____
ROOT
ATOM      1  C   UNL     1      -1.069   1.182   3.520  0.00  0.00    +0.154 A 
ATOM      2  N   UNL     1      -1.153   2.244   4.276  0.00  0.00    -0.132 NA
ATOM      3  N   UNL     1      -2.057   2.066   5.177  0.00  0.00    -0.134 NA
ATOM      4  C   UNL     1      -2.583   0.885   5.037  0.00  0.00    +0.132 A 
ATOM      5  N   UNL     1      -1.962   0.286   3.991  0.00  0.00    -0.315 N 
ATOM      6  C   UNL     1      -2.214  -1.069   3.502  0.00  0.00    +0.106 C 
ATOM      7  C   UNL     1      -3.660  -1.459   3.823  0.00  0.00    -0.056 C 
ATOM      8  C   UNL     1      -3.296  -1.169   6.212  0.00  0.00    -0.071 C 
ATOM      9  C   UNL     1      -3.690   0.267   5.851  0.00  0.00    +0.058 C 
ATOM     10  N   UNL     1      -3.760  -2.096   5.157  0.00  0.00    +0.384 N 
ATOM     11  H   UNL     1      -4.742  -2.335   5.336  0.00  0.00    -0.081 HD
ENDROOT
BRANCH   1  12
ATOM     12  C   UNL     1      -0.143   0.990   2.346  0.00  0.00    +0.142 C 
BRANCH  12  15
ATOM     13  C   UNL     1       2.269   0.778   2.078  0.00  0.00    +0.245 C 
ATOM     14  O   UNL     1       2.072   0.101   1.088  0.00  0.00    -0.270 OA
ATOM     15  N   UNL     1       1.228   1.312   2.747  0.00  0.00    -0.301 N 
ATOM     16  H   UNL     1       1.387   1.909   3.495  0.00  0.00    +0.150 HD
BRANCH  13  22
ATOM     17  C   UNL     1       5.422   2.850   5.344  0.00  0.00    +0.044 C 
ATOM     18  C   UNL     1       5.172   2.012   4.117  0.00  0.00    -0.049 A 
ATOM     19  C   UNL     1       6.238   1.462   3.428  0.00  0.00    +0.006 A 
ATOM     20  C   UNL     1       6.017   0.691   2.300  0.00  0.00    -0.049 A 
ATOM     21  C   UNL     1       4.731   0.465   1.857  0.00  0.00    +0.016 A 
ATOM     22  C   UNL     1       3.651   1.016   2.548  0.00  0.00    +0.037 A 
ATOM     23  C   UNL     1       3.881   1.798   3.681  0.00  0.00    +0.016 A 
ATOM     24  C   UNL     1       7.185   0.096   1.556  0.00  0.00    +0.044 C 
ENDBRANCH  13  22
ENDBRANCH  12  15
BRANCH  12  25
ATOM     25  C   UNL     1      -0.571   1.914   1.204  0.00  0.00    +0.033 C 
BRANCH  25  26
ATOM     26  C   UNL     1      -1.949   1.490   0.693  0.00  0.00    -0.015 C 
ATOM     27  C   UNL     1      -1.850   0.107   0.045  0.00  0.00    +0.007 C 
ATOM     28  C   UNL     1      -2.443   2.503  -0.342  0.00  0.00    +0.007 C 
ENDBRANCH  25  26
ENDBRANCH  12  25
ENDBRANCH   1  12
BRANCH  10  29
ATOM     29  C   UNL     1      -2.955  -3.330   5.185  0.00  0.00    -0.040 C 
BRANCH  29  30
ATOM     30  C   UNL     1      -3.271  -4.081   6.452  0.00  0.00    -0.029 A 
ATOM     31  C   UNL     1      -4.084  -5.198   6.410  0.00  0.00    +0.004 A 
ATOM     32  C   UNL     1      -4.374  -5.887   7.572  0.00  0.00    +0.000 A 
ATOM     33  C   UNL     1      -3.852  -5.460   8.779  0.00  0.00    +0.003 A 
ATOM     34  C   UNL     1      -3.038  -4.344   8.824  0.00  0.00    +0.038 A 
ATOM     35  C   UNL     1      -2.744  -3.655   7.660  0.00  0.00    +0.125 A 
ATOM     36  F   UNL     1      -1.944  -2.567   7.702  0.00  0.00    -0.205 F 
ENDBRANCH  29  30
ENDBRANCH  10  29
TORSDOF 7
