REMARK  Name = ZINC41251948
REMARK  6 active torsions:
REMARK  status: ('A' for Active; 'I' for Inactive)
REMARK    1  A    between atoms: C_3  and  C_8
REMARK    2  A    between atoms: N_13  and  C_15
REMARK    3  A    between atoms: C_15  and  C_16
REMARK    4  A    between atoms: C_16  and  C_17
REMARK    5  A    between atoms: C_22  and  C_25
REMARK    6  A    between atoms: C_22  and  N_28
REMARK                            x       y       z     vdW  Elec       q    Type
REMARK                         _______ _______ _______ _____ _____    ______ ____
ROOT
ATOM      1  C   UNL     1       4.768   6.589  -2.296  0.00  0.00    +0.217 C 
ATOM      2  O   UNL     1       4.691   6.804  -1.104  0.00  0.00    -0.276 OA
ATOM      3  N   UNL     1       4.605   7.599  -3.174  0.00  0.00    -0.302 N 
ATOM      4  C   UNL     1       4.689   7.354  -4.620  0.00  0.00    +0.107 C 
ATOM      5  C   UNL     1       5.714   8.318  -5.225  0.00  0.00    +0.016 C 
ATOM      6  C   UNL     1       5.340   9.754  -4.851  0.00  0.00    +0.015 C 
ATOM      7  C   UNL     1       5.368   9.911  -3.329  0.00  0.00    +0.016 C 
ATOM      8  C   UNL     1       4.333   8.964  -2.703  0.00  0.00    +0.107 C 
ENDROOT
BRANCH   6   9
ATOM      9  N   UNL     1       6.302  10.684  -5.457  0.00  0.00    +0.389 N 
ATOM     10  C   UNL     1       6.263  10.543  -6.918  0.00  0.00    -0.077 C 
ATOM     11  C   UNL     1       7.321  11.450  -7.550  0.00  0.00    -0.019 C 
ATOM     12  C   UNL     1       7.031  12.905  -7.168  0.00  0.00    -0.004 C 
ATOM     13  C   UNL     1       7.000  13.026  -5.642  0.00  0.00    -0.019 C 
ATOM     14  C   UNL     1       5.954  12.059  -5.081  0.00  0.00    -0.077 C 
ATOM     15  H   UNL     1       7.230  10.470  -5.125  0.00  0.00    -0.080 HD
ENDBRANCH   6   9
BRANCH   6  16
ATOM     16  C   UNL     1       3.955  10.061  -5.362  0.00  0.00    +0.200 C 
ATOM     17  O   UNL     1       3.456   9.362  -6.218  0.00  0.00    -0.278 OA
ATOM     18  N   UNL     1       3.272  11.112  -4.867  0.00  0.00    -0.330 N 
ATOM     19  H   UNL     1       3.697  11.712  -4.235  0.00  0.00    +0.145 HD
ATOM     20  H   UNL     1       2.355  11.268  -5.143  0.00  0.00    +0.145 HD
ENDBRANCH   6  16
BRANCH   1  21
ATOM     21  C   UNL     1       5.046   5.194  -2.794  0.00  0.00    +0.119 C 
BRANCH  21  22
ATOM     22  C   UNL     1       5.188   4.246  -1.602  0.00  0.00    +0.156 C 
BRANCH  22  28
ATOM     23  C   UNL     1       4.642   0.878  -2.762  0.00  0.00    +0.092 A 
ATOM     24  C   UNL     1       5.945   0.375  -2.984  0.00  0.00    +0.035 A 
ATOM     25  C   UNL     1       7.005   1.196  -2.734  0.00  0.00    +0.074 A 
ATOM     26  C   UNL     1       6.735   2.502  -2.267  0.00  0.00    +0.267 A 
ATOM     27  O   UNL     1       7.651   3.272  -2.030  0.00  0.00    -0.266 OA
ATOM     28  N   UNL     1       5.458   2.890  -2.086  0.00  0.00    -0.228 N 
ATOM     29  N   UNL     1       4.472   2.106  -2.331  0.00  0.00    -0.168 NA
BRANCH  23  32
ATOM     30  C   UNL     1       1.082  -0.297  -3.054  0.00  0.00    +0.002 A 
ATOM     31  C   UNL     1       2.176   0.509  -2.810  0.00  0.00    +0.010 A 
ATOM     32  C   UNL     1       3.463   0.017  -3.022  0.00  0.00    +0.003 A 
ATOM     33  C   UNL     1       3.638  -1.288  -3.479  0.00  0.00    +0.030 A 
ATOM     34  C   UNL     1       2.536  -2.086  -3.720  0.00  0.00    +0.042 A 
ATOM     35  C   UNL     1       1.260  -1.591  -3.508  0.00  0.00    +0.020 A 
ATOM     36 CL   UNL     1       2.751  -3.712  -4.290  0.00  0.00    -0.084 Cl
ENDBRANCH  23  32
ENDBRANCH  22  28
ENDBRANCH  21  22
ENDBRANCH   1  21
TORSDOF 6
