REMARK  Name = ZINC21360681
REMARK  9 active torsions:
REMARK  status: ('A' for Active; 'I' for Inactive)
REMARK    1  A    between atoms: C_1  and  C_2
REMARK    2  A    between atoms: C_2  and  N_3
REMARK    3  A    between atoms: C_13  and  S_14
REMARK    4  A    between atoms: S_14  and  C_15
REMARK    5  A    between atoms: C_15  and  C_17
REMARK    6  A    between atoms: C_15  and  C_18
REMARK    7  A    between atoms: N_20  and  C_21
REMARK    8  A    between atoms: C_24  and  N_31
REMARK    9  A    between atoms: C_26  and  C_27
REMARK                            x       y       z     vdW  Elec       q    Type
REMARK                         _______ _______ _______ _____ _____    ______ ____
ROOT
ATOM      1  C   UNL     1      -0.014   1.209   0.005  0.00  0.00    +0.230 C 
ATOM      2  O   UNL     1       0.003  -0.004   0.005  0.00  0.00    -0.274 OA
ATOM      3  N   UNL     1      -1.191   1.867   0.018  0.00  0.00    -0.284 N 
ATOM      4  H   UNL     1      -1.207   2.963   0.110  0.00  0.00    +0.155 HD
ENDROOT
BRANCH   3   5
ATOM      5  C   UNL     1      -2.391   1.155  -0.086  0.00  0.00    +0.045 A 
ATOM      6  C   UNL     1      -2.411  -0.091  -0.699  0.00  0.00    +0.026 A 
ATOM      7  C   UNL     1      -3.597  -0.791  -0.800  0.00  0.00    +0.034 A 
ATOM      8  C   UNL     1      -4.765  -0.252  -0.291  0.00  0.00    +0.127 A 
ATOM      9  C   UNL     1      -4.748   0.989   0.320  0.00  0.00    +0.047 A 
ATOM     10  C   UNL     1      -3.564   1.691   0.428  0.00  0.00    +0.078 A 
BRANCH  10  11
ATOM     11  C   UNL     1      -3.546   3.040   1.100  0.00  0.00    +0.419 C 
ATOM     12  F   UNL     1      -4.837   3.363   1.532  0.00  0.00    -0.166 F 
ATOM     13  F   UNL     1      -2.682   3.002   2.200  0.00  0.00    -0.166 F 
ATOM     14  F   UNL     1      -3.103   4.007   0.192  0.00  0.00    -0.166 F 
ENDBRANCH  10  11
BRANCH   8  15
ATOM     15  N   UNL     1      -6.035  -1.004  -0.401  0.00  0.00    +0.056 N 
ATOM     16  O   UNL     1      -6.050  -2.097  -0.939  0.00  0.00    -0.126 OA
ATOM     17  O   UNL     1      -7.064  -0.530   0.046  0.00  0.00    -0.126 OA
ENDBRANCH   8  15
ENDBRANCH   3   5
BRANCH   1  18
ATOM     18  C   UNL     1       1.280   1.980  -0.015  0.00  0.00    +0.137 C 
ATOM     19  C   UNL     1       1.676   2.350   1.416  0.00  0.00    +0.029 C 
BRANCH  18  20
ATOM     20  S   UNL     1       2.579   0.961  -0.756  0.00  0.00    -0.075 S 
BRANCH  20  31
ATOM     21  N   UNL     1       5.106   1.728  -1.295  0.00  0.00    -0.288 N 
ATOM     22  C   UNL     1       6.146   2.592  -1.347  0.00  0.00    +0.262 A 
ATOM     23  O   UNL     1       7.225   2.254  -1.798  0.00  0.00    -0.267 OA
ATOM     24  C   UNL     1       5.925   3.951  -0.835  0.00  0.00    +0.065 A 
ATOM     25  C   UNL     1       6.935   4.913  -0.840  0.00  0.00    +0.015 A 
ATOM     26  C   UNL     1       6.676   6.164  -0.351  0.00  0.00    +0.001 A 
ATOM     27  C   UNL     1       5.420   6.484   0.149  0.00  0.00    +0.002 A 
ATOM     28  C   UNL     1       4.413   5.561   0.165  0.00  0.00    +0.028 A 
ATOM     29  C   UNL     1       4.646   4.274  -0.327  0.00  0.00    +0.079 A 
ATOM     30  N   UNL     1       3.681   3.333  -0.330  0.00  0.00    -0.223 NA
ATOM     31  C   UNL     1       3.900   2.126  -0.792  0.00  0.00    +0.173 A 
BRANCH  21  33
ATOM     32  C   UNL     1       4.920   0.305  -3.276  0.00  0.00    +0.027 C 
ATOM     33  C   UNL     1       5.272   0.358  -1.788  0.00  0.00    +0.124 C 
ENDBRANCH  21  33
ENDBRANCH  20  31
ENDBRANCH  18  20
ENDBRANCH   1  18
TORSDOF 7
