REMARK  Name = ZINC37929645
REMARK  5 active torsions:
REMARK  status: ('A' for Active; 'I' for Inactive)
REMARK    1  A    between atoms: C_1  and  C_2
REMARK    2  A    between atoms: C_2  and  C_3
REMARK    3  A    between atoms: N_6  and  S_10
REMARK    4  A    between atoms: S_10  and  C_13
REMARK    5  A    between atoms: C_18  and  N_19
REMARK                            x       y       z     vdW  Elec       q    Type
REMARK                         _______ _______ _______ _____ _____    ______ ____
ROOT
ATOM      1  S   UNL     1      -3.453  -3.611   1.035  0.00  0.00    +0.063 S 
ATOM      2  O   UNL     1      -4.535  -4.329   0.457  0.00  0.00    -0.153 OA
ATOM      3  O   UNL     1      -2.302  -4.259   1.558  0.00  0.00    -0.153 OA
ENDROOT
BRANCH   1   4
ATOM      4  C   UNL     1      -4.130  -2.650   2.348  0.00  0.00    +0.127 A 
ATOM      5  C   UNL     1      -4.404  -1.310   2.153  0.00  0.00    +0.045 A 
ATOM      6  C   UNL     1      -4.935  -0.555   3.183  0.00  0.00    +0.020 A 
ATOM      7  C   UNL     1      -5.194  -1.139   4.411  0.00  0.00    +0.017 A 
ATOM      8  C   UNL     1      -4.923  -2.478   4.611  0.00  0.00    +0.026 A 
ATOM      9  C   UNL     1      -4.394  -3.240   3.577  0.00  0.00    +0.051 A 
ATOM     10 BR   UNL     1      -5.308   1.279   2.914  0.00  0.00    -0.050 Br
BRANCH   9  11
ATOM     11  N   UNL     1      -4.124  -4.597   3.774  0.00  0.00    -0.356 N 
ATOM     12  H   UNL     1      -3.688  -5.111   3.077  0.00  0.00    +0.142 HD
ATOM     13  H   UNL     1      -4.373  -5.024   4.608  0.00  0.00    +0.142 HD
ENDBRANCH   9  11
ENDBRANCH   1   4
BRANCH   1  16
ATOM     14  C   UNL     1      -1.745  -0.417  -0.198  0.00  0.00    +0.134 C 
ATOM     15  C   UNL     1      -1.586  -1.931  -0.018  0.00  0.00    +0.141 C 
ATOM     16  N   UNL     1      -2.916  -2.553  -0.120  0.00  0.00    -0.172 NA
ATOM     17  C   UNL     1      -3.755  -2.205  -1.278  0.00  0.00    +0.137 C 
ATOM     18  C   UNL     1      -3.808  -0.678  -1.396  0.00  0.00    +0.177 C 
ATOM     19  O   UNL     1      -2.476  -0.159  -1.399  0.00  0.00    -0.374 OA
BRANCH  14  21
ATOM     20  C   UNL     1      -0.519   1.755  -0.347  0.00  0.00    +0.006 C 
ATOM     21  C   UNL     1      -0.363   0.234  -0.291  0.00  0.00    +0.029 C 
ENDBRANCH  14  21
ENDBRANCH   1  16
TORSDOF 4
