REMARK  Name = ZINC07457130
REMARK  9 active torsions:
REMARK  status: ('A' for Active; 'I' for Inactive)
REMARK    1  A    between atoms: C_1  and  C_2
REMARK    2  A    between atoms: C_2  and  C_3
REMARK    3  A    between atoms: C_3  and  N_4
REMARK    4  A    between atoms: C_5  and  C_7
REMARK    5  A    between atoms: C_7  and  C_9
REMARK    6  A    between atoms: C_7  and  S_10
REMARK    7  A    between atoms: S_10  and  C_11
REMARK    8  A    between atoms: C_14  and  C_17
REMARK    9  A    between atoms: N_15  and  N_16
REMARK                            x       y       z     vdW  Elec       q    Type
REMARK                         _______ _______ _______ _____ _____    ______ ____
ROOT
ATOM      1  C   UNL     1      -3.887  -6.571  -0.709  0.00  0.00    +0.209 A 
ATOM      2  N   UNL     1      -2.765  -7.213  -0.474  0.00  0.00    -0.121 NA
ATOM      3  N   UNL     1      -2.915  -8.466  -0.717  0.00  0.00    -0.127 NA
ATOM      4  C   UNL     1      -4.142  -8.701  -1.121  0.00  0.00    +0.183 A 
ATOM      5  N   UNL     1      -4.804  -7.495  -1.124  0.00  0.00    -0.224 N 
ENDROOT
BRANCH   4   6
ATOM      6  C   UNL     1      -4.707 -10.014  -1.498  0.00  0.00    +0.040 A 
ATOM      7  C   UNL     1      -5.442 -10.148  -2.677  0.00  0.00    +0.033 A 
ATOM      8  C   UNL     1      -5.967 -11.377  -3.023  0.00  0.00    +0.042 A 
ATOM      9  C   UNL     1      -5.766 -12.475  -2.203  0.00  0.00    +0.021 A 
ATOM     10  C   UNL     1      -5.038 -12.349  -1.034  0.00  0.00    +0.022 A 
ATOM     11  C   UNL     1      -4.502 -11.126  -0.679  0.00  0.00    +0.052 A 
ATOM     12 CL   UNL     1      -3.582 -10.972   0.785  0.00  0.00    -0.083 Cl
ATOM     13 CL   UNL     1      -6.883 -11.546  -4.488  0.00  0.00    -0.084 Cl
ENDBRANCH   4   6
BRANCH   5  14
ATOM     14  N   UNL     1      -6.105  -7.268  -1.471  0.00  0.00    -0.295 N 
ATOM     15  H   UNL     1      -6.198  -7.151  -2.469  0.00  0.00    +0.163 HD
ATOM     16  H   UNL     1      -6.703  -8.009  -1.136  0.00  0.00    +0.163 HD
ENDBRANCH   5  14
BRANCH   1  17
ATOM     17  S   UNL     1      -4.161  -4.841  -0.516  0.00  0.00    -0.072 S 
BRANCH  17  18
ATOM     18  C   UNL     1      -2.561  -4.204   0.054  0.00  0.00    +0.137 C 
ATOM     19  C   UNL     1      -2.244  -4.784   1.434  0.00  0.00    +0.029 C 
BRANCH  18  21
ATOM     20  N   UNL     1      -1.490  -1.974   0.046  0.00  0.00    -0.314 N 
ATOM     21  C   UNL     1      -2.621  -2.701   0.143  0.00  0.00    +0.226 C 
ATOM     22  O   UNL     1      -3.687  -2.145   0.301  0.00  0.00    -0.275 OA
ATOM     23  H   UNL     1      -0.638  -2.419  -0.081  0.00  0.00    +0.149 HD
BRANCH  20  24
ATOM     24  C   UNL     1      -1.549  -0.513   0.132  0.00  0.00    +0.104 C 
BRANCH  24  26
ATOM     25  C   UNL     1      -0.199   1.589   0.083  0.00  0.00    +0.005 C 
ATOM     26  C   UNL     1      -0.138   0.063  -0.007  0.00  0.00    +0.015 C 
ENDBRANCH  24  26
ENDBRANCH  20  24
ENDBRANCH  18  21
ENDBRANCH  17  18
ENDBRANCH   1  17
TORSDOF 7
