REMARK  Name = ZINC20100243
REMARK  7 active torsions:
REMARK  status: ('A' for Active; 'I' for Inactive)
REMARK    1  A    between atoms: C_1  and  C_2
REMARK    2  A    between atoms: C_2  and  C_3
REMARK    3  A    between atoms: C_3  and  C_4
REMARK    4  A    between atoms: C_4  and  S_5
REMARK    5  A    between atoms: S_5  and  C_6
REMARK    6  A    between atoms: C_19  and  C_21
REMARK    7  A    between atoms: C_19  and  C_22
REMARK                            x       y       z     vdW  Elec       q    Type
REMARK                         _______ _______ _______ _____ _____    ______ ____
ROOT
ATOM      1  C   UNL     1       1.106   2.014   0.002  0.00  0.00    +0.170 A 
ATOM      2  N   UNL     1       2.317   1.384  -0.012  0.00  0.00    -0.301 N 
ATOM      3  H   UNL     1       3.244   1.975  -0.017  0.00  0.00    +0.171 HD
ATOM      4  C   UNL     1       2.405   0.041  -0.021  0.00  0.00    +0.261 A 
ATOM      5  O   UNL     1       3.494  -0.506  -0.034  0.00  0.00    -0.267 OA
ATOM      6  C   UNL     1       1.203  -0.736  -0.013  0.00  0.00    +0.076 A 
ATOM      7  C   UNL     1       1.061  -2.190  -0.020  0.00  0.00    -0.018 A 
ATOM      8  C   UNL     1      -0.196  -2.685  -0.010  0.00  0.00    +0.021 A 
ATOM      9  S   UNL     1      -1.250  -1.264   0.007  0.00  0.00    -0.071 S 
ATOM     10  C   UNL     1       0.002  -0.004   0.002  0.00  0.00    +0.117 A 
ATOM     11  N   UNL     1      -0.016   1.323   0.009  0.00  0.00    -0.216 NA
ATOM     12  C   UNL     1      -0.577  -4.133  -0.014  0.00  0.00    +0.203 C 
ATOM     13  O   UNL     1       0.593  -4.897  -0.349  0.00  0.00    -0.368 OA
ATOM     14  C   UNL     1       1.750  -4.528   0.405  0.00  0.00    +0.068 C 
ATOM     15  C   UNL     1       2.249  -3.149  -0.035  0.00  0.00    +0.071 C 
ATOM     16  C   UNL     1       1.395  -4.488   1.893  0.00  0.00    +0.041 C 
ATOM     17  C   UNL     1       2.856  -5.561   0.176  0.00  0.00    +0.041 C 
ENDROOT
BRANCH   1  18
ATOM     18  S   UNL     1       1.043   3.775   0.012  0.00  0.00    -0.088 S 
BRANCH  18  19
ATOM     19  C   UNL     1      -0.750   4.025   0.030  0.00  0.00    +0.077 C 
BRANCH  19  20
ATOM     20  C   UNL     1      -1.055   5.524   0.041  0.00  0.00    +0.011 C 
BRANCH  20  22
ATOM     21  C   UNL     1      -2.876   7.235   0.066  0.00  0.00    +0.004 C 
ATOM     22  C   UNL     1      -2.571   5.736   0.056  0.00  0.00    -0.003 C 
ENDBRANCH  20  22
ENDBRANCH  19  20
ENDBRANCH  18  19
ENDBRANCH   1  18
TORSDOF 4
