REMARK  Name = ZINC39344906
REMARK  7 active torsions:
REMARK  status: ('A' for Active; 'I' for Inactive)
REMARK    1  A    between atoms: C_10  and  C_12
REMARK    2  A    between atoms: C_12  and  N_13
REMARK    3  A    between atoms: C_14  and  C_16
REMARK    4  A    between atoms: C_18  and  C_32
REMARK    5  A    between atoms: C_20  and  S_22
REMARK    6  A    between atoms: S_22  and  N_25
REMARK    7  A    between atoms: N_25  and  C_26
REMARK                            x       y       z     vdW  Elec       q    Type
REMARK                         _______ _______ _______ _____ _____    ______ ____
ROOT
ATOM      1  C   UNL     1       8.249  -0.931  -1.852  0.00  0.00    +0.039 A 
ATOM      2  C   UNL     1       9.274  -0.476  -2.683  0.00  0.00    +0.019 A 
ATOM      3  C   UNL     1      10.493  -1.123  -2.688  0.00  0.00    -0.017 A 
ATOM      4  C   UNL     1      10.700  -2.221  -1.871  0.00  0.00    +0.034 A 
ATOM      5  C   UNL     1       9.688  -2.677  -1.045  0.00  0.00    +0.106 A 
ATOM      6  C   UNL     1       8.467  -2.035  -1.026  0.00  0.00    +0.041 A 
ENDROOT
BRANCH   3   7
ATOM      7  C   UNL     1      11.600  -0.634  -3.585  0.00  0.00    +0.153 C 
ATOM      8  C   UNL     1      11.364  -1.075  -5.019  0.00  0.00    +0.025 C 
ATOM      9  C   UNL     1      11.251   0.072  -5.693  0.00  0.00    +0.130 C 
ATOM     10  N   UNL     1      11.385   1.131  -4.864  0.00  0.00    -0.186 NA
ATOM     11  N   UNL     1      11.584   0.836  -3.679  0.00  0.00    -0.298 N 
ATOM     12  H   UNL     1      11.705   1.457  -2.944  0.00  0.00    +0.183 HD
ENDBRANCH   3   7
BRANCH   1  14
ATOM     13  N   UNL     1       5.956  -0.680  -1.033  0.00  0.00    -0.309 N 
ATOM     14  C   UNL     1       6.941  -0.242  -1.841  0.00  0.00    +0.244 C 
ATOM     15  O   UNL     1       6.755   0.720  -2.561  0.00  0.00    -0.270 OA
ATOM     16  H   UNL     1       6.104  -1.447  -0.459  0.00  0.00    +0.149 HD
BRANCH  13  17
ATOM     17  C   UNL     1       4.660   0.003  -1.023  0.00  0.00    +0.141 C 
BRANCH  17  27
ATOM     18  C   UNL     1      -0.017   1.377   0.010  0.00  0.00    +0.000 A 
ATOM     19  C   UNL     1       1.173   2.081   0.002  0.00  0.00    +0.000 A 
ATOM     20  C   UNL     1       2.375   1.402  -0.011  0.00  0.00    +0.006 A 
ATOM     21  C   UNL     1       2.395   0.016  -0.018  0.00  0.00    -0.014 A 
ATOM     22  C   UNL     1       1.208  -0.686  -0.015  0.00  0.00    -0.040 A 
ATOM     23  C   UNL     1       0.002  -0.004   0.002  0.00  0.00    +0.004 A 
ATOM     24  C   UNL     1       1.189  -2.194  -0.035  0.00  0.00    +0.063 C 
ATOM     25  C   UNL     1       2.563  -2.734   0.365  0.00  0.00    +0.165 C 
ATOM     26  O   UNL     1       3.561  -2.055  -0.404  0.00  0.00    -0.370 OA
ATOM     27  C   UNL     1       3.727  -0.688  -0.026  0.00  0.00    +0.165 C 
ENDBRANCH  17  27
ENDBRANCH  13  17
ENDBRANCH   1  14
BRANCH   5  28
ATOM     28  S   UNL     1       9.962  -4.076  -0.009  0.00  0.00    +0.059 S 
ATOM     29  O   UNL     1       8.684  -4.634   0.265  0.00  0.00    -0.153 OA
ATOM     30  O   UNL     1      11.009  -4.826  -0.609  0.00  0.00    -0.153 OA
BRANCH  28  31
ATOM     31  N   UNL     1      10.550  -3.510   1.431  0.00  0.00    -0.187 NA
ATOM     32  H   UNL     1      11.452  -3.736   1.709  0.00  0.00    +0.148 HD
BRANCH  31  33
ATOM     33  C   UNL     1       9.709  -2.670   2.287  0.00  0.00    +0.077 C 
ATOM     34  C   UNL     1      10.008  -1.196   2.005  0.00  0.00    +0.020 C 
ATOM     35  C   UNL     1       9.130  -0.317   2.898  0.00  0.00    +0.002 C 
ATOM     36  C   UNL     1       9.427  -0.626   4.367  0.00  0.00    +0.000 C 
ATOM     37  C   UNL     1       9.128  -2.100   4.649  0.00  0.00    +0.002 C 
ATOM     38  C   UNL     1      10.006  -2.978   3.756  0.00  0.00    +0.020 C 
ENDBRANCH  31  33
ENDBRANCH  28  31
ENDBRANCH   5  28
TORSDOF 7
