REMARK  Name = ZINC28059393
REMARK  6 active torsions:
REMARK  status: ('A' for Active; 'I' for Inactive)
REMARK    1  A    between atoms: C_1  and  O_2
REMARK    2  A    between atoms: O_2  and  C_3
REMARK    3  A    between atoms: C_6  and  C_11
REMARK    4  A    between atoms: C_8  and  O_9
REMARK    5  A    between atoms: O_9  and  C_10
REMARK    6  A    between atoms: C_22  and  C_24
REMARK                            x       y       z     vdW  Elec       q    Type
REMARK                         _______ _______ _______ _____ _____    ______ ____
ROOT
ATOM      1  C   UNL     1      -1.778   0.859   1.898  0.00  0.00    +0.174 C 
ATOM      2  C   UNL     1      -0.681   1.658   1.238  0.00  0.00    +0.025 C 
ATOM      3  C   UNL     1      -0.283   2.844   1.703  0.00  0.00    +0.050 C 
ATOM      4  C   UNL     1       0.818   3.544   1.000  0.00  0.00    +0.038 A 
ATOM      5  C   UNL     1       1.063   4.897   1.198  0.00  0.00    +0.013 A 
ATOM      6  C   UNL     1       2.102   5.508   0.522  0.00  0.00    +0.001 A 
ATOM      7  C   UNL     1       2.894   4.778  -0.347  0.00  0.00    +0.004 A 
ATOM      8  C   UNL     1       2.657   3.430  -0.550  0.00  0.00    +0.046 A 
ATOM      9  C   UNL     1       1.621   2.807   0.119  0.00  0.00    +0.131 A 
ATOM     10  O   UNL     1       1.355   1.487  -0.053  0.00  0.00    -0.479 OA
ATOM     11  C   UNL     1      -0.013   1.086   0.008  0.00  0.00    +0.234 C 
ATOM     12  N   UNL     1      -0.873   3.445   2.821  0.00  0.00    -0.282 N 
ATOM     13  C   UNL     1      -2.062   2.903   3.281  0.00  0.00    +0.240 A 
ATOM     14  N   UNL     1      -2.500   1.691   2.850  0.00  0.00    -0.201 N 
ATOM     15  N   UNL     1      -3.711   1.478   3.507  0.00  0.00    -0.042 NA
ATOM     16  N   UNL     1      -3.912   2.516   4.254  0.00  0.00    -0.021 NA
ATOM     17  N   UNL     1      -2.943   3.357   4.125  0.00  0.00    -0.092 NA
ATOM     18  H   UNL     1      -0.392   4.311   3.298  0.00  0.00    +0.155 HD
ENDROOT
BRANCH  11  19
ATOM     19  C   UNL     1      -0.731   1.579  -1.222  0.00  0.00    -0.003 A 
ATOM     20  C   UNL     1      -1.590   0.739  -1.904  0.00  0.00    +0.010 A 
ATOM     21  C   UNL     1      -2.252   1.192  -3.029  0.00  0.00    +0.039 A 
ATOM     22  C   UNL     1      -2.047   2.485  -3.479  0.00  0.00    +0.123 A 
ATOM     23  C   UNL     1      -1.182   3.325  -2.797  0.00  0.00    +0.039 A 
ATOM     24  C   UNL     1      -0.525   2.871  -1.670  0.00  0.00    +0.010 A 
ATOM     25  F   UNL     1      -2.691   2.928  -4.581  0.00  0.00    -0.205 F 
ENDBRANCH  11  19
BRANCH   1  29
ATOM     26  C   UNL     1      -0.050  -2.470   3.954  0.00  0.00    +0.162 A 
ATOM     27  C   UNL     1       0.300  -1.176   4.307  0.00  0.00    +0.050 A 
ATOM     28  C   UNL     1      -0.256  -0.103   3.637  0.00  0.00    +0.010 A 
ATOM     29  C   UNL     1      -1.170  -0.316   2.622  0.00  0.00    -0.015 A 
ATOM     30  C   UNL     1      -1.524  -1.603   2.265  0.00  0.00    +0.055 A 
ATOM     31  C   UNL     1      -0.966  -2.684   2.929  0.00  0.00    +0.162 A 
BRANCH  26  33
ATOM     32  C   UNL     1       1.432  -3.232   5.651  0.00  0.00    +0.277 C 
ATOM     33  O   UNL     1       0.500  -3.527   4.609  0.00  0.00    -0.491 OA
ENDBRANCH  26  33
BRANCH  31  34
ATOM     34  O   UNL     1      -1.313  -3.952   2.579  0.00  0.00    -0.491 OA
ATOM     35  C   UNL     1      -2.258  -4.096   1.517  0.00  0.00    +0.277 C 
ENDBRANCH  31  34
ENDBRANCH   1  29
TORSDOF 4
