REMARK  Name = ZINC05578059
REMARK  3 active torsions:
REMARK  status: ('A' for Active; 'I' for Inactive)
REMARK    1  A    between atoms: C_5  and  N_7
REMARK    2  A    between atoms: C_8  and  C_10
REMARK    3  A    between atoms: N_15  and  C_17
REMARK                            x       y       z     vdW  Elec       q    Type
REMARK                         _______ _______ _______ _____ _____    ______ ____
ROOT
ATOM      1  C   UNL     1      -4.771   4.284  -0.439  0.00  0.00    +0.102 C 
ATOM      2  C   UNL     1      -4.049   5.549   0.081  0.00  0.00    +0.110 C 
ATOM      3  C   UNL     1      -2.587   5.161   0.104  0.00  0.00    +0.221 C 
ATOM      4  O   UNL     1      -1.662   5.941   0.185  0.00  0.00    -0.275 OA
ATOM      5  N   UNL     1      -2.463   3.825   0.019  0.00  0.00    -0.271 N 
ATOM      6  C   UNL     1      -3.775   3.171  -0.049  0.00  0.00    +0.127 C 
ENDROOT
BRANCH   5   7
ATOM      7  C   UNL     1      -1.238   3.145   0.004  0.00  0.00    +0.040 A 
ATOM      8  C   UNL     1      -1.214   1.757   0.029  0.00  0.00    +0.027 A 
ATOM      9  C   UNL     1      -0.007   1.086   0.021  0.00  0.00    +0.051 A 
ATOM     10  C   UNL     1       1.184   1.795  -0.025  0.00  0.00    +0.162 A 
ATOM     11  C   UNL     1       1.163   3.185  -0.058  0.00  0.00    +0.164 A 
ATOM     12  C   UNL     1      -0.049   3.858  -0.043  0.00  0.00    +0.073 A 
ATOM     13  O   UNL     1       2.322   3.898  -0.108  0.00  0.00    -0.485 OA
ATOM     14  C   UNL     1       3.520   3.204   0.256  0.00  0.00    +0.270 C 
ATOM     15  C   UNL     1       3.523   1.845  -0.455  0.00  0.00    +0.270 C 
ATOM     16  O   UNL     1       2.365   1.116  -0.035  0.00  0.00    -0.485 OA
ENDBRANCH   5   7
BRANCH   1  18
ATOM     17  N   UNL     1      -7.099   4.966   0.048  0.00  0.00    -0.283 N 
ATOM     18  C   UNL     1      -6.093   4.093   0.259  0.00  0.00    +0.222 C 
ATOM     19  O   UNL     1      -6.253   3.154   1.010  0.00  0.00    -0.275 OA
ATOM     20  H   UNL     1      -6.991   5.684  -0.595  0.00  0.00    +0.155 HD
BRANCH  17  25
ATOM     21  C   UNL     1      -9.866   3.474   1.958  0.00  0.00    +0.002 A 
ATOM     22  C   UNL     1     -10.671   4.580   2.163  0.00  0.00    +0.003 A 
ATOM     23  C   UNL     1     -10.293   5.815   1.668  0.00  0.00    +0.040 A 
ATOM     24  C   UNL     1      -9.109   5.947   0.966  0.00  0.00    +0.144 A 
ATOM     25  C   UNL     1      -8.299   4.837   0.759  0.00  0.00    +0.069 A 
ATOM     26  C   UNL     1      -8.685   3.598   1.252  0.00  0.00    +0.026 A 
ATOM     27  F   UNL     1      -8.741   7.154   0.482  0.00  0.00    -0.204 F 
ENDBRANCH  17  25
ENDBRANCH   1  18
TORSDOF 3
