REMARK  Name = ZINC14805519
REMARK  10 active torsions:
REMARK  status: ('A' for Active; 'I' for Inactive)
REMARK    1  A    between atoms: C_1  and  C_2
REMARK    2  A    between atoms: C_5  and  O_8
REMARK    3  A    between atoms: O_8  and  C_9
REMARK    4  A    between atoms: C_9  and  C_11
REMARK    5  A    between atoms: C_9  and  C_12
REMARK    6  A    between atoms: N_14  and  N_15
REMARK    7  A    between atoms: C_16  and  C_18
REMARK    8  A    between atoms: C_23  and  N_24
REMARK    9  A    between atoms: N_24  and  S_25
REMARK   10  A    between atoms: S_25  and  C_28
REMARK                            x       y       z     vdW  Elec       q    Type
REMARK                         _______ _______ _______ _____ _____    ______ ____
ROOT
ATOM      1  N   UNL     1       0.881  -0.839   3.450  0.00  0.00    -0.230 N 
ATOM      2  C   UNL     1       0.909  -2.119   3.870  0.00  0.00    +0.262 C 
ATOM      3  O   UNL     1       0.521  -3.009   3.137  0.00  0.00    -0.269 OA
ATOM      4  H   UNL     1       1.191  -0.130   4.034  0.00  0.00    +0.173 HD
ENDROOT
BRANCH   2   5
ATOM      5  C   UNL     1       1.411  -2.442   5.218  0.00  0.00    +0.060 A 
ATOM      6  C   UNL     1       1.864  -1.424   6.061  0.00  0.00    +0.015 A 
ATOM      7  C   UNL     1       2.329  -1.732   7.322  0.00  0.00    +0.001 A 
ATOM      8  C   UNL     1       2.358  -3.048   7.755  0.00  0.00    +0.002 A 
ATOM      9  C   UNL     1       1.919  -4.065   6.932  0.00  0.00    +0.025 A 
ATOM     10  C   UNL     1       1.443  -3.774   5.660  0.00  0.00    +0.060 A 
BRANCH  10  11
ATOM     11  N   UNL     1       1.000  -4.795   4.830  0.00  0.00    -0.215 N 
ATOM     12  H   UNL     1       1.155  -4.744   3.873  0.00  0.00    +0.174 HD
BRANCH  11  13
ATOM     13  S   UNL     1       0.209  -6.100   5.472  0.00  0.00    +0.079 S 
ATOM     14  O   UNL     1      -0.230  -6.890   4.375  0.00  0.00    -0.149 OA
ATOM     15  O   UNL     1       1.046  -6.619   6.497  0.00  0.00    -0.149 OA
BRANCH  13  16
ATOM     16  C   UNL     1      -1.241  -5.491   6.267  0.00  0.00    +0.146 A 
ATOM     17  C   UNL     1      -2.483  -5.311   5.755  0.00  0.00    +0.036 A 
ATOM     18  C   UNL     1      -3.480  -4.814   6.574  0.00  0.00    +0.010 A 
ATOM     19  C   UNL     1      -3.186  -4.523   7.864  0.00  0.00    +0.047 A 
ATOM     20  S   UNL     1      -1.457  -4.959   7.957  0.00  0.00    -0.077 S 
ENDBRANCH  13  16
ENDBRANCH  11  13
ENDBRANCH  10  11
ENDBRANCH   2   5
BRANCH   1  23
ATOM     21  C   UNL     1       0.376   0.748   1.748  0.00  0.00    +0.270 C 
ATOM     22  O   UNL     1       0.763   1.634   2.479  0.00  0.00    -0.270 OA
ATOM     23  N   UNL     1       0.404  -0.533   2.168  0.00  0.00    -0.231 N 
ATOM     24  H   UNL     1       0.094  -1.242   1.584  0.00  0.00    +0.173 HD
BRANCH  21  25
ATOM     25  C   UNL     1      -0.137   1.077   0.370  0.00  0.00    +0.257 C 
ATOM     26  C   UNL     1       0.792   0.466  -0.680  0.00  0.00    +0.062 C 
BRANCH  25  27
ATOM     27  O   UNL     1      -0.177   2.496   0.203  0.00  0.00    -0.480 OA
BRANCH  27  32
ATOM     28  C   UNL     1      -3.828   4.526  -3.575  0.00  0.00    +0.044 C 
ATOM     29  C   UNL     1      -2.851   3.983  -2.564  0.00  0.00    -0.050 A 
ATOM     30  C   UNL     1      -2.682   2.617  -2.432  0.00  0.00    +0.007 A 
ATOM     31  C   UNL     1      -1.787   2.116  -1.506  0.00  0.00    +0.046 A 
ATOM     32  C   UNL     1      -1.058   2.986  -0.708  0.00  0.00    +0.122 A 
ATOM     33  C   UNL     1      -1.234   4.356  -0.838  0.00  0.00    +0.046 A 
ATOM     34  C   UNL     1      -2.126   4.851  -1.769  0.00  0.00    +0.007 A 
ENDBRANCH  27  32
ENDBRANCH  25  27
ENDBRANCH  21  25
ENDBRANCH   1  23
TORSDOF 8
