REMARK  Name = ZINC09828934
REMARK  7 active torsions:
REMARK  status: ('A' for Active; 'I' for Inactive)
REMARK    1  A    between atoms: C_5  and  N_7
REMARK    2  A    between atoms: C_12  and  C_14
REMARK    3  A    between atoms: C_12  and  C_28
REMARK    4  A    between atoms: C_12  and  N_66
REMARK    5  A    between atoms: C_14  and  N_15
REMARK    6  A    between atoms: C_16  and  C_18
REMARK    7  A    between atoms: N_20  and  C_21
REMARK                            x       y       z     vdW  Elec       q    Type
REMARK                         _______ _______ _______ _____ _____    ______ ____
ROOT
ATOM      1  C   UNL     1      -1.361  -0.549  -0.064  0.00  0.00    +0.017 C 
ENDROOT
BRANCH   1   7
ATOM      2  N   UNL     1       1.808   2.080   0.884  0.00  0.00    -0.331 N 
ATOM      3  C   UNL     1       0.866   2.488  -0.167  0.00  0.00    +0.086 C 
ATOM      4  C   UNL     1      -0.431   1.687  -0.026  0.00  0.00    -0.059 C 
ATOM      5  C   UNL     1       0.812  -0.156   0.931  0.00  0.00    -0.059 C 
ATOM      6  C   UNL     1       2.108   0.645   0.790  0.00  0.00    +0.086 C 
ATOM      7  N   UNL     1      -0.118   0.248  -0.145  0.00  0.00    +0.389 N 
ATOM      8  H   UNL     1       0.329   0.078  -1.053  0.00  0.00    -0.081 HD
BRANCH   2  13
ATOM      9  C   UNL     1       4.963   3.523  -0.331  0.00  0.00    +0.002 A 
ATOM     10  C   UNL     1       5.298   4.350   0.726  0.00  0.00    +0.003 A 
ATOM     11  C   UNL     1       4.477   4.426   1.836  0.00  0.00    +0.040 A 
ATOM     12  C   UNL     1       3.318   3.674   1.893  0.00  0.00    +0.144 A 
ATOM     13  C   UNL     1       2.979   2.842   0.831  0.00  0.00    +0.065 A 
ATOM     14  C   UNL     1       3.809   2.766  -0.279  0.00  0.00    +0.026 A 
ATOM     15  F   UNL     1       2.516   3.748   2.978  0.00  0.00    -0.204 F 
ENDBRANCH   2  13
ENDBRANCH   1   7
BRANCH   1  16
ATOM     16  C   UNL     1      -2.068  -0.292   1.241  0.00  0.00    +0.093 A 
ATOM     17  C   UNL     1      -3.377  -0.015   1.386  0.00  0.00    +0.043 A 
ATOM     18  C   UNL     1      -3.610   0.153   2.770  0.00  0.00    +0.041 A 
ATOM     19  C   UNL     1      -2.429  -0.031   3.389  0.00  0.00    +0.195 A 
ATOM     20  O   UNL     1      -1.500  -0.305   2.458  0.00  0.00    -0.469 OA
ENDBRANCH   1  16
BRANCH   1  21
ATOM     21  C   UNL     1      -1.008  -2.034  -0.170  0.00  0.00    +0.097 C 
BRANCH  21  22
ATOM     22  N   UNL     1      -0.216  -2.263  -1.381  0.00  0.00    -0.309 N 
ATOM     23  C   UNL     1       0.210  -3.506  -1.682  0.00  0.00    +0.299 C 
ATOM     24  O   UNL     1      -0.062  -4.434  -0.950  0.00  0.00    -0.265 OA
ATOM     25  H   UNL     1       0.001  -1.520  -1.966  0.00  0.00    +0.149 HD
BRANCH  23  26
ATOM     26  C   UNL     1       1.018  -3.739  -2.918  0.00  0.00    +0.299 C 
ATOM     27  O   UNL     1       1.289  -2.811  -3.650  0.00  0.00    -0.265 OA
ATOM     28  N   UNL     1       1.444  -4.982  -3.219  0.00  0.00    -0.305 N 
ATOM     29  H   UNL     1       1.227  -5.724  -2.634  0.00  0.00    +0.149 HD
BRANCH  28  30
ATOM     30  C   UNL     1       2.236  -5.211  -4.430  0.00  0.00    +0.073 C 
ATOM     31  C   UNL     1       1.281  -5.329  -5.636  0.00  0.00    +0.022 C 
ATOM     32  C   UNL     1       2.061  -5.053  -6.892  0.00  0.00    +0.002 C 
ATOM     33  C   UNL     1       2.593  -6.340  -7.551  0.00  0.00    +0.000 C 
ATOM     34  C   UNL     1       3.149  -7.349  -6.529  0.00  0.00    +0.000 C 
ATOM     35  C   UNL     1       3.964  -6.687  -5.451  0.00  0.00    +0.002 C 
ATOM     36  C   UNL     1       3.046  -6.406  -4.245  0.00  0.00    +0.022 C 
ENDBRANCH  28  30
ENDBRANCH  23  26
ENDBRANCH  21  22
ENDBRANCH   1  21
TORSDOF 7
