REMARK  Name = ZINC01882950
REMARK  4 active torsions:
REMARK  status: ('A' for Active; 'I' for Inactive)
REMARK    1  A    between atoms: C_1  and  C_2
REMARK    2  A    between atoms: C_2  and  C_29
REMARK    3  A    between atoms: C_10  and  C_11
REMARK    4  A    between atoms: C_14  and  C_16
REMARK                            x       y       z     vdW  Elec       q    Type
REMARK                         _______ _______ _______ _____ _____    ______ ____
ROOT
ATOM      1  C   UNL     1      -3.361   0.814  -0.266  0.00  0.00    +0.041 C 
ATOM      2  C   UNL     1      -2.795  -0.582  -0.228  0.00  0.00    -0.044 C 
ATOM      3  C   UNL     1      -2.346  -1.087   0.918  0.00  0.00    +0.095 A 
ATOM      4  N   UNL     1      -1.785  -2.342   1.165  0.00  0.00    -0.283 N 
ATOM      5  H   UNL     1      -1.713  -3.001   0.457  0.00  0.00    +0.188 HD
ATOM      6  N   UNL     1      -1.333  -2.624   2.438  0.00  0.00    -0.212 N 
ATOM      7  C   UNL     1      -0.609  -3.778   2.803  0.00  0.00    +0.160 A 
ATOM      8  N   UNL     1       0.103  -4.478   1.958  0.00  0.00    -0.281 NA
ATOM      9  C   UNL     1      -0.736  -4.121   4.246  0.00  0.00    +0.088 A 
ATOM     10  C   UNL     1      -0.729  -5.435   4.689  0.00  0.00    +0.063 C 
ATOM     11  C   UNL     1      -0.869  -2.983   5.183  0.00  0.00    +0.283 A 
ATOM     12  O   UNL     1      -0.542  -3.093   6.353  0.00  0.00    -0.265 OA
ATOM     13  N   UNL     1      -1.363  -1.819   4.707  0.00  0.00    -0.182 NA
ATOM     14  C   UNL     1      -1.593  -1.694   3.427  0.00  0.00    +0.199 A 
ATOM     15  S   UNL     1      -2.299  -0.333   2.537  0.00  0.00    -0.031 S 
ATOM     16  C   UNL     1      -2.736  -1.406  -1.489  0.00  0.00    +0.041 C 
ATOM     17  H   UNL     1       0.582  -5.264   2.262  0.00  0.00    +0.188 HD
ENDROOT
BRANCH  10  18
ATOM     18  C   UNL     1      -1.098  -5.732   6.011  0.00  0.00    +0.129 A 
ATOM     19  C   UNL     1      -0.994  -6.972   6.626  0.00  0.00    +0.050 A 
ATOM     20  C   UNL     1      -1.469  -6.817   7.927  0.00  0.00    +0.050 A 
ATOM     21  C   UNL     1      -1.845  -5.498   8.066  0.00  0.00    +0.136 A 
ATOM     22  O   UNL     1      -1.609  -4.860   6.906  0.00  0.00    -0.455 OA
BRANCH  21  23
ATOM     23  C   UNL     1      -2.408  -4.887   9.285  0.00  0.00    +0.020 A 
ATOM     24  C   UNL     1      -2.594  -5.658  10.435  0.00  0.00    +0.031 A 
ATOM     25  C   UNL     1      -3.120  -5.080  11.573  0.00  0.00    +0.043 A 
ATOM     26  C   UNL     1      -3.463  -3.738  11.576  0.00  0.00    +0.040 A 
ATOM     27  C   UNL     1      -3.280  -2.968  10.440  0.00  0.00    +0.043 A 
ATOM     28  C   UNL     1      -2.750  -3.532   9.297  0.00  0.00    +0.031 A 
ATOM     29 CL   UNL     1      -3.713  -1.287  10.455  0.00  0.00    -0.083 Cl
ATOM     30 CL   UNL     1      -3.354  -6.037  13.002  0.00  0.00    -0.083 Cl
ENDBRANCH  21  23
ENDBRANCH  10  18
TORSDOF 2
