REMARK  Name = ZINC39227119
REMARK  8 active torsions:
REMARK  status: ('A' for Active; 'I' for Inactive)
REMARK    1  A    between atoms: C_1  and  C_2
REMARK    2  A    between atoms: C_3  and  O_32
REMARK    3  A    between atoms: N_12  and  C_15
REMARK    4  A    between atoms: C_15  and  C_16
REMARK    5  A    between atoms: C_20  and  O_22
REMARK    6  A    between atoms: O_22  and  C_23
REMARK    7  A    between atoms: O_32  and  C_33
REMARK    8  A    between atoms: C_33  and  C_34
REMARK                            x       y       z     vdW  Elec       q    Type
REMARK                         _______ _______ _______ _____ _____    ______ ____
ROOT
ATOM      1  C   UNL     1       0.327   1.289   0.176  0.00  0.00    +0.051 C 
ATOM      2  C   UNL     1       0.357  -0.217   0.214  0.00  0.00    +0.034 A 
ATOM      3  C   UNL     1       0.417  -0.942  -0.968  0.00  0.00    +0.127 A 
ATOM      4  C   UNL     1       0.446  -2.333  -0.944  0.00  0.00    +0.047 A 
ATOM      5  C   UNL     1       0.409  -3.003   0.246  0.00  0.00    +0.018 A 
ATOM      6  C   UNL     1       0.344  -2.287   1.444  0.00  0.00    +0.060 A 
ATOM      7  C   UNL     1       0.330  -0.881   1.430  0.00  0.00    +0.138 A 
ATOM      8  O   UNL     1       0.291  -0.176   2.585  0.00  0.00    -0.484 OA
ATOM      9  C   UNL     1      -0.207  -0.812   3.760  0.00  0.00    +0.114 C 
ATOM     10  C   UNL     1      -1.705  -1.081   3.607  0.00  0.00    +0.030 C 
ATOM     11  C   UNL     1      -2.448   0.251   3.481  0.00  0.00    -0.074 C 
ATOM     12  N   UNL     1      -2.212   1.062   4.681  0.00  0.00    +0.383 N 
ATOM     13  C   UNL     1      -0.784   1.385   4.793  0.00  0.00    -0.074 C 
ATOM     14  C   UNL     1       0.021   0.096   4.972  0.00  0.00    +0.030 C 
ATOM     15  C   UNL     1       0.530  -2.141   3.977  0.00  0.00    +0.127 C 
ATOM     16  C   UNL     1       0.294  -2.988   2.736  0.00  0.00    +0.170 C 
ATOM     17  O   UNL     1       0.089  -4.182   2.806  0.00  0.00    -0.292 OA
ATOM     18  H   UNL     1      -2.503   0.546   5.498  0.00  0.00    -0.081 HD
ENDROOT
BRANCH  12  19
ATOM     19  C   UNL     1      -2.988   2.306   4.590  0.00  0.00    -0.043 C 
BRANCH  19  20
ATOM     20  C   UNL     1      -2.844   3.083   5.873  0.00  0.00    -0.060 A 
ATOM     21  C   UNL     1      -3.732   2.871   6.912  0.00  0.00    +0.002 A 
ATOM     22  C   UNL     1      -3.603   3.582   8.091  0.00  0.00    +0.004 A 
ATOM     23  C   UNL     1      -2.586   4.507   8.233  0.00  0.00    +0.046 A 
ATOM     24  C   UNL     1      -1.694   4.721   7.193  0.00  0.00    +0.129 A 
ATOM     25  C   UNL     1      -1.823   4.002   6.013  0.00  0.00    +0.048 A 
BRANCH  24  26
ATOM     26  O   UNL     1      -0.693   5.630   7.330  0.00  0.00    -0.456 OA
BRANCH  26  27
ATOM     27  C   UNL     1      -0.740   6.751   6.564  0.00  0.00    +0.128 A 
ATOM     28  C   UNL     1      -1.850   7.006   5.772  0.00  0.00    +0.046 A 
ATOM     29  C   UNL     1      -1.895   8.146   4.993  0.00  0.00    +0.004 A 
ATOM     30  C   UNL     1      -0.834   9.033   5.002  0.00  0.00    +0.000 A 
ATOM     31  C   UNL     1       0.274   8.781   5.790  0.00  0.00    +0.004 A 
ATOM     32  C   UNL     1       0.321   7.646   6.575  0.00  0.00    +0.046 A 
ENDBRANCH  26  27
ENDBRANCH  24  26
ENDBRANCH  19  20
ENDBRANCH  12  19
BRANCH   3  33
ATOM     33  O   UNL     1       0.449  -0.288  -2.156  0.00  0.00    -0.487 OA
BRANCH  33  34
ATOM     34  C   UNL     1       0.511  -1.091  -3.337  0.00  0.00    +0.264 C 
BRANCH  34  35
ATOM     35  C   UNL     1       0.538  -0.198  -4.550  0.00  0.00    -0.010 A 
ATOM     36  C   UNL     1      -0.645   0.190  -5.149  0.00  0.00    +0.007 A 
ATOM     37  C   UNL     1      -0.620   1.009  -6.263  0.00  0.00    +0.000 A 
ATOM     38  C   UNL     1       0.588   1.440  -6.777  0.00  0.00    +0.000 A 
ATOM     39  C   UNL     1       1.772   1.052  -6.177  0.00  0.00    +0.000 A 
ATOM     40  C   UNL     1       1.747   0.237  -5.061  0.00  0.00    +0.007 A 
ENDBRANCH  34  35
ENDBRANCH  33  34
ENDBRANCH   3  33
TORSDOF 7
