REMARK  Name = ZINC12421247
REMARK  9 active torsions:
REMARK  status: ('A' for Active; 'I' for Inactive)
REMARK    1  A    between atoms: C_1  and  C_2
REMARK    2  A    between atoms: N_5  and  S_8
REMARK    3  A    between atoms: S_8  and  C_11
REMARK    4  A    between atoms: C_14  and  C_17
REMARK    5  A    between atoms: C_19  and  C_31
REMARK    6  A    between atoms: C_20  and  N_22
REMARK    7  A    between atoms: N_22  and  C_23
REMARK    8  A    between atoms: C_26  and  O_29
REMARK    9  A    between atoms: O_29  and  C_30
REMARK                            x       y       z     vdW  Elec       q    Type
REMARK                         _______ _______ _______ _____ _____    ______ ____
ROOT
ATOM      1  C   UNL     1      -3.293  -1.216   0.259  0.00  0.00    +0.231 A 
ATOM      2  N   UNL     1      -2.641  -2.348   0.306  0.00  0.00    -0.196 NA
ATOM      3  C   UNL     1      -1.311  -2.087   0.213  0.00  0.00    +0.201 A 
ATOM      4  C   UNL     1      -1.176  -0.710   0.114  0.00  0.00    +0.229 A 
ATOM      5  O   UNL     1      -2.420  -0.197   0.141  0.00  0.00    -0.420 OA
ENDROOT
BRANCH   1   9
ATOM      6  C   UNL     1      -7.517  -0.812   0.453  0.00  0.00    +0.106 A 
ATOM      7  C   UNL     1      -6.942  -2.069   0.511  0.00  0.00    +0.029 A 
ATOM      8  C   UNL     1      -5.571  -2.208   0.449  0.00  0.00    +0.015 A 
ATOM      9  C   UNL     1      -4.763  -1.075   0.326  0.00  0.00    +0.037 A 
ATOM     10  C   UNL     1      -5.350   0.190   0.273  0.00  0.00    +0.015 A 
ATOM     11  C   UNL     1      -6.722   0.314   0.332  0.00  0.00    +0.029 A 
BRANCH   6  12
ATOM     12  S   UNL     1      -9.269  -0.645   0.535  0.00  0.00    +0.061 S 
ATOM     13  O   UNL     1      -9.588   0.592  -0.088  0.00  0.00    -0.153 OA
ATOM     14  O   UNL     1      -9.816  -1.881   0.099  0.00  0.00    -0.153 OA
BRANCH  12  19
ATOM     15  C   UNL     1     -12.696   0.015   5.084  0.00  0.00    +0.007 C 
ATOM     16  C   UNL     1     -11.344  -0.162   4.392  0.00  0.00    -0.012 C 
ATOM     17  C   UNL     1     -11.108   1.002   3.427  0.00  0.00    +0.020 C 
ATOM     18  C   UNL     1      -9.738   0.840   2.761  0.00  0.00    +0.110 C 
ATOM     19  N   UNL     1      -9.672  -0.487   2.133  0.00  0.00    -0.177 NA
ATOM     20  C   UNL     1      -9.975  -1.670   2.949  0.00  0.00    +0.110 C 
ATOM     21  C   UNL     1     -11.338  -1.480   3.614  0.00  0.00    +0.020 C 
ENDBRANCH  12  19
ENDBRANCH   6  12
ENDBRANCH   1   9
BRANCH   4  22
ATOM     22  N   UNL     1       0.002  -0.004   0.002  0.00  0.00    -0.283 N 
ATOM     23  H   UNL     1       0.852  -0.466   0.072  0.00  0.00    +0.155 HD
BRANCH  22  24
ATOM     24  C   UNL     1      -0.028   1.379  -0.213  0.00  0.00    +0.034 A 
ATOM     25  C   UNL     1      -1.093   1.953  -0.895  0.00  0.00    +0.027 A 
ATOM     26  C   UNL     1      -1.124   3.318  -1.101  0.00  0.00    +0.047 A 
ATOM     27  C   UNL     1      -0.087   4.114  -0.637  0.00  0.00    +0.120 A 
ATOM     28  C   UNL     1       0.979   3.541   0.039  0.00  0.00    +0.047 A 
ATOM     29  C   UNL     1       1.010   2.176   0.251  0.00  0.00    +0.027 A 
BRANCH  27  30
ATOM     30  O   UNL     1      -0.117   5.457  -0.845  0.00  0.00    -0.495 OA
ATOM     31  C   UNL     1      -1.245   5.981  -1.549  0.00  0.00    +0.277 C 
ENDBRANCH  27  30
ENDBRANCH  22  24
ENDBRANCH   4  22
BRANCH   3  32
ATOM     32  C   UNL     1      -0.250  -3.049   0.219  0.00  0.00    +0.124 C 
ATOM     33  N   UNL     1       0.591  -3.812   0.224  0.00  0.00    -0.189 NA
ENDBRANCH   3  32
TORSDOF 7
