REMARK  Name = ZINC33266915
REMARK  7 active torsions:
REMARK  status: ('A' for Active; 'I' for Inactive)
REMARK    1  A    between atoms: C_1  and  C_2
REMARK    2  A    between atoms: N_5  and  C_7
REMARK    3  A    between atoms: C_18  and  C_34
REMARK    4  A    between atoms: N_24  and  C_25
REMARK    5  A    between atoms: C_29  and  C_30
REMARK    6  A    between atoms: C_30  and  O_32
REMARK    7  A    between atoms: O_32  and  C_33
REMARK                            x       y       z     vdW  Elec       q    Type
REMARK                         _______ _______ _______ _____ _____    ______ ____
ROOT
ATOM      1  C   UNL     1       1.804   3.516  -0.463  0.00  0.00    +0.068 C 
ATOM      2  C   UNL     1       1.276   2.105  -0.468  0.00  0.00    +0.067 A 
ATOM      3  C   UNL     1       2.042   0.948  -0.369  0.00  0.00    +0.035 A 
ATOM      4  C   UNL     1       1.191  -0.117  -0.440  0.00  0.00    +0.146 A 
ATOM      5  N   UNL     1      -0.066   0.356  -0.535  0.00  0.00    -0.215 N 
ATOM      6  N   UNL     1       0.014   1.758  -0.567  0.00  0.00    -0.169 NA
ATOM      7  N   UNL     1       1.687  -1.426  -0.455  0.00  0.00    -0.303 N 
ATOM      8  C   UNL     1       1.275  -2.532   0.206  0.00  0.00    +0.093 A 
ATOM      9  C   UNL     1       2.135  -3.534  -0.086  0.00  0.00    +0.020 A 
ATOM     10  C   UNL     1       3.099  -3.021  -0.982  0.00  0.00    +0.025 A 
ATOM     11  C   UNL     1       2.787  -1.736  -1.214  0.00  0.00    +0.050 A 
ATOM     12  C   UNL     1       3.438  -0.764  -2.154  0.00  0.00    +0.155 C 
ATOM     13  N   UNL     1       4.175   0.291  -1.420  0.00  0.00    -0.268 N 
ATOM     14  C   UNL     1       3.526   0.807  -0.192  0.00  0.00    +0.151 C 
ATOM     15  C   UNL     1       5.367   0.755  -1.845  0.00  0.00    +0.308 C 
ATOM     16  O   UNL     1       5.867   0.307  -2.858  0.00  0.00    -0.252 OA
ATOM     17  N   UNL     1       6.003   1.717  -1.147  0.00  0.00    -0.268 N 
ATOM     18  H   UNL     1       5.601   2.051  -0.179  0.00  0.00    +0.156 HD
ENDROOT
BRANCH   5  19
ATOM     19  C   UNL     1      -1.238  -0.410  -0.593  0.00  0.00    +0.068 A 
ATOM     20  C   UNL     1      -1.241  -1.630  -1.256  0.00  0.00    +0.028 A 
ATOM     21  C   UNL     1      -2.396  -2.384  -1.307  0.00  0.00    +0.002 A 
ATOM     22  C   UNL     1      -3.553  -1.921  -0.707  0.00  0.00    +0.000 A 
ATOM     23  C   UNL     1      -3.555  -0.705  -0.050  0.00  0.00    +0.002 A 
ATOM     24  C   UNL     1      -2.401   0.052   0.008  0.00  0.00    +0.028 A 
ENDBRANCH   5  19
BRANCH  12  25
ATOM     25  C   UNL     1       2.378  -0.120  -3.010  0.00  0.00    -0.021 A 
ATOM     26  C   UNL     1       1.243  -0.830  -3.354  0.00  0.00    +0.006 A 
ATOM     27  C   UNL     1       0.268  -0.238  -4.136  0.00  0.00    +0.000 A 
ATOM     28  C   UNL     1       0.433   1.061  -4.580  0.00  0.00    +0.000 A 
ATOM     29  C   UNL     1       1.571   1.768  -4.240  0.00  0.00    +0.000 A 
ATOM     30  C   UNL     1       2.543   1.178  -3.455  0.00  0.00    +0.006 A 
ENDBRANCH  12  25
BRANCH  17  31
ATOM     31  C   UNL     1       7.171   2.288  -1.653  0.00  0.00    +0.056 A 
ATOM     32  C   UNL     1       7.368   2.454  -3.007  0.00  0.00    +0.032 A 
ATOM     33  C   UNL     1       8.523   3.015  -3.446  0.00  0.00    +0.048 A 
ATOM     34  S   UNL     1       9.393   3.340  -1.982  0.00  0.00    -0.088 S 
ATOM     35  C   UNL     1       8.195   2.725  -0.812  0.00  0.00    +0.117 A 
BRANCH  35  36
ATOM     36  C   UNL     1       8.265   2.688   0.600  0.00  0.00    +0.347 C 
ATOM     37  O   UNL     1       7.342   2.225   1.244  0.00  0.00    -0.244 OA
BRANCH  36  38
ATOM     38  O   UNL     1       9.357   3.167   1.234  0.00  0.00    -0.464 OA
ATOM     39  C   UNL     1       9.360   3.098   2.661  0.00  0.00    +0.280 C 
ENDBRANCH  36  38
ENDBRANCH  35  36
ENDBRANCH  17  31
TORSDOF 5
